MODEL 1
REMARK VINA RESULT:      -7.3      0.000      0.000
REMARK  Name = 
REMARK  4 active torsions:
REMARK  status: ('A' for Active; 'I' for Inactive)
REMARK    1  A    between atoms: N_1  and  C_2
REMARK    2  A    between atoms: C_5  and  C_6
REMARK    3  A    between atoms: N_8  and  C_9
REMARK    4  A    between atoms: C_10  and  O_11
REMARK                            x       y       z     vdW  Elec       q    Type
REMARK                         _______ _______ _______ _____ _____    ______ ____
ROOT
ATOM      1  C   UNL     1       6.054   4.306  16.445  0.00  0.00    +0.000 A 
ATOM      2  C   UNL     1       4.805   4.040  16.954  0.00  0.00    +0.000 A 
ATOM      3  N   UNL     1       4.942   4.142  18.316  0.00  0.00    +0.000 N 
ATOM      4  N   UNL     1       6.239   4.429  18.610  0.00  0.00    +0.000 NA
ATOM      5  N   UNL     1       6.915   4.550  17.476  0.00  0.00    +0.000 NA
ENDROOT
BRANCH   3   6
ATOM      6  C   UNL     1       3.973   4.019  19.339  0.00  0.00    +0.000 A 
ATOM      7  C   UNL     1       3.938   2.894  20.183  0.00  0.00    +0.000 A 
ATOM      8  C   UNL     1       2.990   2.823  21.214  0.00  0.00    +0.000 A 
ATOM      9  F   UNL     1       2.961   1.760  22.030  0.00  0.00    +0.000 F 
ATOM     10  C   UNL     1       2.068   3.838  21.418  0.00  0.00    +0.000 A 
ATOM     11  C   UNL     1       2.095   4.937  20.576  0.00  0.00    +0.000 A 
ATOM     12  F   UNL     1       1.203   5.922  20.756  0.00  0.00    +0.000 F 
ATOM     13  C   UNL     1       3.032   5.034  19.550  0.00  0.00    +0.000 A 
ATOM     14  F   UNL     1       2.989   6.134  18.784  0.00  0.00    +0.000 F 
BRANCH   7  15
ATOM     15  O   UNL     1       4.782   1.819  20.074  0.00  0.00    +0.000 OA
ATOM     16  H   UNL     1       4.905   1.392  20.948  0.00  0.00    +0.000 HD
ENDBRANCH   7  15
ENDBRANCH   3   6
BRANCH   1  20
ATOM     17  C   UNL     1       7.104   4.407  12.311  0.00  0.00    +0.000 A 
ATOM     18  C   UNL     1       6.030   3.633  12.758  0.00  0.00    +0.000 A 
ATOM     19  C   UNL     1       5.692   3.595  14.116  0.00  0.00    +0.000 A 
ATOM     20  C   UNL     1       6.403   4.362  15.042  0.00  0.00    +0.000 A 
ATOM     21  C   UNL     1       7.444   5.179  14.585  0.00  0.00    +0.000 A 
ATOM     22  C   UNL     1       7.774   5.215  13.227  0.00  0.00    +0.000 A 
BRANCH  17  23
ATOM     23  N   UNL     1       7.347   4.550  10.941  0.00  0.00    +0.000 N 
ATOM     24  H   UNL     1       8.077   3.939  10.586  0.00  0.00    +0.000 HD
ATOM     25  H   UNL     1       7.469   5.512  10.641  0.00  0.00    +0.000 HD
ENDBRANCH  17  23
ENDBRANCH   1  20
TORSDOF 4
ENDMDL
MODEL 2
REMARK VINA RESULT:      -7.2      4.754      8.236
REMARK  Name = 
REMARK  4 active torsions:
REMARK  status: ('A' for Active; 'I' for Inactive)
REMARK    1  A    between atoms: N_1  and  C_2
REMARK    2  A    between atoms: C_5  and  C_6
REMARK    3  A    between atoms: N_8  and  C_9
REMARK    4  A    between atoms: C_10  and  O_11
REMARK                            x       y       z     vdW  Elec       q    Type
REMARK                         _______ _______ _______ _____ _____    ______ ____
ROOT
ATOM      1  C   UNL     1       1.607   8.647  19.285  0.00  0.00    +0.000 A 
ATOM      2  C   UNL     1       2.040   7.344  19.354  0.00  0.00    +0.000 A 
ATOM      3  N   UNL     1       2.735   7.132  18.189  0.00  0.00    +0.000 N 
ATOM      4  N   UNL     1       2.689   8.264  17.436  0.00  0.00    +0.000 NA
ATOM      5  N   UNL     1       2.023   9.195  18.106  0.00  0.00    +0.000 NA
ENDROOT
BRANCH   3   6
ATOM      6  C   UNL     1       3.440   5.990  17.746  0.00  0.00    +0.000 A 
ATOM      7  C   UNL     1       4.792   6.065  17.367  0.00  0.00    +0.000 A 
ATOM      8  C   UNL     1       5.474   4.904  16.972  0.00  0.00    +0.000 A 
ATOM      9  F   UNL     1       6.767   4.967  16.624  0.00  0.00    +0.000 F 
ATOM     10  C   UNL     1       4.839   3.673  16.933  0.00  0.00    +0.000 A 
ATOM     11  C   UNL     1       3.502   3.604  17.291  0.00  0.00    +0.000 A 
ATOM     12  F   UNL     1       2.873   2.421  17.248  0.00  0.00    +0.000 F 
ATOM     13  C   UNL     1       2.807   4.742  17.694  0.00  0.00    +0.000 A 
ATOM     14  F   UNL     1       1.517   4.585  18.027  0.00  0.00    +0.000 F 
BRANCH   7  15
ATOM     15  O   UNL     1       5.526   7.223  17.347  0.00  0.00    +0.000 OA
ATOM     16  H   UNL     1       5.537   7.604  16.444  0.00  0.00    +0.000 HD
ENDBRANCH   7  15
ENDBRANCH   3   6
BRANCH   1  20
ATOM     17  C   UNL     1      -0.545  10.769  22.297  0.00  0.00    +0.000 A 
ATOM     18  C   UNL     1      -0.594  11.175  20.961  0.00  0.00    +0.000 A 
ATOM     19  C   UNL     1       0.119  10.483  19.976  0.00  0.00    +0.000 A 
ATOM     20  C   UNL     1       0.864   9.348  20.308  0.00  0.00    +0.000 A 
ATOM     21  C   UNL     1       0.868   8.910  21.638  0.00  0.00    +0.000 A 
ATOM     22  C   UNL     1       0.150   9.603  22.617  0.00  0.00    +0.000 A 
BRANCH  17  23
ATOM     23  N   UNL     1      -1.368  11.378  23.249  0.00  0.00    +0.000 N 
ATOM     24  H   UNL     1      -2.360  11.312  23.039  0.00  0.00    +0.000 HD
ATOM     25  H   UNL     1      -1.088  12.322  23.494  0.00  0.00    +0.000 HD
ENDBRANCH  17  23
ENDBRANCH   1  20
TORSDOF 4
ENDMDL
MODEL 3
REMARK VINA RESULT:      -7.2      3.588      7.723
REMARK  Name = 
REMARK  4 active torsions:
REMARK  status: ('A' for Active; 'I' for Inactive)
REMARK    1  A    between atoms: N_1  and  C_2
REMARK    2  A    between atoms: C_5  and  C_6
REMARK    3  A    between atoms: N_8  and  C_9
REMARK    4  A    between atoms: C_10  and  O_11
REMARK                            x       y       z     vdW  Elec       q    Type
REMARK                         _______ _______ _______ _____ _____    ______ ____
ROOT
ATOM      1  C   UNL     1       4.014   4.637  17.658  0.00  0.00    +0.000 A 
ATOM      2  C   UNL     1       4.550   3.916  16.618  0.00  0.00    +0.000 A 
ATOM      3  N   UNL     1       5.124   4.848  15.790  0.00  0.00    +0.000 N 
ATOM      4  N   UNL     1       4.908   6.089  16.305  0.00  0.00    +0.000 NA
ATOM      5  N   UNL     1       4.253   5.965  17.451  0.00  0.00    +0.000 NA
ENDROOT
BRANCH   3   6
ATOM      6  C   UNL     1       5.861   4.673  14.596  0.00  0.00    +0.000 A 
ATOM      7  C   UNL     1       7.131   5.253  14.427  0.00  0.00    +0.000 A 
ATOM      8  C   UNL     1       7.853   5.024  13.246  0.00  0.00    +0.000 A 
ATOM      9  F   UNL     1       9.070   5.562  13.085  0.00  0.00    +0.000 F 
ATOM     10  C   UNL     1       7.336   4.243  12.224  0.00  0.00    +0.000 A 
ATOM     11  C   UNL     1       6.078   3.686  12.386  0.00  0.00    +0.000 A 
ATOM     12  F   UNL     1       5.562   2.936  11.402  0.00  0.00    +0.000 F 
ATOM     13  C   UNL     1       5.346   3.892  13.553  0.00  0.00    +0.000 A 
ATOM     14  F   UNL     1       4.138   3.314  13.628  0.00  0.00    +0.000 F 
BRANCH   7  15
ATOM     15  O   UNL     1       7.744   6.057  15.353  0.00  0.00    +0.000 OA
ATOM     16  H   UNL     1       8.298   5.519  15.957  0.00  0.00    +0.000 HD
ENDBRANCH   7  15
ENDBRANCH   3   6
BRANCH   1  20
ATOM     17  C   UNL     1       2.017   2.955  21.032  0.00  0.00    +0.000 A 
ATOM     18  C   UNL     1       3.317   2.565  20.702  0.00  0.00    +0.000 A 
ATOM     19  C   UNL     1       3.968   3.112  19.590  0.00  0.00    +0.000 A 
ATOM     20  C   UNL     1       3.338   4.087  18.812  0.00  0.00    +0.000 A 
ATOM     21  C   UNL     1       2.056   4.517  19.176  0.00  0.00    +0.000 A 
ATOM     22  C   UNL     1       1.414   3.969  20.290  0.00  0.00    +0.000 A 
BRANCH  17  23
ATOM     23  N   UNL     1       1.429   2.510  22.220  0.00  0.00    +0.000 N 
ATOM     24  H   UNL     1       0.621   1.910  22.081  0.00  0.00    +0.000 HD
ATOM     25  H   UNL     1       1.249   3.248  22.893  0.00  0.00    +0.000 HD
ENDBRANCH  17  23
ENDBRANCH   1  20
TORSDOF 4
ENDMDL
MODEL 4
REMARK VINA RESULT:      -7.2      5.091      6.701
REMARK  Name = 
REMARK  4 active torsions:
REMARK  status: ('A' for Active; 'I' for Inactive)
REMARK    1  A    between atoms: N_1  and  C_2
REMARK    2  A    between atoms: C_5  and  C_6
REMARK    3  A    between atoms: N_8  and  C_9
REMARK    4  A    between atoms: C_10  and  O_11
REMARK                            x       y       z     vdW  Elec       q    Type
REMARK                         _______ _______ _______ _____ _____    ______ ____
ROOT
ATOM      1  C   UNL     1       2.640   7.771  18.159  0.00  0.00    +0.000 A 
ATOM      2  C   UNL     1       2.076   7.870  19.408  0.00  0.00    +0.000 A 
ATOM      3  N   UNL     1       1.437   9.085  19.420  0.00  0.00    +0.000 N 
ATOM      4  N   UNL     1       1.643   9.704  18.226  0.00  0.00    +0.000 NA
ATOM      5  N   UNL     1       2.355   8.901  17.448  0.00  0.00    +0.000 NA
ENDROOT
BRANCH   3   6
ATOM      6  C   UNL     1       0.649   9.688  20.428  0.00  0.00    +0.000 A 
ATOM      7  C   UNL     1      -0.276  10.703  20.125  0.00  0.00    +0.000 A 
ATOM      8  C   UNL     1      -1.071  11.250  21.143  0.00  0.00    +0.000 A 
ATOM      9  F   UNL     1      -1.965  12.208  20.858  0.00  0.00    +0.000 F 
ATOM     10  C   UNL     1      -0.959  10.821  22.456  0.00  0.00    +0.000 A 
ATOM     11  C   UNL     1      -0.035   9.833  22.754  0.00  0.00    +0.000 A 
ATOM     12  F   UNL     1       0.090   9.415  24.022  0.00  0.00    +0.000 F 
ATOM     13  C   UNL     1       0.760   9.268  21.760  0.00  0.00    +0.000 A 
ATOM     14  F   UNL     1       1.625   8.315  22.135  0.00  0.00    +0.000 F 
BRANCH   7  15
ATOM     15  O   UNL     1      -0.470  11.224  18.872  0.00  0.00    +0.000 OA
ATOM     16  H   UNL     1       0.352  11.152  18.342  0.00  0.00    +0.000 HD
ENDBRANCH   7  15
ENDBRANCH   3   6
BRANCH   1  20
ATOM     17  C   UNL     1       4.823   4.451  16.603  0.00  0.00    +0.000 A 
ATOM     18  C   UNL     1       5.282   5.758  16.422  0.00  0.00    +0.000 A 
ATOM     19  C   UNL     1       4.561   6.846  16.926  0.00  0.00    +0.000 A 
ATOM     20  C   UNL     1       3.385   6.639  17.652  0.00  0.00    +0.000 A 
ATOM     21  C   UNL     1       2.954   5.326  17.880  0.00  0.00    +0.000 A 
ATOM     22  C   UNL     1       3.682   4.244  17.377  0.00  0.00    +0.000 A 
BRANCH  17  23
ATOM     23  N   UNL     1       5.617   3.366  16.220  0.00  0.00    +0.000 N 
ATOM     24  H   UNL     1       5.691   3.244  15.215  0.00  0.00    +0.000 HD
ATOM     25  H   UNL     1       5.390   2.499  16.698  0.00  0.00    +0.000 HD
ENDBRANCH  17  23
ENDBRANCH   1  20
TORSDOF 4
ENDMDL
MODEL 5
REMARK VINA RESULT:      -7.2      3.579      7.712
REMARK  Name = 
REMARK  4 active torsions:
REMARK  status: ('A' for Active; 'I' for Inactive)
REMARK    1  A    between atoms: N_1  and  C_2
REMARK    2  A    between atoms: C_5  and  C_6
REMARK    3  A    between atoms: N_8  and  C_9
REMARK    4  A    between atoms: C_10  and  O_11
REMARK                            x       y       z     vdW  Elec       q    Type
REMARK                         _______ _______ _______ _____ _____    ______ ____
ROOT
ATOM      1  C   UNL     1       4.041   4.657  17.681  0.00  0.00    +0.000 A 
ATOM      2  C   UNL     1       4.587   3.925  16.654  0.00  0.00    +0.000 A 
ATOM      3  N   UNL     1       5.129   4.854  15.799  0.00  0.00    +0.000 N 
ATOM      4  N   UNL     1       4.884   6.100  16.288  0.00  0.00    +0.000 NA
ATOM      5  N   UNL     1       4.242   5.985  17.442  0.00  0.00    +0.000 NA
ENDROOT
BRANCH   3   6
ATOM      6  C   UNL     1       5.861   4.670  14.603  0.00  0.00    +0.000 A 
ATOM      7  C   UNL     1       7.131   5.247  14.426  0.00  0.00    +0.000 A 
ATOM      8  C   UNL     1       7.847   5.010  13.243  0.00  0.00    +0.000 A 
ATOM      9  F   UNL     1       9.065   5.545  13.074  0.00  0.00    +0.000 F 
ATOM     10  C   UNL     1       7.325   4.224  12.228  0.00  0.00    +0.000 A 
ATOM     11  C   UNL     1       6.066   3.671  12.398  0.00  0.00    +0.000 A 
ATOM     12  F   UNL     1       5.545   2.917  11.420  0.00  0.00    +0.000 F 
ATOM     13  C   UNL     1       5.339   3.885  13.567  0.00  0.00    +0.000 A 
ATOM     14  F   UNL     1       4.131   3.309  13.650  0.00  0.00    +0.000 F 
BRANCH   7  15
ATOM     15  O   UNL     1       7.749   6.054  15.345  0.00  0.00    +0.000 OA
ATOM     16  H   UNL     1       7.096   6.650  15.769  0.00  0.00    +0.000 HD
ENDBRANCH   7  15
ENDBRANCH   3   6
BRANCH   1  20
ATOM     17  C   UNL     1       2.129   3.117  21.171  0.00  0.00    +0.000 A 
ATOM     18  C   UNL     1       1.523   4.114  20.403  0.00  0.00    +0.000 A 
ATOM     19  C   UNL     1       2.155   4.624  19.263  0.00  0.00    +0.000 A 
ATOM     20  C   UNL     1       3.390   4.115  18.854  0.00  0.00    +0.000 A 
ATOM     21  C   UNL     1       3.972   3.078  19.593  0.00  0.00    +0.000 A 
ATOM     22  C   UNL     1       3.333   2.571  20.728  0.00  0.00    +0.000 A 
BRANCH  17  23
ATOM     23  N   UNL     1       1.432   2.516  22.224  0.00  0.00    +0.000 N 
ATOM     24  H   UNL     1       2.009   2.307  23.034  0.00  0.00    +0.000 HD
ATOM     25  H   UNL     1       0.861   1.726  21.943  0.00  0.00    +0.000 HD
ENDBRANCH  17  23
ENDBRANCH   1  20
TORSDOF 4
ENDMDL
MODEL 6
REMARK VINA RESULT:      -7.2      4.686      8.182
REMARK  Name = 
REMARK  4 active torsions:
REMARK  status: ('A' for Active; 'I' for Inactive)
REMARK    1  A    between atoms: N_1  and  C_2
REMARK    2  A    between atoms: C_5  and  C_6
REMARK    3  A    between atoms: N_8  and  C_9
REMARK    4  A    between atoms: C_10  and  O_11
REMARK                            x       y       z     vdW  Elec       q    Type
REMARK                         _______ _______ _______ _____ _____    ______ ____
ROOT
ATOM      1  C   UNL     1       1.686   8.574  19.237  0.00  0.00    +0.000 A 
ATOM      2  C   UNL     1       2.136   7.277  19.307  0.00  0.00    +0.000 A 
ATOM      3  N   UNL     1       2.843   7.077  18.147  0.00  0.00    +0.000 N 
ATOM      4  N   UNL     1       2.788   8.210  17.396  0.00  0.00    +0.000 NA
ATOM      5  N   UNL     1       2.104   9.129  18.062  0.00  0.00    +0.000 NA
ENDROOT
BRANCH   3   6
ATOM      6  C   UNL     1       3.569   5.945  17.708  0.00  0.00    +0.000 A 
ATOM      7  C   UNL     1       4.916   6.046  17.316  0.00  0.00    +0.000 A 
ATOM      8  C   UNL     1       5.617   4.896  16.925  0.00  0.00    +0.000 A 
ATOM      9  F   UNL     1       6.905   4.983  16.564  0.00  0.00    +0.000 F 
ATOM     10  C   UNL     1       5.008   3.651  16.904  0.00  0.00    +0.000 A 
ATOM     11  C   UNL     1       3.677   3.557  17.275  0.00  0.00    +0.000 A 
ATOM     12  F   UNL     1       3.073   2.361  17.250  0.00  0.00    +0.000 F 
ATOM     13  C   UNL     1       2.961   4.684  17.675  0.00  0.00    +0.000 A 
ATOM     14  F   UNL     1       1.679   4.503  18.021  0.00  0.00    +0.000 F 
BRANCH   7  15
ATOM     15  O   UNL     1       5.625   7.219  17.278  0.00  0.00    +0.000 OA
ATOM     16  H   UNL     1       5.938   7.457  18.176  0.00  0.00    +0.000 HD
ENDBRANCH   7  15
ENDBRANCH   3   6
BRANCH   1  20
ATOM     17  C   UNL     1      -0.599  10.554  22.247  0.00  0.00    +0.000 A 
ATOM     18  C   UNL     1       0.213   9.463  22.567  0.00  0.00    +0.000 A 
ATOM     19  C   UNL     1       0.956   8.810  21.576  0.00  0.00    +0.000 A 
ATOM     20  C   UNL     1       0.924   9.263  20.255  0.00  0.00    +0.000 A 
ATOM     21  C   UNL     1       0.152  10.389  19.946  0.00  0.00    +0.000 A 
ATOM     22  C   UNL     1      -0.584  11.040  20.941  0.00  0.00    +0.000 A 
BRANCH  17  23
ATOM     23  N   UNL     1      -1.226  11.286  23.260  0.00  0.00    +0.000 N 
ATOM     24  H   UNL     1      -0.819  12.203  23.418  0.00  0.00    +0.000 HD
ATOM     25  H   UNL     1      -1.356  10.769  24.124  0.00  0.00    +0.000 HD
ENDBRANCH  17  23
ENDBRANCH   1  20
TORSDOF 4
ENDMDL
MODEL 7
REMARK VINA RESULT:      -7.2      0.073      1.028
REMARK  Name = 
REMARK  4 active torsions:
REMARK  status: ('A' for Active; 'I' for Inactive)
REMARK    1  A    between atoms: N_1  and  C_2
REMARK    2  A    between atoms: C_5  and  C_6
REMARK    3  A    between atoms: N_8  and  C_9
REMARK    4  A    between atoms: C_10  and  O_11
REMARK                            x       y       z     vdW  Elec       q    Type
REMARK                         _______ _______ _______ _____ _____    ______ ____
ROOT
ATOM      1  C   UNL     1       6.007   4.267  16.418  0.00  0.00    +0.000 A 
ATOM      2  C   UNL     1       4.768   3.985  16.942  0.00  0.00    +0.000 A 
ATOM      3  N   UNL     1       4.915   4.113  18.301  0.00  0.00    +0.000 N 
ATOM      4  N   UNL     1       6.208   4.428  18.578  0.00  0.00    +0.000 NA
ATOM      5  N   UNL     1       6.872   4.544  17.437  0.00  0.00    +0.000 NA
ENDROOT
BRANCH   3   6
ATOM      6  C   UNL     1       3.957   3.988  19.334  0.00  0.00    +0.000 A 
ATOM      7  C   UNL     1       3.941   2.870  20.188  0.00  0.00    +0.000 A 
ATOM      8  C   UNL     1       3.004   2.798  21.228  0.00  0.00    +0.000 A 
ATOM      9  F   UNL     1       2.993   1.742  22.054  0.00  0.00    +0.000 F 
ATOM     10  C   UNL     1       2.074   3.805  21.433  0.00  0.00    +0.000 A 
ATOM     11  C   UNL     1       2.081   4.897  20.581  0.00  0.00    +0.000 A 
ATOM     12  F   UNL     1       1.180   5.874  20.762  0.00  0.00    +0.000 F 
ATOM     13  C   UNL     1       3.007   4.995  19.545  0.00  0.00    +0.000 A 
ATOM     14  F   UNL     1       2.945   6.088  18.770  0.00  0.00    +0.000 F 
BRANCH   7  15
ATOM     15  O   UNL     1       4.796   1.803  20.080  0.00  0.00    +0.000 OA
ATOM     16  H   UNL     1       5.185   1.588  20.954  0.00  0.00    +0.000 HD
ENDBRANCH   7  15
ENDBRANCH   3   6
BRANCH   1  20
ATOM     17  C   UNL     1       6.980   4.443  12.267  0.00  0.00    +0.000 A 
ATOM     18  C   UNL     1       7.727   5.155  13.209  0.00  0.00    +0.000 A 
ATOM     19  C   UNL     1       7.402   5.103  14.569  0.00  0.00    +0.000 A 
ATOM     20  C   UNL     1       6.343   4.305  15.011  0.00  0.00    +0.000 A 
ATOM     21  C   UNL     1       5.630   3.549  14.074  0.00  0.00    +0.000 A 
ATOM     22  C   UNL     1       5.963   3.603  12.717  0.00  0.00    +0.000 A 
BRANCH  17  23
ATOM     23  N   UNL     1       7.396   4.389  10.933  0.00  0.00    +0.000 N 
ATOM     24  H   UNL     1       7.723   3.473  10.640  0.00  0.00    +0.000 HD
ATOM     25  H   UNL     1       8.038   5.130  10.670  0.00  0.00    +0.000 HD
ENDBRANCH  17  23
ENDBRANCH   1  20
TORSDOF 4
ENDMDL
MODEL 8
REMARK VINA RESULT:      -7.1      5.028      6.795
REMARK  Name = 
REMARK  4 active torsions:
REMARK  status: ('A' for Active; 'I' for Inactive)
REMARK    1  A    between atoms: N_1  and  C_2
REMARK    2  A    between atoms: C_5  and  C_6
REMARK    3  A    between atoms: N_8  and  C_9
REMARK    4  A    between atoms: C_10  and  O_11
REMARK                            x       y       z     vdW  Elec       q    Type
REMARK                         _______ _______ _______ _____ _____    ______ ____
ROOT
ATOM      1  C   UNL     1       2.675   6.296  18.727  0.00  0.00    +0.000 A 
ATOM      2  C   UNL     1       1.834   6.856  19.660  0.00  0.00    +0.000 A 
ATOM      3  N   UNL     1       1.779   8.190  19.341  0.00  0.00    +0.000 N 
ATOM      4  N   UNL     1       2.587   8.422  18.271  0.00  0.00    +0.000 NA
ATOM      5  N   UNL     1       3.117   7.272  17.881  0.00  0.00    +0.000 NA
ENDROOT
BRANCH   3   6
ATOM      6  C   UNL     1       1.030   9.235  19.929  0.00  0.00    +0.000 A 
ATOM      7  C   UNL     1       0.433  10.239  19.146  0.00  0.00    +0.000 A 
ATOM      8  C   UNL     1      -0.338  11.238  19.759  0.00  0.00    +0.000 A 
ATOM      9  F   UNL     1      -0.922  12.189  19.016  0.00  0.00    +0.000 F 
ATOM     10  C   UNL     1      -0.519  11.269  21.133  0.00  0.00    +0.000 A 
ATOM     11  C   UNL     1       0.084  10.289  21.903  0.00  0.00    +0.000 A 
ATOM     12  F   UNL     1      -0.075  10.312  23.235  0.00  0.00    +0.000 F 
ATOM     13  C   UNL     1       0.848   9.282  21.317  0.00  0.00    +0.000 A 
ATOM     14  F   UNL     1       1.393   8.371  22.137  0.00  0.00    +0.000 F 
BRANCH   7  15
ATOM     15  O   UNL     1       0.549  10.328  17.783  0.00  0.00    +0.000 OA
ATOM     16  H   UNL     1      -0.335  10.427  17.371  0.00  0.00    +0.000 HD
ENDBRANCH   7  15
ENDBRANCH   3   6
BRANCH   1  20
ATOM     17  C   UNL     1       3.612   2.143  18.450  0.00  0.00    +0.000 A 
ATOM     18  C   UNL     1       2.600   2.702  17.666  0.00  0.00    +0.000 A 
ATOM     19  C   UNL     1       2.288   4.063  17.764  0.00  0.00    +0.000 A 
ATOM     20  C   UNL     1       3.012   4.893  18.624  0.00  0.00    +0.000 A 
ATOM     21  C   UNL     1       4.062   4.343  19.369  0.00  0.00    +0.000 A 
ATOM     22  C   UNL     1       4.371   2.984  19.263  0.00  0.00    +0.000 A 
BRANCH  17  23
ATOM     23  N   UNL     1       4.010   0.818  18.246  0.00  0.00    +0.000 N 
ATOM     24  H   UNL     1       3.478   0.334  17.528  0.00  0.00    +0.000 HD
ATOM     25  H   UNL     1       4.091   0.275  19.099  0.00  0.00    +0.000 HD
ENDBRANCH  17  23
ENDBRANCH   1  20
TORSDOF 4
ENDMDL
MODEL 9
REMARK VINA RESULT:      -7.1      5.179      7.472
REMARK  Name = 
REMARK  4 active torsions:
REMARK  status: ('A' for Active; 'I' for Inactive)
REMARK    1  A    between atoms: N_1  and  C_2
REMARK    2  A    between atoms: C_5  and  C_6
REMARK    3  A    between atoms: N_8  and  C_9
REMARK    4  A    between atoms: C_10  and  O_11
REMARK                            x       y       z     vdW  Elec       q    Type
REMARK                         _______ _______ _______ _____ _____    ______ ____
ROOT
ATOM      1  C   UNL     1       2.623   7.100  19.083  0.00  0.00    +0.000 A 
ATOM      2  C   UNL     1       1.741   7.701  19.949  0.00  0.00    +0.000 A 
ATOM      3  N   UNL     1       1.407   8.892  19.353  0.00  0.00    +0.000 N 
ATOM      4  N   UNL     1       2.093   9.010  18.185  0.00  0.00    +0.000 NA
ATOM      5  N   UNL     1       2.818   7.914  18.005  0.00  0.00    +0.000 NA
ENDROOT
BRANCH   3   6
ATOM      6  C   UNL     1       0.499   9.894  19.770  0.00  0.00    +0.000 A 
ATOM      7  C   UNL     1      -0.407  10.482  18.869  0.00  0.00    +0.000 A 
ATOM      8  C   UNL     1      -1.321  11.442  19.325  0.00  0.00    +0.000 A 
ATOM      9  F   UNL     1      -2.197  11.996  18.474  0.00  0.00    +0.000 F 
ATOM     10  C   UNL     1      -1.348  11.841  20.652  0.00  0.00    +0.000 A 
ATOM     11  C   UNL     1      -0.444  11.272  21.534  0.00  0.00    +0.000 A 
ATOM     12  F   UNL     1      -0.452  11.656  22.818  0.00  0.00    +0.000 F 
ATOM     13  C   UNL     1       0.469  10.311  21.106  0.00  0.00    +0.000 A 
ATOM     14  F   UNL     1       1.306   9.809  22.026  0.00  0.00    +0.000 F 
BRANCH   7  15
ATOM     15  O   UNL     1      -0.470  10.186  17.532  0.00  0.00    +0.000 OA
ATOM     16  H   UNL     1      -0.577   9.220  17.401  0.00  0.00    +0.000 HD
ENDBRANCH   7  15
ENDBRANCH   3   6
BRANCH   1  20
ATOM     17  C   UNL     1       4.392   3.243  19.527  0.00  0.00    +0.000 A 
ATOM     18  C   UNL     1       5.075   4.273  18.876  0.00  0.00    +0.000 A 
ATOM     19  C   UNL     1       4.490   5.535  18.724  0.00  0.00    +0.000 A 
ATOM     20  C   UNL     1       3.224   5.796  19.255  0.00  0.00    +0.000 A 
ATOM     21  C   UNL     1       2.564   4.779  19.956  0.00  0.00    +0.000 A 
ATOM     22  C   UNL     1       3.156   3.522  20.108  0.00  0.00    +0.000 A 
BRANCH  17  23
ATOM     23  N   UNL     1       5.036   2.031  19.798  0.00  0.00    +0.000 N 
ATOM     24  H   UNL     1       4.726   1.582  20.655  0.00  0.00    +0.000 HD
ATOM     25  H   UNL     1       6.048   2.078  19.732  0.00  0.00    +0.000 HD
ENDBRANCH  17  23
ENDBRANCH   1  20
TORSDOF 4
ENDMDL
