MODEL 1
REMARK VINA RESULT:      -7.0      0.000      0.000
REMARK  Name = 
REMARK  6 active torsions:
REMARK  status: ('A' for Active; 'I' for Inactive)
REMARK    1  A    between atoms: C_1  and  C_2
REMARK    2  A    between atoms: C_2  and  C_3
REMARK    3  A    between atoms: C_2  and  N_9
REMARK    4  A    between atoms: C_3  and  C_4
REMARK    5  A    between atoms: N_12  and  C_13
REMARK    6  A    between atoms: C_13  and  C_14
REMARK                            x       y       z     vdW  Elec       q    Type
REMARK                         _______ _______ _______ _____ _____    ______ ____
ROOT
ATOM      1  N   UNL     1       6.105   4.841  18.250  0.00  0.00    +0.000 N 
ATOM      2  C   UNL     1       5.229   4.379  19.194  0.00  0.00    +0.000 C 
ATOM      3  O   UNL     1       4.527   5.106  19.885  0.00  0.00    +0.000 OA
ATOM      4  N   UNL     1       5.236   3.012  19.282  0.00  0.00    +0.000 N 
ATOM      5  H   UNL     1       6.832   4.205  17.953  0.00  0.00    +0.000 HD
ATOM      6  H   UNL     1       5.370   2.523  18.409  0.00  0.00    +0.000 HD
ENDROOT
BRANCH   1   8
ATOM      7  C   UNL     1       7.752   6.652  18.188  0.00  0.00    +0.000 C 
ATOM      8  C   UNL     1       6.280   6.278  18.013  0.00  0.00    +0.000 C 
BRANCH   8   9
ATOM      9  C   UNL     1       5.732   6.662  16.623  0.00  0.00    +0.000 C 
BRANCH   9  10
ATOM     10  C   UNL     1       5.995   5.631  15.584  0.00  0.00    +0.000 A 
ATOM     11  C   UNL     1       5.243   4.607  15.047  0.00  0.00    +0.000 A 
ATOM     12  C   UNL     1       6.066   3.970  14.085  0.00  0.00    +0.000 A 
ATOM     13  C   UNL     1       7.265   4.641  14.102  0.00  0.00    +0.000 A 
ATOM     14  O   UNL     1       7.234   5.647  15.013  0.00  0.00    +0.000 OA
ENDBRANCH   9  10
ENDBRANCH   8   9
ENDBRANCH   1   8
BRANCH   4  15
ATOM     15  C   UNL     1       4.308   2.397  20.205  0.00  0.00    +0.000 C 
BRANCH  15  16
ATOM     16  C   UNL     1       2.919   2.519  19.703  0.00  0.00    +0.000 A 
ATOM     17  C   UNL     1       2.289   2.097  18.548  0.00  0.00    +0.000 A 
ATOM     18  C   UNL     1       0.921   2.427  18.694  0.00  0.00    +0.000 A 
ATOM     19  C   UNL     1       0.802   3.040  19.919  0.00  0.00    +0.000 A 
ATOM     20  O   UNL     1       2.010   3.108  20.536  0.00  0.00    +0.000 OA
ENDBRANCH  15  16
ENDBRANCH   4  15
TORSDOF 5
ENDMDL
MODEL 2
REMARK VINA RESULT:      -7.0      1.125      1.504
REMARK  Name = 
REMARK  6 active torsions:
REMARK  status: ('A' for Active; 'I' for Inactive)
REMARK    1  A    between atoms: C_1  and  C_2
REMARK    2  A    between atoms: C_2  and  C_3
REMARK    3  A    between atoms: C_2  and  N_9
REMARK    4  A    between atoms: C_3  and  C_4
REMARK    5  A    between atoms: N_12  and  C_13
REMARK    6  A    between atoms: C_13  and  C_14
REMARK                            x       y       z     vdW  Elec       q    Type
REMARK                         _______ _______ _______ _____ _____    ______ ____
ROOT
ATOM      1  N   UNL     1       6.387   4.380  18.492  0.00  0.00    +0.000 N 
ATOM      2  C   UNL     1       5.039   4.151  18.457  0.00  0.00    +0.000 C 
ATOM      3  O   UNL     1       4.195   5.033  18.548  0.00  0.00    +0.000 OA
ATOM      4  N   UNL     1       4.742   2.820  18.317  0.00  0.00    +0.000 N 
ATOM      5  H   UNL     1       6.978   3.588  18.703  0.00  0.00    +0.000 HD
ATOM      6  H   UNL     1       5.377   2.295  17.734  0.00  0.00    +0.000 HD
ENDROOT
BRANCH   1   8
ATOM      7  C   UNL     1       8.115   5.692  19.626  0.00  0.00    +0.000 C 
ATOM      8  C   UNL     1       6.924   5.734  18.667  0.00  0.00    +0.000 C 
BRANCH   8   9
ATOM      9  C   UNL     1       7.284   6.348  17.299  0.00  0.00    +0.000 C 
BRANCH   9  10
ATOM     10  C   UNL     1       6.687   5.614  16.152  0.00  0.00    +0.000 A 
ATOM     11  C   UNL     1       5.542   5.790  15.402  0.00  0.00    +0.000 A 
ATOM     12  C   UNL     1       5.532   4.748  14.441  0.00  0.00    +0.000 A 
ATOM     13  C   UNL     1       6.666   4.004  14.670  0.00  0.00    +0.000 A 
ATOM     14  O   UNL     1       7.370   4.519  15.710  0.00  0.00    +0.000 OA
ENDBRANCH   9  10
ENDBRANCH   8   9
ENDBRANCH   1   8
BRANCH   4  15
ATOM     15  C   UNL     1       3.348   2.454  18.208  0.00  0.00    +0.000 C 
BRANCH  15  16
ATOM     16  C   UNL     1       2.640   2.719  19.483  0.00  0.00    +0.000 A 
ATOM     17  C   UNL     1       2.979   2.534  20.810  0.00  0.00    +0.000 A 
ATOM     18  C   UNL     1       1.918   3.078  21.574  0.00  0.00    +0.000 A 
ATOM     19  C   UNL     1       0.995   3.548  20.669  0.00  0.00    +0.000 A 
ATOM     20  O   UNL     1       1.419   3.328  19.398  0.00  0.00    +0.000 OA
ENDBRANCH  15  16
ENDBRANCH   4  15
TORSDOF 5
ENDMDL
MODEL 3
REMARK VINA RESULT:      -6.9      1.644      2.261
REMARK  Name = 
REMARK  6 active torsions:
REMARK  status: ('A' for Active; 'I' for Inactive)
REMARK    1  A    between atoms: C_1  and  C_2
REMARK    2  A    between atoms: C_2  and  C_3
REMARK    3  A    between atoms: C_2  and  N_9
REMARK    4  A    between atoms: C_3  and  C_4
REMARK    5  A    between atoms: N_12  and  C_13
REMARK    6  A    between atoms: C_13  and  C_14
REMARK                            x       y       z     vdW  Elec       q    Type
REMARK                         _______ _______ _______ _____ _____    ______ ____
ROOT
ATOM      1  N   UNL     1       5.603   4.045  17.088  0.00  0.00    +0.000 N 
ATOM      2  C   UNL     1       4.370   3.519  17.358  0.00  0.00    +0.000 C 
ATOM      3  O   UNL     1       3.323   3.972  16.914  0.00  0.00    +0.000 OA
ATOM      4  N   UNL     1       4.441   2.432  18.191  0.00  0.00    +0.000 N 
ATOM      5  H   UNL     1       6.353   3.796  17.717  0.00  0.00    +0.000 HD
ATOM      6  H   UNL     1       5.246   1.838  18.057  0.00  0.00    +0.000 HD
ENDROOT
BRANCH   1   8
ATOM      7  C   UNL     1       5.603   6.494  17.093  0.00  0.00    +0.000 C 
ATOM      8  C   UNL     1       5.754   5.234  16.241  0.00  0.00    +0.000 C 
BRANCH   8   9
ATOM      9  C   UNL     1       7.097   5.185  15.485  0.00  0.00    +0.000 C 
BRANCH   9  10
ATOM     10  C   UNL     1       6.969   4.673  14.094  0.00  0.00    +0.000 A 
ATOM     11  C   UNL     1       7.610   4.968  12.909  0.00  0.00    +0.000 A 
ATOM     12  C   UNL     1       7.030   4.130  11.923  0.00  0.00    +0.000 A 
ATOM     13  C   UNL     1       6.072   3.384  12.569  0.00  0.00    +0.000 A 
ATOM     14  O   UNL     1       6.024   3.711  13.886  0.00  0.00    +0.000 OA
ENDBRANCH   9  10
ENDBRANCH   8   9
ENDBRANCH   1   8
BRANCH   4  15
ATOM     15  C   UNL     1       3.207   1.750  18.506  0.00  0.00    +0.000 C 
BRANCH  15  16
ATOM     16  C   UNL     1       2.531   2.401  19.653  0.00  0.00    +0.000 A 
ATOM     17  C   UNL     1       2.883   2.593  20.975  0.00  0.00    +0.000 A 
ATOM     18  C   UNL     1       1.857   3.378  21.554  0.00  0.00    +0.000 A 
ATOM     19  C   UNL     1       0.938   3.604  20.556  0.00  0.00    +0.000 A 
ATOM     20  O   UNL     1       1.333   3.009  19.401  0.00  0.00    +0.000 OA
ENDBRANCH  15  16
ENDBRANCH   4  15
TORSDOF 5
ENDMDL
MODEL 4
REMARK VINA RESULT:      -6.7      1.576      2.038
REMARK  Name = 
REMARK  6 active torsions:
REMARK  status: ('A' for Active; 'I' for Inactive)
REMARK    1  A    between atoms: C_1  and  C_2
REMARK    2  A    between atoms: C_2  and  C_3
REMARK    3  A    between atoms: C_2  and  N_9
REMARK    4  A    between atoms: C_3  and  C_4
REMARK    5  A    between atoms: N_12  and  C_13
REMARK    6  A    between atoms: C_13  and  C_14
REMARK                            x       y       z     vdW  Elec       q    Type
REMARK                         _______ _______ _______ _____ _____    ______ ____
ROOT
ATOM      1  N   UNL     1       5.750   4.225  17.169  0.00  0.00    +0.000 N 
ATOM      2  C   UNL     1       4.509   3.674  17.334  0.00  0.00    +0.000 C 
ATOM      3  O   UNL     1       3.496   4.105  16.800  0.00  0.00    +0.000 OA
ATOM      4  N   UNL     1       4.531   2.591  18.174  0.00  0.00    +0.000 N 
ATOM      5  H   UNL     1       6.449   3.992  17.861  0.00  0.00    +0.000 HD
ATOM      6  H   UNL     1       5.356   2.013  18.112  0.00  0.00    +0.000 HD
ENDROOT
BRANCH   1   8
ATOM      7  C   UNL     1       5.966   6.664  17.214  0.00  0.00    +0.000 C 
ATOM      8  C   UNL     1       5.949   5.414  16.333  0.00  0.00    +0.000 C 
BRANCH   8   9
ATOM      9  C   UNL     1       7.231   5.267  15.488  0.00  0.00    +0.000 C 
BRANCH   9  10
ATOM     10  C   UNL     1       6.982   4.690  14.140  0.00  0.00    +0.000 A 
ATOM     11  C   UNL     1       6.204   3.647  13.680  0.00  0.00    +0.000 A 
ATOM     12  C   UNL     1       6.396   3.596  12.277  0.00  0.00    +0.000 A 
ATOM     13  C   UNL     1       7.279   4.606  11.973  0.00  0.00    +0.000 A 
ATOM     14  O   UNL     1       7.645   5.271  13.099  0.00  0.00    +0.000 OA
ENDBRANCH   9  10
ENDBRANCH   8   9
ENDBRANCH   1   8
BRANCH   4  15
ATOM     15  C   UNL     1       3.288   1.884  18.384  0.00  0.00    +0.000 C 
BRANCH  15  16
ATOM     16  C   UNL     1       2.571   2.432  19.561  0.00  0.00    +0.000 A 
ATOM     17  C   UNL     1       1.281   2.290  20.034  0.00  0.00    +0.000 A 
ATOM     18  C   UNL     1       1.226   2.986  21.265  0.00  0.00    +0.000 A 
ATOM     19  C   UNL     1       2.479   3.519  21.460  0.00  0.00    +0.000 A 
ATOM     20  O   UNL     1       3.300   3.196  20.428  0.00  0.00    +0.000 OA
ENDBRANCH  15  16
ENDBRANCH   4  15
TORSDOF 5
ENDMDL
MODEL 5
REMARK VINA RESULT:      -6.7      2.084      3.474
REMARK  Name = 
REMARK  6 active torsions:
REMARK  status: ('A' for Active; 'I' for Inactive)
REMARK    1  A    between atoms: C_1  and  C_2
REMARK    2  A    between atoms: C_2  and  C_3
REMARK    3  A    between atoms: C_2  and  N_9
REMARK    4  A    between atoms: C_3  and  C_4
REMARK    5  A    between atoms: N_12  and  C_13
REMARK    6  A    between atoms: C_13  and  C_14
REMARK                            x       y       z     vdW  Elec       q    Type
REMARK                         _______ _______ _______ _____ _____    ______ ____
ROOT
ATOM      1  N   UNL     1       4.822   4.733  16.890  0.00  0.00    +0.000 N 
ATOM      2  C   UNL     1       3.533   4.375  17.172  0.00  0.00    +0.000 C 
ATOM      3  O   UNL     1       2.967   3.414  16.668  0.00  0.00    +0.000 OA
ATOM      4  N   UNL     1       2.945   5.222  18.076  0.00  0.00    +0.000 N 
ATOM      5  H   UNL     1       5.093   5.680  17.118  0.00  0.00    +0.000 HD
ATOM      6  H   UNL     1       3.557   5.580  18.794  0.00  0.00    +0.000 HD
ENDROOT
BRANCH   1   8
ATOM      7  C   UNL     1       5.264   4.415  14.503  0.00  0.00    +0.000 C 
ATOM      8  C   UNL     1       5.627   3.979  15.922  0.00  0.00    +0.000 C 
BRANCH   8   9
ATOM      9  C   UNL     1       7.129   4.148  16.229  0.00  0.00    +0.000 C 
BRANCH   9  10
ATOM     10  C   UNL     1       7.402   5.162  17.282  0.00  0.00    +0.000 A 
ATOM     11  C   UNL     1       7.590   6.528  17.263  0.00  0.00    +0.000 A 
ATOM     12  C   UNL     1       7.814   6.919  18.607  0.00  0.00    +0.000 A 
ATOM     13  C   UNL     1       7.752   5.768  19.356  0.00  0.00    +0.000 A 
ATOM     14  O   UNL     1       7.509   4.695  18.561  0.00  0.00    +0.000 OA
ENDBRANCH   9  10
ENDBRANCH   8   9
ENDBRANCH   1   8
BRANCH   4  15
ATOM     15  C   UNL     1       1.598   4.916  18.500  0.00  0.00    +0.000 C 
BRANCH  15  16
ATOM     16  C   UNL     1       1.616   4.121  19.752  0.00  0.00    +0.000 A 
ATOM     17  C   UNL     1       1.006   2.942  20.133  0.00  0.00    +0.000 A 
ATOM     18  C   UNL     1       1.493   2.638  21.427  0.00  0.00    +0.000 A 
ATOM     19  C   UNL     1       2.358   3.655  21.759  0.00  0.00    +0.000 A 
ATOM     20  O   UNL     1       2.432   4.565  20.754  0.00  0.00    +0.000 OA
ENDBRANCH  15  16
ENDBRANCH   4  15
TORSDOF 5
ENDMDL
MODEL 6
REMARK VINA RESULT:      -6.6      1.584      2.031
REMARK  Name = 
REMARK  6 active torsions:
REMARK  status: ('A' for Active; 'I' for Inactive)
REMARK    1  A    between atoms: C_1  and  C_2
REMARK    2  A    between atoms: C_2  and  C_3
REMARK    3  A    between atoms: C_2  and  N_9
REMARK    4  A    between atoms: C_3  and  C_4
REMARK    5  A    between atoms: N_12  and  C_13
REMARK    6  A    between atoms: C_13  and  C_14
REMARK                            x       y       z     vdW  Elec       q    Type
REMARK                         _______ _______ _______ _____ _____    ______ ____
ROOT
ATOM      1  N   UNL     1       5.316   3.655  17.111  0.00  0.00    +0.000 N 
ATOM      2  C   UNL     1       4.016   3.687  17.535  0.00  0.00    +0.000 C 
ATOM      3  O   UNL     1       3.409   4.717  17.794  0.00  0.00    +0.000 OA
ATOM      4  N   UNL     1       3.476   2.431  17.645  0.00  0.00    +0.000 N 
ATOM      5  H   UNL     1       5.806   2.776  17.207  0.00  0.00    +0.000 HD
ATOM      6  H   UNL     1       3.784   1.766  16.951  0.00  0.00    +0.000 HD
ENDROOT
BRANCH   1   8
ATOM      7  C   UNL     1       7.588   4.559  16.991  0.00  0.00    +0.000 C 
ATOM      8  C   UNL     1       6.096   4.888  16.954  0.00  0.00    +0.000 C 
BRANCH   8   9
ATOM      9  C   UNL     1       5.682   5.623  15.663  0.00  0.00    +0.000 C 
BRANCH   9  10
ATOM     10  C   UNL     1       6.118   4.924  14.425  0.00  0.00    +0.000 A 
ATOM     11  C   UNL     1       5.613   3.864  13.701  0.00  0.00    +0.000 A 
ATOM     12  C   UNL     1       6.495   3.671  12.609  0.00  0.00    +0.000 A 
ATOM     13  C   UNL     1       7.481   4.620  12.739  0.00  0.00    +0.000 A 
ATOM     14  O   UNL     1       7.265   5.381  13.842  0.00  0.00    +0.000 OA
ENDBRANCH   9  10
ENDBRANCH   8   9
ENDBRANCH   1   8
BRANCH   4  15
ATOM     15  C   UNL     1       2.086   2.334  18.030  0.00  0.00    +0.000 C 
BRANCH  15  16
ATOM     16  C   UNL     1       1.924   2.637  19.472  0.00  0.00    +0.000 A 
ATOM     17  C   UNL     1       0.915   3.229  20.207  0.00  0.00    +0.000 A 
ATOM     18  C   UNL     1       1.306   3.144  21.565  0.00  0.00    +0.000 A 
ATOM     19  C   UNL     1       2.531   2.519  21.573  0.00  0.00    +0.000 A 
ATOM     20  O   UNL     1       2.919   2.215  20.308  0.00  0.00    +0.000 OA
ENDBRANCH  15  16
ENDBRANCH   4  15
TORSDOF 5
ENDMDL
MODEL 7
REMARK VINA RESULT:      -6.6      1.798      5.702
REMARK  Name = 
REMARK  6 active torsions:
REMARK  status: ('A' for Active; 'I' for Inactive)
REMARK    1  A    between atoms: C_1  and  C_2
REMARK    2  A    between atoms: C_2  and  C_3
REMARK    3  A    between atoms: C_2  and  N_9
REMARK    4  A    between atoms: C_3  and  C_4
REMARK    5  A    between atoms: N_12  and  C_13
REMARK    6  A    between atoms: C_13  and  C_14
REMARK                            x       y       z     vdW  Elec       q    Type
REMARK                         _______ _______ _______ _____ _____    ______ ____
ROOT
ATOM      1  N   UNL     1       2.846   6.133  18.945  0.00  0.00    +0.000 N 
ATOM      2  C   UNL     1       4.192   6.027  18.730  0.00  0.00    +0.000 C 
ATOM      3  O   UNL     1       4.980   5.571  19.549  0.00  0.00    +0.000 OA
ATOM      4  N   UNL     1       4.559   6.500  17.496  0.00  0.00    +0.000 N 
ATOM      5  H   UNL     1       2.338   6.775  18.351  0.00  0.00    +0.000 HD
ATOM      6  H   UNL     1       3.896   6.330  16.754  0.00  0.00    +0.000 HD
ENDROOT
BRANCH   1   8
ATOM      7  C   UNL     1       1.428   6.867  20.801  0.00  0.00    +0.000 C 
ATOM      8  C   UNL     1       2.243   5.714  20.215  0.00  0.00    +0.000 C 
BRANCH   8   9
ATOM      9  C   UNL     1       1.403   4.436  20.013  0.00  0.00    +0.000 C 
BRANCH   9  10
ATOM     10  C   UNL     1       2.123   3.375  19.259  0.00  0.00    +0.000 A 
ATOM     11  C   UNL     1       1.904   2.752  18.049  0.00  0.00    +0.000 A 
ATOM     12  C   UNL     1       2.955   1.816  17.886  0.00  0.00    +0.000 A 
ATOM     13  C   UNL     1       3.744   1.926  19.007  0.00  0.00    +0.000 A 
ATOM     14  O   UNL     1       3.243   2.865  19.849  0.00  0.00    +0.000 OA
ENDBRANCH   9  10
ENDBRANCH   8   9
ENDBRANCH   1   8
BRANCH   4  15
ATOM     15  C   UNL     1       5.952   6.389  17.125  0.00  0.00    +0.000 C 
BRANCH  15  16
ATOM     16  C   UNL     1       6.110   5.478  15.966  0.00  0.00    +0.000 A 
ATOM     17  C   UNL     1       5.289   4.530  15.389  0.00  0.00    +0.000 A 
ATOM     18  C   UNL     1       5.968   4.058  14.239  0.00  0.00    +0.000 A 
ATOM     19  C   UNL     1       7.163   4.737  14.195  0.00  0.00    +0.000 A 
ATOM     20  O   UNL     1       7.264   5.594  15.242  0.00  0.00    +0.000 OA
ENDBRANCH  15  16
ENDBRANCH   4  15
TORSDOF 5
ENDMDL
MODEL 8
REMARK VINA RESULT:      -6.6      2.055      6.107
REMARK  Name = 
REMARK  6 active torsions:
REMARK  status: ('A' for Active; 'I' for Inactive)
REMARK    1  A    between atoms: C_1  and  C_2
REMARK    2  A    between atoms: C_2  and  C_3
REMARK    3  A    between atoms: C_2  and  N_9
REMARK    4  A    between atoms: C_3  and  C_4
REMARK    5  A    between atoms: N_12  and  C_13
REMARK    6  A    between atoms: C_13  and  C_14
REMARK                            x       y       z     vdW  Elec       q    Type
REMARK                         _______ _______ _______ _____ _____    ______ ____
ROOT
ATOM      1  N   UNL     1       3.531   5.641  18.560  0.00  0.00    +0.000 N 
ATOM      2  C   UNL     1       4.818   5.698  18.102  0.00  0.00    +0.000 C 
ATOM      3  O   UNL     1       5.514   6.704  18.148  0.00  0.00    +0.000 OA
ATOM      4  N   UNL     1       5.234   4.503  17.575  0.00  0.00    +0.000 N 
ATOM      5  H   UNL     1       2.958   4.882  18.218  0.00  0.00    +0.000 HD
ATOM      6  H   UNL     1       4.881   3.679  18.040  0.00  0.00    +0.000 HD
ENDROOT
BRANCH   1   8
ATOM      7  C   UNL     1       2.236   7.648  18.020  0.00  0.00    +0.000 C 
ATOM      8  C   UNL     1       2.875   6.820  19.136  0.00  0.00    +0.000 C 
BRANCH   8   9
ATOM      9  C   UNL     1       1.859   6.395  20.216  0.00  0.00    +0.000 C 
BRANCH   9  10
ATOM     10  C   UNL     1       1.800   4.922  20.417  0.00  0.00    +0.000 A 
ATOM     11  C   UNL     1       0.841   3.964  20.163  0.00  0.00    +0.000 A 
ATOM     12  C   UNL     1       1.392   2.728  20.584  0.00  0.00    +0.000 A 
ATOM     13  C   UNL     1       2.646   3.012  21.069  0.00  0.00    +0.000 A 
ATOM     14  O   UNL     1       2.901   4.342  20.978  0.00  0.00    +0.000 OA
ENDBRANCH   9  10
ENDBRANCH   8   9
ENDBRANCH   1   8
BRANCH   4  15
ATOM     15  C   UNL     1       6.599   4.418  17.108  0.00  0.00    +0.000 C 
BRANCH  15  16
ATOM     16  C   UNL     1       6.639   4.359  15.627  0.00  0.00    +0.000 A 
ATOM     17  C   UNL     1       5.876   3.697  14.686  0.00  0.00    +0.000 A 
ATOM     18  C   UNL     1       6.345   4.120  13.419  0.00  0.00    +0.000 A 
ATOM     19  C   UNL     1       7.372   5.002  13.666  0.00  0.00    +0.000 A 
ATOM     20  O   UNL     1       7.564   5.147  15.002  0.00  0.00    +0.000 OA
ENDBRANCH  15  16
ENDBRANCH   4  15
TORSDOF 5
ENDMDL
MODEL 9
REMARK VINA RESULT:      -6.5      1.763      3.257
REMARK  Name = 
REMARK  6 active torsions:
REMARK  status: ('A' for Active; 'I' for Inactive)
REMARK    1  A    between atoms: C_1  and  C_2
REMARK    2  A    between atoms: C_2  and  C_3
REMARK    3  A    between atoms: C_2  and  N_9
REMARK    4  A    between atoms: C_3  and  C_4
REMARK    5  A    between atoms: N_12  and  C_13
REMARK    6  A    between atoms: C_13  and  C_14
REMARK                            x       y       z     vdW  Elec       q    Type
REMARK                         _______ _______ _______ _____ _____    ______ ____
ROOT
ATOM      1  N   UNL     1       5.701   3.383  16.586  0.00  0.00    +0.000 N 
ATOM      2  C   UNL     1       4.368   3.315  16.884  0.00  0.00    +0.000 C 
ATOM      3  O   UNL     1       3.525   4.069  16.416  0.00  0.00    +0.000 OA
ATOM      4  N   UNL     1       4.087   2.311  17.775  0.00  0.00    +0.000 N 
ATOM      5  H   UNL     1       6.336   2.929  17.229  0.00  0.00    +0.000 HD
ATOM      6  H   UNL     1       4.644   1.475  17.674  0.00  0.00    +0.000 HD
ENDROOT
BRANCH   1   8
ATOM      7  C   UNL     1       5.720   4.139  14.258  0.00  0.00    +0.000 C 
ATOM      8  C   UNL     1       6.226   4.407  15.675  0.00  0.00    +0.000 C 
BRANCH   8   9
ATOM      9  C   UNL     1       5.855   5.815  16.182  0.00  0.00    +0.000 C 
BRANCH   9  10
ATOM     10  C   UNL     1       6.796   6.335  17.210  0.00  0.00    +0.000 A 
ATOM     11  C   UNL     1       7.449   7.537  17.382  0.00  0.00    +0.000 A 
ATOM     12  C   UNL     1       8.213   7.410  18.569  0.00  0.00    +0.000 A 
ATOM     13  C   UNL     1       7.980   6.140  19.041  0.00  0.00    +0.000 A 
ATOM     14  O   UNL     1       7.126   5.477  18.220  0.00  0.00    +0.000 OA
ENDBRANCH   9  10
ENDBRANCH   8   9
ENDBRANCH   1   8
BRANCH   4  15
ATOM     15  C   UNL     1       2.701   2.099  18.126  0.00  0.00    +0.000 C 
BRANCH  15  16
ATOM     16  C   UNL     1       2.361   2.834  19.368  0.00  0.00    +0.000 A 
ATOM     17  C   UNL     1       2.990   2.970  20.590  0.00  0.00    +0.000 A 
ATOM     18  C   UNL     1       2.216   3.888  21.340  0.00  0.00    +0.000 A 
ATOM     19  C   UNL     1       1.159   4.245  20.535  0.00  0.00    +0.000 A 
ATOM     20  O   UNL     1       1.232   3.605  19.340  0.00  0.00    +0.000 OA
ENDBRANCH  15  16
ENDBRANCH   4  15
TORSDOF 5
ENDMDL
