MODEL 1
REMARK VINA RESULT:      -7.8      0.000      0.000
REMARK  Name = 
REMARK  4 active torsions:
REMARK  status: ('A' for Active; 'I' for Inactive)
REMARK    1  A    between atoms: C_5  and  O_6
REMARK    2  A    between atoms: C_13  and  O_14
REMARK    3  A    between atoms: N_17  and  C_18
REMARK    4  A    between atoms: C_18  and  C_19
REMARK                            x       y       z     vdW  Elec       q    Type
REMARK                         _______ _______ _______ _____ _____    ______ ____
ROOT
ATOM      1  O   UNL     1       1.910   8.130  22.047  0.00  0.00    +0.000 OA
ATOM      2  C   UNL     1       1.482   8.597  21.010  0.00  0.00    +0.000 C 
ATOM      3  C   UNL     1       0.485   9.667  20.890  0.00  0.00    +0.000 A 
ATOM      4  C   UNL     1       0.298   9.901  19.546  0.00  0.00    +0.000 A 
ATOM      5  C   UNL     1      -0.577  10.862  19.078  0.00  0.00    +0.000 A 
ATOM      6  C   UNL     1      -1.309  11.623  20.000  0.00  0.00    +0.000 A 
ATOM      7  N   UNL     1      -2.182  12.575  19.597  0.00  0.00    +0.000 NA
ATOM      8  C   UNL     1      -2.850  13.253  20.556  0.00  0.00    +0.000 A 
ATOM      9  C   UNL     1      -2.666  13.000  21.897  0.00  0.00    +0.000 A 
ATOM     10  N   UNL     1      -1.802  12.058  22.342  0.00  0.00    +0.000 NA
ATOM     11  C   UNL     1      -1.124  11.374  21.396  0.00  0.00    +0.000 A 
ATOM     12  C   UNL     1      -0.221  10.394  21.819  0.00  0.00    +0.000 A 
ATOM     13  C   UNL     1       1.152   8.984  18.806  0.00  0.00    +0.000 C 
ATOM     14  O   UNL     1       1.184   8.952  17.590  0.00  0.00    +0.000 OA
ATOM     15  N   UNL     1       1.827   8.245  19.731  0.00  0.00    +0.000 N 
ENDROOT
BRANCH   5  16
ATOM     16  O   UNL     1      -0.735  11.069  17.731  0.00  0.00    +0.000 OA
ATOM     17  H   UNL     1       0.024  10.687  17.244  0.00  0.00    +0.000 HD
ENDBRANCH   5  16
BRANCH  12  18
ATOM     18  O   UNL     1      -0.061  10.172  23.159  0.00  0.00    +0.000 OA
ATOM     19  H   UNL     1      -0.152   9.202  23.281  0.00  0.00    +0.000 HD
ENDBRANCH  12  18
BRANCH  15  20
ATOM     20  C   UNL     1       2.825   7.245  19.407  0.00  0.00    +0.000 C 
BRANCH  20  21
ATOM     21  C   UNL     1       2.192   5.881  19.235  0.00  0.00    +0.000 A 
ATOM     22  C   UNL     1       1.925   5.376  17.953  0.00  0.00    +0.000 A 
ATOM     23  C   UNL     1       1.438   4.077  17.793  0.00  0.00    +0.000 A 
ATOM     24  C   UNL     1       1.218   3.278  18.911  0.00  0.00    +0.000 A 
ATOM     25  F   UNL     1       0.785   2.022  18.730  0.00  0.00    +0.000 F 
ATOM     26  C   UNL     1       1.458   3.772  20.192  0.00  0.00    +0.000 A 
ATOM     27 CL   UNL     1       1.187   2.786  21.576  0.00  0.00    +0.000 Cl
ATOM     28  C   UNL     1       1.942   5.071  20.356  0.00  0.00    +0.000 A 
ENDBRANCH  20  21
ENDBRANCH  15  20
TORSDOF 4
ENDMDL
MODEL 2
REMARK VINA RESULT:      -7.7      0.153      2.460
REMARK  Name = 
REMARK  4 active torsions:
REMARK  status: ('A' for Active; 'I' for Inactive)
REMARK    1  A    between atoms: C_5  and  O_6
REMARK    2  A    between atoms: C_13  and  O_14
REMARK    3  A    between atoms: N_17  and  C_18
REMARK    4  A    between atoms: C_18  and  C_19
REMARK                            x       y       z     vdW  Elec       q    Type
REMARK                         _______ _______ _______ _____ _____    ______ ____
ROOT
ATOM      1  O   UNL     1       1.451   8.922  17.524  0.00  0.00    +0.000 OA
ATOM      2  C   UNL     1       1.283   8.971  18.727  0.00  0.00    +0.000 C 
ATOM      3  C   UNL     1       0.348   9.854  19.433  0.00  0.00    +0.000 A 
ATOM      4  C   UNL     1       0.463   9.577  20.778  0.00  0.00    +0.000 A 
ATOM      5  C   UNL     1      -0.291  10.230  21.733  0.00  0.00    +0.000 A 
ATOM      6  C   UNL     1      -1.201  11.216  21.327  0.00  0.00    +0.000 A 
ATOM      7  N   UNL     1      -1.962  11.889  22.221  0.00  0.00    +0.000 NA
ATOM      8  C   UNL     1      -2.805  12.828  21.739  0.00  0.00    +0.000 A 
ATOM      9  C   UNL     1      -2.900  13.107  20.393  0.00  0.00    +0.000 A 
ATOM     10  N   UNL     1      -2.159  12.456  19.467  0.00  0.00    +0.000 NA
ATOM     11  C   UNL     1      -1.314  11.512  19.932  0.00  0.00    +0.000 A 
ATOM     12  C   UNL     1      -0.533  10.818  19.004  0.00  0.00    +0.000 A 
ATOM     13  C   UNL     1       1.470   8.539  20.939  0.00  0.00    +0.000 C 
ATOM     14  O   UNL     1       1.795   8.103  22.027  0.00  0.00    +0.000 OA
ATOM     15  N   UNL     1       1.911   8.224  19.689  0.00  0.00    +0.000 N 
ENDROOT
BRANCH   5  16
ATOM     16  O   UNL     1      -0.151   9.925  23.063  0.00  0.00    +0.000 OA
ATOM     17  H   UNL     1       0.759   9.610  23.240  0.00  0.00    +0.000 HD
ENDBRANCH   5  16
BRANCH  12  18
ATOM     18  O   UNL     1      -0.656  11.118  17.674  0.00  0.00    +0.000 OA
ATOM     19  H   UNL     1      -0.451  12.075  17.597  0.00  0.00    +0.000 HD
ENDBRANCH  12  18
BRANCH  15  20
ATOM     20  C   UNL     1       2.887   7.192  19.404  0.00  0.00    +0.000 C 
BRANCH  20  21
ATOM     21  C   UNL     1       2.220   5.844  19.236  0.00  0.00    +0.000 A 
ATOM     22  C   UNL     1       1.922   5.351  17.955  0.00  0.00    +0.000 A 
ATOM     23  C   UNL     1       1.402   4.064  17.796  0.00  0.00    +0.000 A 
ATOM     24  C   UNL     1       1.179   3.266  18.914  0.00  0.00    +0.000 A 
ATOM     25  F   UNL     1       0.714   2.022  18.734  0.00  0.00    +0.000 F 
ATOM     26  C   UNL     1       1.449   3.748  20.194  0.00  0.00    +0.000 A 
ATOM     27 CL   UNL     1       1.174   2.763  21.578  0.00  0.00    +0.000 Cl
ATOM     28  C   UNL     1       1.967   5.034  20.356  0.00  0.00    +0.000 A 
ENDBRANCH  20  21
ENDBRANCH  15  20
TORSDOF 4
ENDMDL
MODEL 3
REMARK VINA RESULT:      -7.6      3.275      4.416
REMARK  Name = 
REMARK  4 active torsions:
REMARK  status: ('A' for Active; 'I' for Inactive)
REMARK    1  A    between atoms: C_5  and  O_6
REMARK    2  A    between atoms: C_13  and  O_14
REMARK    3  A    between atoms: N_17  and  C_18
REMARK    4  A    between atoms: C_18  and  C_19
REMARK                            x       y       z     vdW  Elec       q    Type
REMARK                         _______ _______ _______ _____ _____    ______ ____
ROOT
ATOM      1  O   UNL     1       2.858   8.114  16.838  0.00  0.00    +0.000 OA
ATOM      2  C   UNL     1       2.421   8.006  17.966  0.00  0.00    +0.000 C 
ATOM      3  C   UNL     1       1.905   9.097  18.802  0.00  0.00    +0.000 A 
ATOM      4  C   UNL     1       1.499   8.540  19.995  0.00  0.00    +0.000 A 
ATOM      5  C   UNL     1       0.951   9.295  21.013  0.00  0.00    +0.000 A 
ATOM      6  C   UNL     1       0.807  10.677  20.835  0.00  0.00    +0.000 A 
ATOM      7  N   UNL     1       0.278  11.464  21.800  0.00  0.00    +0.000 NA
ATOM      8  C   UNL     1       0.186  12.787  21.544  0.00  0.00    +0.000 A 
ATOM      9  C   UNL     1       0.609  13.335  20.353  0.00  0.00    +0.000 A 
ATOM     10  N   UNL     1       1.141  12.584  19.362  0.00  0.00    +0.000 NA
ATOM     11  C   UNL     1       1.237  11.258  19.601  0.00  0.00    +0.000 A 
ATOM     12  C   UNL     1       1.780  10.451  18.598  0.00  0.00    +0.000 A 
ATOM     13  C   UNL     1       1.764   7.110  19.937  0.00  0.00    +0.000 C 
ATOM     14  O   UNL     1       1.520   6.359  20.862  0.00  0.00    +0.000 OA
ATOM     15  N   UNL     1       2.305   6.861  18.711  0.00  0.00    +0.000 N 
ENDROOT
BRANCH   5  16
ATOM     16  O   UNL     1       0.555   8.704  22.186  0.00  0.00    +0.000 OA
ATOM     17  H   UNL     1       0.788   7.753  22.176  0.00  0.00    +0.000 HD
ENDBRANCH   5  16
BRANCH  12  18
ATOM     18  O   UNL     1       2.187  11.028  17.426  0.00  0.00    +0.000 OA
ATOM     19  H   UNL     1       1.440  10.913  16.800  0.00  0.00    +0.000 HD
ENDBRANCH  12  18
BRANCH  15  20
ATOM     20  C   UNL     1       2.665   5.542  18.231  0.00  0.00    +0.000 C 
BRANCH  20  21
ATOM     21  C   UNL     1       4.168   5.387  18.146  0.00  0.00    +0.000 A 
ATOM     22  C   UNL     1       4.957   5.430  19.307  0.00  0.00    +0.000 A 
ATOM     23  C   UNL     1       6.329   5.183  19.239  0.00  0.00    +0.000 A 
ATOM     24  C   UNL     1       6.919   4.891  18.013  0.00  0.00    +0.000 A 
ATOM     25  F   UNL     1       8.232   4.621  17.978  0.00  0.00    +0.000 F 
ATOM     26  C   UNL     1       6.155   4.864  16.848  0.00  0.00    +0.000 A 
ATOM     27 CL   UNL     1       6.882   4.503  15.331  0.00  0.00    +0.000 Cl
ATOM     28  C   UNL     1       4.783   5.113  16.912  0.00  0.00    +0.000 A 
ENDBRANCH  20  21
ENDBRANCH  15  20
TORSDOF 4
ENDMDL
MODEL 4
REMARK VINA RESULT:      -7.5      3.286      3.813
REMARK  Name = 
REMARK  4 active torsions:
REMARK  status: ('A' for Active; 'I' for Inactive)
REMARK    1  A    between atoms: C_5  and  O_6
REMARK    2  A    between atoms: C_13  and  O_14
REMARK    3  A    between atoms: N_17  and  C_18
REMARK    4  A    between atoms: C_18  and  C_19
REMARK                            x       y       z     vdW  Elec       q    Type
REMARK                         _______ _______ _______ _____ _____    ______ ____
ROOT
ATOM      1  O   UNL     1       1.524   6.145  20.833  0.00  0.00    +0.000 OA
ATOM      2  C   UNL     1       1.735   6.958  19.955  0.00  0.00    +0.000 C 
ATOM      3  C   UNL     1       1.483   8.402  20.036  0.00  0.00    +0.000 A 
ATOM      4  C   UNL     1       1.875   8.952  18.835  0.00  0.00    +0.000 A 
ATOM      5  C   UNL     1       1.780  10.305  18.577  0.00  0.00    +0.000 A 
ATOM      6  C   UNL     1       1.260  11.153  19.565  0.00  0.00    +0.000 A 
ATOM      7  N   UNL     1       1.142  12.486  19.364  0.00  0.00    +0.000 NA
ATOM      8  C   UNL     1       0.622  13.223  20.369  0.00  0.00    +0.000 A 
ATOM      9  C   UNL     1       0.220  12.660  21.560  0.00  0.00    +0.000 A 
ATOM     10  N   UNL     1       0.322  11.333  21.802  0.00  0.00    +0.000 NA
ATOM     11  C   UNL     1       0.843  10.582  20.808  0.00  0.00    +0.000 A 
ATOM     12  C   UNL     1       0.965   9.207  21.023  0.00  0.00    +0.000 A 
ATOM     13  C   UNL     1       2.360   7.875  17.984  0.00  0.00    +0.000 C 
ATOM     14  O   UNL     1       2.759   8.064  16.851  0.00  0.00    +0.000 OA
ATOM     15  N   UNL     1       2.253   6.726  18.709  0.00  0.00    +0.000 N 
ENDROOT
BRANCH   5  16
ATOM     16  O   UNL     1       2.183  10.817  17.370  0.00  0.00    +0.000 OA
ATOM     17  H   UNL     1       1.404  10.988  16.801  0.00  0.00    +0.000 HD
ENDBRANCH   5  16
BRANCH  12  18
ATOM     18  O   UNL     1       0.559   8.682  22.220  0.00  0.00    +0.000 OA
ATOM     19  H   UNL     1       0.310   7.751  22.031  0.00  0.00    +0.000 HD
ENDBRANCH  12  18
BRANCH  15  20
ATOM     20  C   UNL     1       2.682   5.424  18.239  0.00  0.00    +0.000 C 
BRANCH  20  21
ATOM     21  C   UNL     1       4.191   5.343  18.162  0.00  0.00    +0.000 A 
ATOM     22  C   UNL     1       4.971   5.441  19.326  0.00  0.00    +0.000 A 
ATOM     23  C   UNL     1       6.355   5.262  19.266  0.00  0.00    +0.000 A 
ATOM     24  C   UNL     1       6.964   4.985  18.046  0.00  0.00    +0.000 A 
ATOM     25  F   UNL     1       8.289   4.781  18.020  0.00  0.00    +0.000 F 
ATOM     26  C   UNL     1       6.208   4.905  16.878  0.00  0.00    +0.000 A 
ATOM     27 CL   UNL     1       6.958   4.561  15.368  0.00  0.00    +0.000 Cl
ATOM     28  C   UNL     1       4.824   5.085  16.934  0.00  0.00    +0.000 A 
ENDBRANCH  20  21
ENDBRANCH  15  20
TORSDOF 4
ENDMDL
MODEL 5
REMARK VINA RESULT:      -7.4      3.571      7.608
REMARK  Name = 
REMARK  4 active torsions:
REMARK  status: ('A' for Active; 'I' for Inactive)
REMARK    1  A    between atoms: C_5  and  O_6
REMARK    2  A    between atoms: C_13  and  O_14
REMARK    3  A    between atoms: N_17  and  C_18
REMARK    4  A    between atoms: C_18  and  C_19
REMARK                            x       y       z     vdW  Elec       q    Type
REMARK                         _______ _______ _______ _____ _____    ______ ____
ROOT
ATOM      1  O   UNL     1       2.334  10.113  17.382  0.00  0.00    +0.000 OA
ATOM      2  C   UNL     1       2.097   9.340  18.289  0.00  0.00    +0.000 C 
ATOM      3  C   UNL     1       2.566   7.952  18.387  0.00  0.00    +0.000 A 
ATOM      4  C   UNL     1       2.085   7.442  19.573  0.00  0.00    +0.000 A 
ATOM      5  C   UNL     1       2.351   6.150  19.982  0.00  0.00    +0.000 A 
ATOM      6  C   UNL     1       3.131   5.322  19.163  0.00  0.00    +0.000 A 
ATOM      7  N   UNL     1       3.419   4.048  19.515  0.00  0.00    +0.000 NA
ATOM      8  C   UNL     1       4.170   3.321  18.659  0.00  0.00    +0.000 A 
ATOM      9  C   UNL     1       4.633   3.837  17.469  0.00  0.00    +0.000 A 
ATOM     10  N   UNL     1       4.369   5.106  17.081  0.00  0.00    +0.000 NA
ATOM     11  C   UNL     1       3.622   5.847  17.927  0.00  0.00    +0.000 A 
ATOM     12  C   UNL     1       3.331   7.164  17.560  0.00  0.00    +0.000 A 
ATOM     13  C   UNL     1       1.303   8.482  20.225  0.00  0.00    +0.000 C 
ATOM     14  O   UNL     1       0.740   8.309  21.290  0.00  0.00    +0.000 OA
ATOM     15  N   UNL     1       1.355   9.577  19.416  0.00  0.00    +0.000 N 
ENDROOT
BRANCH   5  16
ATOM     16  O   UNL     1       1.857   5.678  21.172  0.00  0.00    +0.000 OA
ATOM     17  H   UNL     1       2.595   5.468  21.780  0.00  0.00    +0.000 HD
ENDBRANCH   5  16
BRANCH  12  18
ATOM     18  O   UNL     1       3.810   7.645  16.372  0.00  0.00    +0.000 OA
ATOM     19  H   UNL     1       3.021   7.802  15.811  0.00  0.00    +0.000 HD
ENDBRANCH  12  18
BRANCH  15  20
ATOM     20  C   UNL     1       0.743  10.852  19.730  0.00  0.00    +0.000 C 
BRANCH  20  21
ATOM     21  C   UNL     1      -0.660  10.935  19.170  0.00  0.00    +0.000 A 
ATOM     22  C   UNL     1      -1.619  11.768  19.770  0.00  0.00    +0.000 A 
ATOM     23  C   UNL     1      -2.881  11.922  19.192  0.00  0.00    +0.000 A 
ATOM     24  C   UNL     1      -3.190  11.248  18.015  0.00  0.00    +0.000 A 
ATOM     25  F   UNL     1      -4.395  11.442  17.459  0.00  0.00    +0.000 F 
ATOM     26  C   UNL     1      -2.258  10.402  17.418  0.00  0.00    +0.000 A 
ATOM     27 CL   UNL     1      -2.637   9.568  15.961  0.00  0.00    +0.000 Cl
ATOM     28  C   UNL     1      -0.996  10.243  17.994  0.00  0.00    +0.000 A 
ENDBRANCH  20  21
ENDBRANCH  15  20
TORSDOF 4
ENDMDL
MODEL 6
REMARK VINA RESULT:      -7.3      3.753      7.593
REMARK  Name = 
REMARK  4 active torsions:
REMARK  status: ('A' for Active; 'I' for Inactive)
REMARK    1  A    between atoms: C_5  and  O_6
REMARK    2  A    between atoms: C_13  and  O_14
REMARK    3  A    between atoms: N_17  and  C_18
REMARK    4  A    between atoms: C_18  and  C_19
REMARK                            x       y       z     vdW  Elec       q    Type
REMARK                         _______ _______ _______ _____ _____    ______ ____
ROOT
ATOM      1  O   UNL     1       2.253  10.091  17.263  0.00  0.00    +0.000 OA
ATOM      2  C   UNL     1       2.030   9.345  18.195  0.00  0.00    +0.000 C 
ATOM      3  C   UNL     1       2.569   7.990  18.366  0.00  0.00    +0.000 A 
ATOM      4  C   UNL     1       2.081   7.504  19.559  0.00  0.00    +0.000 A 
ATOM      5  C   UNL     1       2.403   6.246  20.031  0.00  0.00    +0.000 A 
ATOM      6  C   UNL     1       3.250   5.429  19.270  0.00  0.00    +0.000 A 
ATOM      7  N   UNL     1       3.595   4.188  19.684  0.00  0.00    +0.000 NA
ATOM      8  C   UNL     1       4.409   3.468  18.881  0.00  0.00    +0.000 A 
ATOM      9  C   UNL     1       4.880   3.959  17.683  0.00  0.00    +0.000 A 
ATOM     10  N   UNL     1       4.560   5.194  17.234  0.00  0.00    +0.000 NA
ATOM     11  C   UNL     1       3.749   5.928  18.026  0.00  0.00    +0.000 A 
ATOM     12  C   UNL     1       3.399   7.210  17.595  0.00  0.00    +0.000 A 
ATOM     13  C   UNL     1       1.225   8.525  20.144  0.00  0.00    +0.000 C 
ATOM     14  O   UNL     1       0.640   8.367  21.199  0.00  0.00    +0.000 OA
ATOM     15  N   UNL     1       1.243   9.587  19.290  0.00  0.00    +0.000 N 
ENDROOT
BRANCH   5  16
ATOM     16  O   UNL     1       1.899   5.798  21.225  0.00  0.00    +0.000 OA
ATOM     17  H   UNL     1       1.041   6.231  21.410  0.00  0.00    +0.000 HD
ENDBRANCH   5  16
BRANCH  12  18
ATOM     18  O   UNL     1       3.888   7.668  16.401  0.00  0.00    +0.000 OA
ATOM     19  H   UNL     1       3.647   6.987  15.737  0.00  0.00    +0.000 HD
ENDBRANCH  12  18
BRANCH  15  20
ATOM     20  C   UNL     1       0.555  10.839  19.531  0.00  0.00    +0.000 C 
BRANCH  20  21
ATOM     21  C   UNL     1      -0.809  10.846  18.876  0.00  0.00    +0.000 A 
ATOM     22  C   UNL     1      -1.087   9.989  17.799  0.00  0.00    +0.000 A 
ATOM     23  C   UNL     1      -2.376   9.922  17.264  0.00  0.00    +0.000 A 
ATOM     24  C   UNL     1      -3.389  10.709  17.801  0.00  0.00    +0.000 A 
ATOM     25  F   UNL     1      -4.626  10.600  17.295  0.00  0.00    +0.000 F 
ATOM     26  C   UNL     1      -3.125  11.581  18.856  0.00  0.00    +0.000 A 
ATOM     27 CL   UNL     1      -4.377  12.556  19.523  0.00  0.00    +0.000 Cl
ATOM     28  C   UNL     1      -1.838  11.653  19.392  0.00  0.00    +0.000 A 
ENDBRANCH  20  21
ENDBRANCH  15  20
TORSDOF 4
ENDMDL
MODEL 7
REMARK VINA RESULT:      -7.3      3.720      7.216
REMARK  Name = 
REMARK  4 active torsions:
REMARK  status: ('A' for Active; 'I' for Inactive)
REMARK    1  A    between atoms: C_5  and  O_6
REMARK    2  A    between atoms: C_13  and  O_14
REMARK    3  A    between atoms: N_17  and  C_18
REMARK    4  A    between atoms: C_18  and  C_19
REMARK                            x       y       z     vdW  Elec       q    Type
REMARK                         _______ _______ _______ _____ _____    ______ ____
ROOT
ATOM      1  O   UNL     1       0.657   8.419  21.302  0.00  0.00    +0.000 OA
ATOM      2  C   UNL     1       1.253   8.496  20.247  0.00  0.00    +0.000 C 
ATOM      3  C   UNL     1       2.064   7.437  19.633  0.00  0.00    +0.000 A 
ATOM      4  C   UNL     1       2.546   7.932  18.441  0.00  0.00    +0.000 A 
ATOM      5  C   UNL     1       3.347   7.184  17.601  0.00  0.00    +0.000 A 
ATOM      6  C   UNL     1       3.689   5.876  17.972  0.00  0.00    +0.000 A 
ATOM      7  N   UNL     1       4.471   5.099  17.187  0.00  0.00    +0.000 NA
ATOM      8  C   UNL     1       4.757   3.855  17.629  0.00  0.00    +0.000 A 
ATOM      9  C   UNL     1       4.281   3.377  18.830  0.00  0.00    +0.000 A 
ATOM     10  N   UNL     1       3.494   4.119  19.642  0.00  0.00    +0.000 NA
ATOM     11  C   UNL     1       3.197   5.364  19.213  0.00  0.00    +0.000 A 
ATOM     12  C   UNL     1       2.385   6.160  20.026  0.00  0.00    +0.000 A 
ATOM     13  C   UNL     1       2.066   9.299  18.294  0.00  0.00    +0.000 C 
ATOM     14  O   UNL     1       2.349   9.995  17.338  0.00  0.00    +0.000 OA
ATOM     15  N   UNL     1       1.305   9.566  19.393  0.00  0.00    +0.000 N 
ENDROOT
BRANCH   5  16
ATOM     16  O   UNL     1       3.805   7.710  16.420  0.00  0.00    +0.000 OA
ATOM     17  H   UNL     1       4.037   6.988  15.800  0.00  0.00    +0.000 HD
ENDBRANCH   5  16
BRANCH  12  18
ATOM     18  O   UNL     1       1.927   5.650  21.211  0.00  0.00    +0.000 OA
ATOM     19  H   UNL     1       2.713   5.587  21.795  0.00  0.00    +0.000 HD
ENDBRANCH  12  18
BRANCH  15  20
ATOM     20  C   UNL     1       0.596  10.811  19.610  0.00  0.00    +0.000 C 
BRANCH  20  21
ATOM     21  C   UNL     1      -0.741  10.806  18.902  0.00  0.00    +0.000 A 
ATOM     22  C   UNL     1      -0.963   9.961  17.802  0.00  0.00    +0.000 A 
ATOM     23  C   UNL     1      -2.228   9.882  17.216  0.00  0.00    +0.000 A 
ATOM     24  C   UNL     1      -3.274  10.645  17.724  0.00  0.00    +0.000 A 
ATOM     25  F   UNL     1      -4.488  10.524  17.167  0.00  0.00    +0.000 F 
ATOM     26  C   UNL     1      -3.066  11.504  18.801  0.00  0.00    +0.000 A 
ATOM     27 CL   UNL     1      -4.359  12.449  19.431  0.00  0.00    +0.000 Cl
ATOM     28  C   UNL     1      -1.803  11.588  19.388  0.00  0.00    +0.000 A 
ENDBRANCH  20  21
ENDBRANCH  15  20
TORSDOF 4
ENDMDL
MODEL 8
REMARK VINA RESULT:      -7.3      3.546      7.198
REMARK  Name = 
REMARK  4 active torsions:
REMARK  status: ('A' for Active; 'I' for Inactive)
REMARK    1  A    between atoms: C_5  and  O_6
REMARK    2  A    between atoms: C_13  and  O_14
REMARK    3  A    between atoms: N_17  and  C_18
REMARK    4  A    between atoms: C_18  and  C_19
REMARK                            x       y       z     vdW  Elec       q    Type
REMARK                         _______ _______ _______ _____ _____    ______ ____
ROOT
ATOM      1  O   UNL     1       0.667   8.526  21.383  0.00  0.00    +0.000 OA
ATOM      2  C   UNL     1       1.242   8.595  20.315  0.00  0.00    +0.000 C 
ATOM      3  C   UNL     1       1.991   7.512  19.666  0.00  0.00    +0.000 A 
ATOM      4  C   UNL     1       2.467   8.006  18.471  0.00  0.00    +0.000 A 
ATOM      5  C   UNL     1       3.215   7.237  17.600  0.00  0.00    +0.000 A 
ATOM      6  C   UNL     1       3.508   5.910  17.943  0.00  0.00    +0.000 A 
ATOM      7  N   UNL     1       4.238   5.114  17.128  0.00  0.00    +0.000 NA
ATOM      8  C   UNL     1       4.479   3.851  17.544  0.00  0.00    +0.000 A 
ATOM      9  C   UNL     1       4.011   3.374  18.748  0.00  0.00    +0.000 A 
ATOM     10  N   UNL     1       3.276   4.136  19.590  0.00  0.00    +0.000 NA
ATOM     11  C   UNL     1       3.023   5.400  19.188  0.00  0.00    +0.000 A 
ATOM     12  C   UNL     1       2.266   6.216  20.032  0.00  0.00    +0.000 A 
ATOM     13  C   UNL     1       2.043   9.393  18.356  0.00  0.00    +0.000 C 
ATOM     14  O   UNL     1       2.334  10.092  17.404  0.00  0.00    +0.000 OA
ATOM     15  N   UNL     1       1.321   9.675  19.477  0.00  0.00    +0.000 N 
ENDROOT
BRANCH   5  16
ATOM     16  O   UNL     1       3.668   7.762  16.417  0.00  0.00    +0.000 OA
ATOM     17  H   UNL     1       3.557   8.735  16.419  0.00  0.00    +0.000 HD
ENDBRANCH   5  16
BRANCH  12  18
ATOM     18  O   UNL     1       1.813   5.707  21.219  0.00  0.00    +0.000 OA
ATOM     19  H   UNL     1       0.960   6.159  21.393  0.00  0.00    +0.000 HD
ENDBRANCH  12  18
BRANCH  15  20
ATOM     20  C   UNL     1       0.671  10.946  19.730  0.00  0.00    +0.000 C 
BRANCH  20  21
ATOM     21  C   UNL     1      -0.726  10.968  19.150  0.00  0.00    +0.000 A 
ATOM     22  C   UNL     1      -1.730  11.755  19.738  0.00  0.00    +0.000 A 
ATOM     23  C   UNL     1      -2.989  11.855  19.141  0.00  0.00    +0.000 A 
ATOM     24  C   UNL     1      -3.249  11.172  17.958  0.00  0.00    +0.000 A 
ATOM     25  F   UNL     1      -4.453  11.313  17.384  0.00  0.00    +0.000 F 
ATOM     26  C   UNL     1      -2.272  10.370  17.372  0.00  0.00    +0.000 A 
ATOM     27 CL   UNL     1      -2.591   9.525  15.908  0.00  0.00    +0.000 Cl
ATOM     28  C   UNL     1      -1.013  10.265  17.967  0.00  0.00    +0.000 A 
ENDBRANCH  20  21
ENDBRANCH  15  20
TORSDOF 4
ENDMDL
MODEL 9
REMARK VINA RESULT:      -7.2      3.130      4.231
REMARK  Name = 
REMARK  4 active torsions:
REMARK  status: ('A' for Active; 'I' for Inactive)
REMARK    1  A    between atoms: C_5  and  O_6
REMARK    2  A    between atoms: C_13  and  O_14
REMARK    3  A    between atoms: N_17  and  C_18
REMARK    4  A    between atoms: C_18  and  C_19
REMARK                            x       y       z     vdW  Elec       q    Type
REMARK                         _______ _______ _______ _____ _____    ______ ____
ROOT
ATOM      1  O   UNL     1       2.239   9.184  17.039  0.00  0.00    +0.000 OA
ATOM      2  C   UNL     1       1.936   8.866  18.172  0.00  0.00    +0.000 C 
ATOM      3  C   UNL     1       1.355   9.749  19.191  0.00  0.00    +0.000 A 
ATOM      4  C   UNL     1       1.153   8.989  20.322  0.00  0.00    +0.000 A 
ATOM      5  C   UNL     1       0.606   9.515  21.476  0.00  0.00    +0.000 A 
ATOM      6  C   UNL     1       0.249  10.870  21.506  0.00  0.00    +0.000 A 
ATOM      7  N   UNL     1      -0.289  11.436  22.611  0.00  0.00    +0.000 NA
ATOM      8  C   UNL     1      -0.594  12.751  22.551  0.00  0.00    +0.000 A 
ATOM      9  C   UNL     1      -0.373  13.504  21.419  0.00  0.00    +0.000 A 
ATOM     10  N   UNL     1       0.159  12.976  20.293  0.00  0.00    +0.000 NA
ATOM     11  C   UNL     1       0.467  11.662  20.335  0.00  0.00    +0.000 A 
ATOM     12  C   UNL     1       1.018  11.083  19.190  0.00  0.00    +0.000 A 
ATOM     13  C   UNL     1       1.612   7.637  20.043  0.00  0.00    +0.000 C 
ATOM     14  O   UNL     1       1.571   6.746  20.870  0.00  0.00    +0.000 OA
ATOM     15  N   UNL     1       2.058   7.633  18.755  0.00  0.00    +0.000 N 
ENDROOT
BRANCH   5  16
ATOM     16  O   UNL     1       0.417   8.726  22.582  0.00  0.00    +0.000 OA
ATOM     17  H   UNL     1      -0.398   8.999  23.052  0.00  0.00    +0.000 HD
ENDBRANCH   5  16
BRANCH  12  18
ATOM     18  O   UNL     1       1.220  11.860  18.082  0.00  0.00    +0.000 OA
ATOM     19  H   UNL     1       1.155  11.251  17.315  0.00  0.00    +0.000 HD
ENDBRANCH  12  18
BRANCH  15  20
ATOM     20  C   UNL     1       2.555   6.458  18.068  0.00  0.00    +0.000 C 
BRANCH  20  21
ATOM     21  C   UNL     1       4.020   6.229  18.368  0.00  0.00    +0.000 A 
ATOM     22  C   UNL     1       4.415   5.233  19.276  0.00  0.00    +0.000 A 
ATOM     23  C   UNL     1       5.769   4.954  19.474  0.00  0.00    +0.000 A 
ATOM     24  C   UNL     1       6.732   5.668  18.766  0.00  0.00    +0.000 A 
ATOM     25  F   UNL     1       8.024   5.357  18.946  0.00  0.00    +0.000 F 
ATOM     26  C   UNL     1       6.358   6.674  17.878  0.00  0.00    +0.000 A 
ATOM     27 CL   UNL     1       7.547   7.557  17.002  0.00  0.00    +0.000 Cl
ATOM     28  C   UNL     1       5.006   6.957  17.680  0.00  0.00    +0.000 A 
ENDBRANCH  20  21
ENDBRANCH  15  20
TORSDOF 4
ENDMDL
