MODEL 1
REMARK VINA RESULT:      -7.6      0.000      0.000
REMARK  Name = 
REMARK  8 active torsions:
REMARK  status: ('A' for Active; 'I' for Inactive)
REMARK    1  A    between atoms: C_1  and  C_2
REMARK    2  A    between atoms: C_9  and  C_10
REMARK    3  A    between atoms: N_12  and  C_13
REMARK    4  A    between atoms: C_13  and  C_14
REMARK    5  A    between atoms: C_20  and  C_21
REMARK    6  A    between atoms: C_21  and  C_22
REMARK    7  A    between atoms: C_21  and  C_23
REMARK    8  A    between atoms: C_25  and  C_26
REMARK                            x       y       z     vdW  Elec       q    Type
REMARK                         _______ _______ _______ _____ _____    ______ ____
ROOT
ATOM      1  C   UNL     1       3.293   4.614  19.988  0.00  0.00    +0.000 C 
ATOM      2  C   UNL     1       2.924   5.958  19.448  0.00  0.00    +0.000 A 
ATOM      3  C   UNL     1       1.937   6.670  20.088  0.00  0.00    +0.000 A 
ATOM      4  N   UNL     1       1.550   7.904  19.740  0.00  0.00    +0.000 NA
ATOM      5  C   UNL     1       2.182   8.498  18.727  0.00  0.00    +0.000 A 
ATOM      6  N   UNL     1       1.877   9.892  18.457  0.00  0.00    +0.000 N 
ATOM      7  N   UNL     1       2.789  10.638  17.753  0.00  0.00    +0.000 NA
ATOM      8  C   UNL     1       2.330  11.882  17.784  0.00  0.00    +0.000 A 
ATOM      9  C   UNL     1       1.089  11.996  18.428  0.00  0.00    +0.000 A 
ATOM     10  C   UNL     1       0.787  10.695  18.860  0.00  0.00    +0.000 A 
ATOM     11  N   UNL     1       3.146   7.873  18.015  0.00  0.00    +0.000 NA
ATOM     12  C   UNL     1       3.484   6.593  18.344  0.00  0.00    +0.000 A 
ENDROOT
BRANCH  12  13
ATOM     13  C   UNL     1       4.493   5.986  17.436  0.00  0.00    +0.000 A 
ATOM     14  C   UNL     1       5.758   6.588  17.268  0.00  0.00    +0.000 A 
ATOM     15  C   UNL     1       6.726   6.039  16.419  0.00  0.00    +0.000 A 
ATOM     16  C   UNL     1       6.447   4.869  15.729  0.00  0.00    +0.000 A 
ATOM     17  F   UNL     1       7.375   4.333  14.926  0.00  0.00    +0.000 F 
ATOM     18  C   UNL     1       5.210   4.258  15.847  0.00  0.00    +0.000 A 
ATOM     19  C   UNL     1       4.237   4.828  16.673  0.00  0.00    +0.000 A 
ENDBRANCH  12  13
BRANCH   9  20
ATOM     20  C   UNL     1       0.234  13.178  18.553  0.00  0.00    +0.000 C 
ATOM     21  O   UNL     1      -0.850  13.265  17.984  0.00  0.00    +0.000 OA
ATOM     22  N   UNL     1       0.719  14.185  19.352  0.00  0.00    +0.000 N 
ATOM     23  H   UNL     1       1.563  14.044  19.886  0.00  0.00    +0.000 HD
BRANCH  22  24
ATOM     24  C   UNL     1      -0.060  15.380  19.597  0.00  0.00    +0.000 C 
BRANCH  24  25
ATOM     25  C   UNL     1       0.265  16.465  18.610  0.00  0.00    +0.000 A 
ATOM     26  C   UNL     1      -0.747  17.248  18.048  0.00  0.00    +0.000 A 
ATOM     27  C   UNL     1      -0.395  18.254  17.161  0.00  0.00    +0.000 A 
ATOM     28  N   UNL     1       0.875  18.526  16.799  0.00  0.00    +0.000 NA
ATOM     29  C   UNL     1       1.840  17.753  17.342  0.00  0.00    +0.000 A 
ATOM     30  C   UNL     1       1.587  16.720  18.235  0.00  0.00    +0.000 A 
ENDBRANCH  24  25
ENDBRANCH  22  24
ENDBRANCH   9  20
BRANCH  10  31
ATOM     31  C   UNL     1      -0.531  10.277  19.503  0.00  0.00    +0.000 C 
ATOM     32  C   UNL     1      -0.777  11.052  20.800  0.00  0.00    +0.000 C 
ATOM     33  C   UNL     1      -1.797  10.226  18.663  0.00  0.00    +0.000 C 
ENDBRANCH  10  31
TORSDOF 5
ENDMDL
MODEL 2
REMARK VINA RESULT:      -7.4      4.119      5.964
REMARK  Name = 
REMARK  8 active torsions:
REMARK  status: ('A' for Active; 'I' for Inactive)
REMARK    1  A    between atoms: C_1  and  C_2
REMARK    2  A    between atoms: C_9  and  C_10
REMARK    3  A    between atoms: N_12  and  C_13
REMARK    4  A    between atoms: C_13  and  C_14
REMARK    5  A    between atoms: C_20  and  C_21
REMARK    6  A    between atoms: C_21  and  C_22
REMARK    7  A    between atoms: C_21  and  C_23
REMARK    8  A    between atoms: C_25  and  C_26
REMARK                            x       y       z     vdW  Elec       q    Type
REMARK                         _______ _______ _______ _____ _____    ______ ____
ROOT
ATOM      1  C   UNL     1       2.765   7.573  17.013  0.00  0.00    +0.000 C 
ATOM      2  C   UNL     1       2.204   8.236  18.229  0.00  0.00    +0.000 A 
ATOM      3  C   UNL     1       1.816   9.552  18.135  0.00  0.00    +0.000 A 
ATOM      4  N   UNL     1       1.250  10.245  19.131  0.00  0.00    +0.000 NA
ATOM      5  C   UNL     1       1.017   9.614  20.282  0.00  0.00    +0.000 A 
ATOM      6  N   UNL     1       0.257  10.315  21.302  0.00  0.00    +0.000 N 
ATOM      7  N   UNL     1      -0.369   9.577  22.276  0.00  0.00    +0.000 NA
ATOM      8  C   UNL     1      -1.095  10.446  22.968  0.00  0.00    +0.000 A 
ATOM      9  C   UNL     1      -0.925  11.771  22.540  0.00  0.00    +0.000 A 
ATOM     10  C   UNL     1      -0.035  11.688  21.457  0.00  0.00    +0.000 A 
ATOM     11  N   UNL     1       1.387   8.330  20.487  0.00  0.00    +0.000 NA
ATOM     12  C   UNL     1       2.018   7.658  19.482  0.00  0.00    +0.000 A 
ENDROOT
BRANCH  12  13
ATOM     13  C   UNL     1       2.450   6.285  19.856  0.00  0.00    +0.000 A 
ATOM     14  C   UNL     1       1.637   5.480  20.682  0.00  0.00    +0.000 A 
ATOM     15  C   UNL     1       2.020   4.185  21.050  0.00  0.00    +0.000 A 
ATOM     16  C   UNL     1       3.221   3.668  20.589  0.00  0.00    +0.000 A 
ATOM     17  F   UNL     1       3.584   2.425  20.928  0.00  0.00    +0.000 F 
ATOM     18  C   UNL     1       4.059   4.432  19.795  0.00  0.00    +0.000 A 
ATOM     19  C   UNL     1       3.685   5.736  19.455  0.00  0.00    +0.000 A 
ENDBRANCH  12  13
BRANCH   9  20
ATOM     20  C   UNL     1      -1.469  12.994  23.131  0.00  0.00    +0.000 C 
ATOM     21  O   UNL     1      -0.779  13.769  23.785  0.00  0.00    +0.000 OA
ATOM     22  N   UNL     1      -2.805  13.225  22.905  0.00  0.00    +0.000 N 
ATOM     23  H   UNL     1      -3.322  12.625  22.281  0.00  0.00    +0.000 HD
BRANCH  22  24
ATOM     24  C   UNL     1      -3.444  14.429  23.392  0.00  0.00    +0.000 C 
BRANCH  24  25
ATOM     25  C   UNL     1      -4.910  14.216  23.641  0.00  0.00    +0.000 A 
ATOM     26  C   UNL     1      -5.419  12.936  23.878  0.00  0.00    +0.000 A 
ATOM     27  C   UNL     1      -6.776  12.795  24.127  0.00  0.00    +0.000 A 
ATOM     28  N   UNL     1      -7.647  13.824  24.153  0.00  0.00    +0.000 NA
ATOM     29  C   UNL     1      -7.142  15.052  23.910  0.00  0.00    +0.000 A 
ATOM     30  C   UNL     1      -5.799  15.294  23.646  0.00  0.00    +0.000 A 
ENDBRANCH  24  25
ENDBRANCH  22  24
ENDBRANCH   9  20
BRANCH  10  31
ATOM     31  C   UNL     1       0.564  12.889  20.732  0.00  0.00    +0.000 C 
ATOM     32  C   UNL     1       2.089  12.897  20.855  0.00  0.00    +0.000 C 
ATOM     33  C   UNL     1       0.140  13.194  19.305  0.00  0.00    +0.000 C 
ENDBRANCH  10  31
TORSDOF 5
ENDMDL
MODEL 3
REMARK VINA RESULT:      -7.4      0.606      1.028
REMARK  Name = 
REMARK  8 active torsions:
REMARK  status: ('A' for Active; 'I' for Inactive)
REMARK    1  A    between atoms: C_1  and  C_2
REMARK    2  A    between atoms: C_9  and  C_10
REMARK    3  A    between atoms: N_12  and  C_13
REMARK    4  A    between atoms: C_13  and  C_14
REMARK    5  A    between atoms: C_20  and  C_21
REMARK    6  A    between atoms: C_21  and  C_22
REMARK    7  A    between atoms: C_21  and  C_23
REMARK    8  A    between atoms: C_25  and  C_26
REMARK                            x       y       z     vdW  Elec       q    Type
REMARK                         _______ _______ _______ _____ _____    ______ ____
ROOT
ATOM      1  C   UNL     1       3.341   4.338  20.009  0.00  0.00    +0.000 C 
ATOM      2  C   UNL     1       2.946   5.676  19.473  0.00  0.00    +0.000 A 
ATOM      3  C   UNL     1       2.083   6.447  20.216  0.00  0.00    +0.000 A 
ATOM      4  N   UNL     1       1.694   7.683  19.879  0.00  0.00    +0.000 NA
ATOM      5  C   UNL     1       2.197   8.218  18.766  0.00  0.00    +0.000 A 
ATOM      6  N   UNL     1       1.905   9.614  18.488  0.00  0.00    +0.000 N 
ATOM      7  N   UNL     1       2.735  10.299  17.636  0.00  0.00    +0.000 NA
ATOM      8  C   UNL     1       2.326  11.561  17.683  0.00  0.00    +0.000 A 
ATOM      9  C   UNL     1       1.193  11.744  18.488  0.00  0.00    +0.000 A 
ATOM     10  C   UNL     1       0.910  10.471  19.008  0.00  0.00    +0.000 A 
ATOM     11  N   UNL     1       3.030   7.533  17.951  0.00  0.00    +0.000 NA
ATOM     12  C   UNL     1       3.367   6.253  18.279  0.00  0.00    +0.000 A 
ENDROOT
BRANCH  12  13
ATOM     13  C   UNL     1       4.218   5.577  17.263  0.00  0.00    +0.000 A 
ATOM     14  C   UNL     1       4.915   6.332  16.298  0.00  0.00    +0.000 A 
ATOM     15  C   UNL     1       5.722   5.722  15.330  0.00  0.00    +0.000 A 
ATOM     16  C   UNL     1       5.853   4.342  15.319  0.00  0.00    +0.000 A 
ATOM     17  F   UNL     1       6.634   3.755  14.404  0.00  0.00    +0.000 F 
ATOM     18  C   UNL     1       5.168   3.561  16.234  0.00  0.00    +0.000 A 
ATOM     19  C   UNL     1       4.339   4.175  17.179  0.00  0.00    +0.000 A 
ENDBRANCH  12  13
BRANCH   9  20
ATOM     20  C   UNL     1       0.404  12.962  18.685  0.00  0.00    +0.000 C 
ATOM     21  O   UNL     1      -0.640  13.172  18.076  0.00  0.00    +0.000 OA
ATOM     22  N   UNL     1       0.906  13.857  19.599  0.00  0.00    +0.000 N 
ATOM     23  H   UNL     1       1.709  13.613  20.156  0.00  0.00    +0.000 HD
BRANCH  22  24
ATOM     24  C   UNL     1       0.187  15.072  19.921  0.00  0.00    +0.000 C 
BRANCH  24  25
ATOM     25  C   UNL     1       0.485  16.168  18.938  0.00  0.00    +0.000 A 
ATOM     26  C   UNL     1       1.796  16.428  18.529  0.00  0.00    +0.000 A 
ATOM     27  C   UNL     1       2.017  17.434  17.601  0.00  0.00    +0.000 A 
ATOM     28  N   UNL     1       1.038  18.189  17.064  0.00  0.00    +0.000 NA
ATOM     29  C   UNL     1      -0.222  17.934  17.477  0.00  0.00    +0.000 A 
ATOM     30  C   UNL     1      -0.543  16.951  18.405  0.00  0.00    +0.000 A 
ENDBRANCH  24  25
ENDBRANCH  22  24
ENDBRANCH   9  20
BRANCH  10  31
ATOM     31  C   UNL     1      -0.319  10.127  19.843  0.00  0.00    +0.000 C 
ATOM     32  C   UNL     1      -0.254  10.802  21.214  0.00  0.00    +0.000 C 
ATOM     33  C   UNL     1      -1.705  10.274  19.238  0.00  0.00    +0.000 C 
ENDBRANCH  10  31
TORSDOF 5
ENDMDL
MODEL 4
REMARK VINA RESULT:      -7.3      2.181      3.270
REMARK  Name = 
REMARK  8 active torsions:
REMARK  status: ('A' for Active; 'I' for Inactive)
REMARK    1  A    between atoms: C_1  and  C_2
REMARK    2  A    between atoms: C_9  and  C_10
REMARK    3  A    between atoms: N_12  and  C_13
REMARK    4  A    between atoms: C_13  and  C_14
REMARK    5  A    between atoms: C_20  and  C_21
REMARK    6  A    between atoms: C_21  and  C_22
REMARK    7  A    between atoms: C_21  and  C_23
REMARK    8  A    between atoms: C_25  and  C_26
REMARK                            x       y       z     vdW  Elec       q    Type
REMARK                         _______ _______ _______ _____ _____    ______ ____
ROOT
ATOM      1  C   UNL     1       3.696   4.291  19.736  0.00  0.00    +0.000 C 
ATOM      2  C   UNL     1       3.225   5.633  19.276  0.00  0.00    +0.000 A 
ATOM      3  C   UNL     1       2.219   6.248  19.982  0.00  0.00    +0.000 A 
ATOM      4  N   UNL     1       1.744   7.470  19.710  0.00  0.00    +0.000 NA
ATOM      5  C   UNL     1       2.301   8.152  18.709  0.00  0.00    +0.000 A 
ATOM      6  N   UNL     1       1.900   9.535  18.519  0.00  0.00    +0.000 N 
ATOM      7  N   UNL     1       2.739  10.370  17.824  0.00  0.00    +0.000 NA
ATOM      8  C   UNL     1       2.204  11.580  17.932  0.00  0.00    +0.000 A 
ATOM      9  C   UNL     1       0.983  11.583  18.621  0.00  0.00    +0.000 A 
ATOM     10  C   UNL     1       0.777  10.246  18.997  0.00  0.00    +0.000 A 
ATOM     11  N   UNL     1       3.276   7.625  17.934  0.00  0.00    +0.000 NA
ATOM     12  C   UNL     1       3.704   6.355  18.187  0.00  0.00    +0.000 A 
ENDROOT
BRANCH  12  13
ATOM     13  C   UNL     1       4.717   5.858  17.218  0.00  0.00    +0.000 A 
ATOM     14  C   UNL     1       5.998   6.446  17.157  0.00  0.00    +0.000 A 
ATOM     15  C   UNL     1       6.968   5.999  16.253  0.00  0.00    +0.000 A 
ATOM     16  C   UNL     1       6.676   4.946  15.399  0.00  0.00    +0.000 A 
ATOM     17  F   UNL     1       7.607   4.507  14.542  0.00  0.00    +0.000 F 
ATOM     18  C   UNL     1       5.424   4.356  15.410  0.00  0.00    +0.000 A 
ATOM     19  C   UNL     1       4.448   4.827  16.294  0.00  0.00    +0.000 A 
ENDBRANCH  12  13
BRANCH   9  20
ATOM     20  C   UNL     1       0.061  12.701  18.833  0.00  0.00    +0.000 C 
ATOM     21  O   UNL     1      -0.584  13.201  17.917  0.00  0.00    +0.000 OA
ATOM     22  N   UNL     1      -0.041  13.154  20.126  0.00  0.00    +0.000 N 
ATOM     23  H   UNL     1       0.422  12.660  20.873  0.00  0.00    +0.000 HD
BRANCH  22  24
ATOM     24  C   UNL     1      -0.961  14.218  20.470  0.00  0.00    +0.000 C 
BRANCH  24  25
ATOM     25  C   UNL     1      -2.178  13.691  21.176  0.00  0.00    +0.000 A 
ATOM     26  C   UNL     1      -3.296  13.262  20.454  0.00  0.00    +0.000 A 
ATOM     27  C   UNL     1      -4.385  12.760  21.151  0.00  0.00    +0.000 A 
ATOM     28  N   UNL     1      -4.438  12.662  22.494  0.00  0.00    +0.000 NA
ATOM     29  C   UNL     1      -3.355  13.091  23.177  0.00  0.00    +0.000 A 
ATOM     30  C   UNL     1      -2.220  13.613  22.571  0.00  0.00    +0.000 A 
ENDBRANCH  24  25
ENDBRANCH  22  24
ENDBRANCH   9  20
BRANCH  10  31
ATOM     31  C   UNL     1      -0.488   9.715  19.661  0.00  0.00    +0.000 C 
ATOM     32  C   UNL     1      -0.450   9.944  21.173  0.00  0.00    +0.000 C 
ATOM     33  C   UNL     1      -1.849  10.091  19.097  0.00  0.00    +0.000 C 
ENDBRANCH  10  31
TORSDOF 5
ENDMDL
MODEL 5
REMARK VINA RESULT:      -7.2      0.646      1.001
REMARK  Name = 
REMARK  8 active torsions:
REMARK  status: ('A' for Active; 'I' for Inactive)
REMARK    1  A    between atoms: C_1  and  C_2
REMARK    2  A    between atoms: C_9  and  C_10
REMARK    3  A    between atoms: N_12  and  C_13
REMARK    4  A    between atoms: C_13  and  C_14
REMARK    5  A    between atoms: C_20  and  C_21
REMARK    6  A    between atoms: C_21  and  C_22
REMARK    7  A    between atoms: C_21  and  C_23
REMARK    8  A    between atoms: C_25  and  C_26
REMARK                            x       y       z     vdW  Elec       q    Type
REMARK                         _______ _______ _______ _____ _____    ______ ____
ROOT
ATOM      1  C   UNL     1       3.423   4.292  19.861  0.00  0.00    +0.000 C 
ATOM      2  C   UNL     1       3.006   5.629  19.340  0.00  0.00    +0.000 A 
ATOM      3  C   UNL     1       2.135   6.380  20.094  0.00  0.00    +0.000 A 
ATOM      4  N   UNL     1       1.727   7.614  19.770  0.00  0.00    +0.000 NA
ATOM      5  C   UNL     1       2.217   8.166  18.660  0.00  0.00    +0.000 A 
ATOM      6  N   UNL     1       1.903   9.560  18.396  0.00  0.00    +0.000 N 
ATOM      7  N   UNL     1       2.719  10.265  17.546  0.00  0.00    +0.000 NA
ATOM      8  C   UNL     1       2.292  11.520  17.607  0.00  0.00    +0.000 A 
ATOM      9  C   UNL     1       1.160  11.680  18.419  0.00  0.00    +0.000 A 
ATOM     10  C   UNL     1       0.898  10.398  18.928  0.00  0.00    +0.000 A 
ATOM     11  N   UNL     1       3.055   7.501  17.834  0.00  0.00    +0.000 NA
ATOM     12  C   UNL     1       3.412   6.222  18.149  0.00  0.00    +0.000 A 
ENDROOT
BRANCH  12  13
ATOM     13  C   UNL     1       4.268   5.568  17.123  0.00  0.00    +0.000 A 
ATOM     14  C   UNL     1       4.265   4.165  16.978  0.00  0.00    +0.000 A 
ATOM     15  C   UNL     1       5.061   3.525  16.022  0.00  0.00    +0.000 A 
ATOM     16  C   UNL     1       5.869   4.280  15.186  0.00  0.00    +0.000 A 
ATOM     17  F   UNL     1       6.622   3.672  14.260  0.00  0.00    +0.000 F 
ATOM     18  C   UNL     1       5.920   5.658  15.309  0.00  0.00    +0.000 A 
ATOM     19  C   UNL     1       5.144   6.290  16.287  0.00  0.00    +0.000 A 
ENDBRANCH  12  13
BRANCH   9  20
ATOM     20  C   UNL     1       0.356  12.884  18.631  0.00  0.00    +0.000 C 
ATOM     21  O   UNL     1      -0.694  13.085  18.030  0.00  0.00    +0.000 OA
ATOM     22  N   UNL     1       0.848  13.778  19.552  0.00  0.00    +0.000 N 
ATOM     23  H   UNL     1       1.658  13.540  20.103  0.00  0.00    +0.000 HD
BRANCH  22  24
ATOM     24  C   UNL     1       0.114  14.979  19.888  0.00  0.00    +0.000 C 
BRANCH  24  25
ATOM     25  C   UNL     1       0.513  16.135  19.015  0.00  0.00    +0.000 A 
ATOM     26  C   UNL     1      -0.445  17.025  18.522  0.00  0.00    +0.000 A 
ATOM     27  C   UNL     1      -0.023  18.091  17.741  0.00  0.00    +0.000 A 
ATOM     28  N   UNL     1       1.265  18.325  17.421  0.00  0.00    +0.000 NA
ATOM     29  C   UNL     1       2.177  17.450  17.896  0.00  0.00    +0.000 A 
ATOM     30  C   UNL     1       1.853  16.350  18.681  0.00  0.00    +0.000 A 
ENDBRANCH  24  25
ENDBRANCH  22  24
ENDBRANCH   9  20
BRANCH  10  31
ATOM     31  C   UNL     1      -0.321  10.029  19.767  0.00  0.00    +0.000 C 
ATOM     32  C   UNL     1      -0.242  10.665  21.155  0.00  0.00    +0.000 C 
ATOM     33  C   UNL     1      -1.714  10.190  19.181  0.00  0.00    +0.000 C 
ENDBRANCH  10  31
TORSDOF 5
ENDMDL
MODEL 6
REMARK VINA RESULT:      -7.2      3.474      5.456
REMARK  Name = 
REMARK  8 active torsions:
REMARK  status: ('A' for Active; 'I' for Inactive)
REMARK    1  A    between atoms: C_1  and  C_2
REMARK    2  A    between atoms: C_9  and  C_10
REMARK    3  A    between atoms: N_12  and  C_13
REMARK    4  A    between atoms: C_13  and  C_14
REMARK    5  A    between atoms: C_20  and  C_21
REMARK    6  A    between atoms: C_21  and  C_22
REMARK    7  A    between atoms: C_21  and  C_23
REMARK    8  A    between atoms: C_25  and  C_26
REMARK                            x       y       z     vdW  Elec       q    Type
REMARK                         _______ _______ _______ _____ _____    ______ ____
ROOT
ATOM      1  C   UNL     1       4.044   6.747  16.543  0.00  0.00    +0.000 C 
ATOM      2  C   UNL     1       3.298   7.335  17.697  0.00  0.00    +0.000 A 
ATOM      3  C   UNL     1       2.844   8.628  17.590  0.00  0.00    +0.000 A 
ATOM      4  N   UNL     1       2.118   9.253  18.526  0.00  0.00    +0.000 NA
ATOM      5  C   UNL     1       1.786   8.571  19.622  0.00  0.00    +0.000 A 
ATOM      6  N   UNL     1       0.864   9.191  20.558  0.00  0.00    +0.000 N 
ATOM      7  N   UNL     1       0.172   8.385  21.427  0.00  0.00    +0.000 NA
ATOM      8  C   UNL     1      -0.686   9.186  22.046  0.00  0.00    +0.000 A 
ATOM      9  C   UNL     1      -0.548  10.532  21.678  0.00  0.00    +0.000 A 
ATOM     10  C   UNL     1       0.472  10.539  20.712  0.00  0.00    +0.000 A 
ATOM     11  N   UNL     1       2.207   7.304  19.837  0.00  0.00    +0.000 NA
ATOM     12  C   UNL     1       2.997   6.705  18.901  0.00  0.00    +0.000 A 
ENDROOT
BRANCH  12  13
ATOM     13  C   UNL     1       3.464   5.347  19.289  0.00  0.00    +0.000 A 
ATOM     14  C   UNL     1       4.806   4.965  19.079  0.00  0.00    +0.000 A 
ATOM     15  C   UNL     1       5.271   3.693  19.434  0.00  0.00    +0.000 A 
ATOM     16  C   UNL     1       4.402   2.784  20.016  0.00  0.00    +0.000 A 
ATOM     17  F   UNL     1       4.846   1.571  20.370  0.00  0.00    +0.000 F 
ATOM     18  C   UNL     1       3.072   3.110  20.220  0.00  0.00    +0.000 A 
ATOM     19  C   UNL     1       2.605   4.371  19.836  0.00  0.00    +0.000 A 
ENDBRANCH  12  13
BRANCH   9  20
ATOM     20  C   UNL     1      -1.236  11.701  22.229  0.00  0.00    +0.000 C 
ATOM     21  O   UNL     1      -0.883  12.234  23.276  0.00  0.00    +0.000 OA
ATOM     22  N   UNL     1      -2.301  12.169  21.497  0.00  0.00    +0.000 N 
ATOM     23  H   UNL     1      -2.503  11.774  20.592  0.00  0.00    +0.000 HD
BRANCH  22  24
ATOM     24  C   UNL     1      -3.025  13.352  21.912  0.00  0.00    +0.000 C 
BRANCH  24  25
ATOM     25  C   UNL     1      -4.389  13.009  22.440  0.00  0.00    +0.000 A 
ATOM     26  C   UNL     1      -4.614  12.881  23.814  0.00  0.00    +0.000 A 
ATOM     27  C   UNL     1      -5.896  12.588  24.253  0.00  0.00    +0.000 A 
ATOM     28  N   UNL     1      -6.951  12.415  23.432  0.00  0.00    +0.000 NA
ATOM     29  C   UNL     1      -6.715  12.531  22.107  0.00  0.00    +0.000 A 
ATOM     30  C   UNL     1      -5.466  12.816  21.570  0.00  0.00    +0.000 A 
ENDBRANCH  24  25
ENDBRANCH  22  24
ENDBRANCH   9  20
BRANCH  10  31
ATOM     31  C   UNL     1       1.078  11.796  20.099  0.00  0.00    +0.000 C 
ATOM     32  C   UNL     1       0.199  12.332  18.968  0.00  0.00    +0.000 C 
ATOM     33  C   UNL     1       1.538  12.929  21.002  0.00  0.00    +0.000 C 
ENDBRANCH  10  31
TORSDOF 5
ENDMDL
MODEL 7
REMARK VINA RESULT:      -7.2      1.996      2.943
REMARK  Name = 
REMARK  8 active torsions:
REMARK  status: ('A' for Active; 'I' for Inactive)
REMARK    1  A    between atoms: C_1  and  C_2
REMARK    2  A    between atoms: C_9  and  C_10
REMARK    3  A    between atoms: N_12  and  C_13
REMARK    4  A    between atoms: C_13  and  C_14
REMARK    5  A    between atoms: C_20  and  C_21
REMARK    6  A    between atoms: C_21  and  C_22
REMARK    7  A    between atoms: C_21  and  C_23
REMARK    8  A    between atoms: C_25  and  C_26
REMARK                            x       y       z     vdW  Elec       q    Type
REMARK                         _______ _______ _______ _____ _____    ______ ____
ROOT
ATOM      1  C   UNL     1       2.453   4.957  20.627  0.00  0.00    +0.000 C 
ATOM      2  C   UNL     1       2.195   6.316  20.062  0.00  0.00    +0.000 A 
ATOM      3  C   UNL     1       1.415   7.187  20.785  0.00  0.00    +0.000 A 
ATOM      4  N   UNL     1       1.153   8.448  20.419  0.00  0.00    +0.000 NA
ATOM      5  C   UNL     1       1.707   8.904  19.296  0.00  0.00    +0.000 A 
ATOM      6  N   UNL     1       1.558  10.316  18.986  0.00  0.00    +0.000 N 
ATOM      7  N   UNL     1       2.453  10.894  18.120  0.00  0.00    +0.000 NA
ATOM      8  C   UNL     1       2.175  12.191  18.138  0.00  0.00    +0.000 A 
ATOM      9  C   UNL     1       1.066  12.507  18.937  0.00  0.00    +0.000 A 
ATOM     10  C   UNL     1       0.655  11.281  19.484  0.00  0.00    +0.000 A 
ATOM     11  N   UNL     1       2.467   8.120  18.498  0.00  0.00    +0.000 NA
ATOM     12  C   UNL     1       2.672   6.820  18.855  0.00  0.00    +0.000 A 
ENDROOT
BRANCH  12  13
ATOM     13  C   UNL     1       3.451   6.039  17.857  0.00  0.00    +0.000 A 
ATOM     14  C   UNL     1       4.437   6.668  17.068  0.00  0.00    +0.000 A 
ATOM     15  C   UNL     1       5.182   5.957  16.121  0.00  0.00    +0.000 A 
ATOM     16  C   UNL     1       4.961   4.598  15.954  0.00  0.00    +0.000 A 
ATOM     17  F   UNL     1       5.681   3.912  15.058  0.00  0.00    +0.000 F 
ATOM     18  C   UNL     1       3.986   3.947  16.691  0.00  0.00    +0.000 A 
ATOM     19  C   UNL     1       3.224   4.668  17.614  0.00  0.00    +0.000 A 
ENDBRANCH  12  13
BRANCH   9  20
ATOM     20  C   UNL     1       0.405  13.802  19.104  0.00  0.00    +0.000 C 
ATOM     21  O   UNL     1      -0.350  14.267  18.257  0.00  0.00    +0.000 OA
ATOM     22  N   UNL     1       0.680  14.466  20.276  0.00  0.00    +0.000 N 
ATOM     23  H   UNL     1       1.222  14.016  20.996  0.00  0.00    +0.000 HD
BRANCH  22  24
ATOM     24  C   UNL     1       0.043  15.730  20.580  0.00  0.00    +0.000 C 
BRANCH  24  25
ATOM     25  C   UNL     1      -0.830  15.631  21.799  0.00  0.00    +0.000 A 
ATOM     26  C   UNL     1      -2.035  14.924  21.762  0.00  0.00    +0.000 A 
ATOM     27  C   UNL     1      -2.794  14.841  22.920  0.00  0.00    +0.000 A 
ATOM     28  N   UNL     1      -2.441  15.407  24.091  0.00  0.00    +0.000 NA
ATOM     29  C   UNL     1      -1.280  16.096  24.108  0.00  0.00    +0.000 A 
ATOM     30  C   UNL     1      -0.455  16.240  23.000  0.00  0.00    +0.000 A 
ENDBRANCH  24  25
ENDBRANCH  22  24
ENDBRANCH   9  20
BRANCH  10  31
ATOM     31  C   UNL     1      -0.602  11.082  20.324  0.00  0.00    +0.000 C 
ATOM     32  C   UNL     1      -0.349  11.461  21.784  0.00  0.00    +0.000 C 
ATOM     33  C   UNL     1      -1.926  11.652  19.843  0.00  0.00    +0.000 C 
ENDBRANCH  10  31
TORSDOF 5
ENDMDL
MODEL 8
REMARK VINA RESULT:      -7.1      2.021      3.168
REMARK  Name = 
REMARK  8 active torsions:
REMARK  status: ('A' for Active; 'I' for Inactive)
REMARK    1  A    between atoms: C_1  and  C_2
REMARK    2  A    between atoms: C_9  and  C_10
REMARK    3  A    between atoms: N_12  and  C_13
REMARK    4  A    between atoms: C_13  and  C_14
REMARK    5  A    between atoms: C_20  and  C_21
REMARK    6  A    between atoms: C_21  and  C_22
REMARK    7  A    between atoms: C_21  and  C_23
REMARK    8  A    between atoms: C_25  and  C_26
REMARK                            x       y       z     vdW  Elec       q    Type
REMARK                         _______ _______ _______ _____ _____    ______ ____
ROOT
ATOM      1  C   UNL     1       2.541   4.861  20.564  0.00  0.00    +0.000 C 
ATOM      2  C   UNL     1       2.256   6.221  20.013  0.00  0.00    +0.000 A 
ATOM      3  C   UNL     1       1.451   7.064  20.741  0.00  0.00    +0.000 A 
ATOM      4  N   UNL     1       1.162   8.323  20.387  0.00  0.00    +0.000 NA
ATOM      5  C   UNL     1       1.714   8.806  19.274  0.00  0.00    +0.000 A 
ATOM      6  N   UNL     1       1.534  10.217  18.979  0.00  0.00    +0.000 N 
ATOM      7  N   UNL     1       2.421  10.826  18.127  0.00  0.00    +0.000 NA
ATOM      8  C   UNL     1       2.112  12.116  18.158  0.00  0.00    +0.000 A 
ATOM      9  C   UNL     1       0.991  12.397  18.952  0.00  0.00    +0.000 A 
ATOM     10  C   UNL     1       0.605  11.155  19.482  0.00  0.00    +0.000 A 
ATOM     11  N   UNL     1       2.496   8.049  18.472  0.00  0.00    +0.000 NA
ATOM     12  C   UNL     1       2.729   6.750  18.815  0.00  0.00    +0.000 A 
ENDROOT
BRANCH  12  13
ATOM     13  C   UNL     1       3.532   5.999  17.814  0.00  0.00    +0.000 A 
ATOM     14  C   UNL     1       3.319   4.619  17.615  0.00  0.00    +0.000 A 
ATOM     15  C   UNL     1       4.061   3.888  16.680  0.00  0.00    +0.000 A 
ATOM     16  C   UNL     1       5.026   4.530  15.919  0.00  0.00    +0.000 A 
ATOM     17  F   UNL     1       5.729   3.837  15.014  0.00  0.00    +0.000 F 
ATOM     18  C   UNL     1       5.284   5.879  16.098  0.00  0.00    +0.000 A 
ATOM     19  C   UNL     1       4.559   6.597  17.055  0.00  0.00    +0.000 A 
ENDBRANCH  12  13
BRANCH   9  20
ATOM     20  C   UNL     1       0.299  13.674  19.130  0.00  0.00    +0.000 C 
ATOM     21  O   UNL     1      -0.414  14.160  18.258  0.00  0.00    +0.000 OA
ATOM     22  N   UNL     1       0.495  14.296  20.340  0.00  0.00    +0.000 N 
ATOM     23  H   UNL     1       1.002  13.827  21.073  0.00  0.00    +0.000 HD
BRANCH  22  24
ATOM     24  C   UNL     1      -0.180  15.537  20.655  0.00  0.00    +0.000 C 
BRANCH  24  25
ATOM     25  C   UNL     1      -1.176  15.360  21.766  0.00  0.00    +0.000 A 
ATOM     26  C   UNL     1      -0.762  15.318  23.100  0.00  0.00    +0.000 A 
ATOM     27  C   UNL     1      -1.722  15.177  24.091  0.00  0.00    +0.000 A 
ATOM     28  N   UNL     1      -3.044  15.075  23.847  0.00  0.00    +0.000 NA
ATOM     29  C   UNL     1      -3.427  15.107  22.553  0.00  0.00    +0.000 A 
ATOM     30  C   UNL     1      -2.541  15.239  21.491  0.00  0.00    +0.000 A 
ENDBRANCH  24  25
ENDBRANCH  22  24
ENDBRANCH   9  20
BRANCH  10  31
ATOM     31  C   UNL     1      -0.652  10.917  20.311  0.00  0.00    +0.000 C 
ATOM     32  C   UNL     1      -0.399  11.220  21.789  0.00  0.00    +0.000 C 
ATOM     33  C   UNL     1      -1.975  11.515  19.861  0.00  0.00    +0.000 C 
ENDBRANCH  10  31
TORSDOF 5
ENDMDL
MODEL 9
REMARK VINA RESULT:      -7.1      3.706      5.683
REMARK  Name = 
REMARK  8 active torsions:
REMARK  status: ('A' for Active; 'I' for Inactive)
REMARK    1  A    between atoms: C_1  and  C_2
REMARK    2  A    between atoms: C_9  and  C_10
REMARK    3  A    between atoms: N_12  and  C_13
REMARK    4  A    between atoms: C_13  and  C_14
REMARK    5  A    between atoms: C_20  and  C_21
REMARK    6  A    between atoms: C_21  and  C_22
REMARK    7  A    between atoms: C_21  and  C_23
REMARK    8  A    between atoms: C_25  and  C_26
REMARK                            x       y       z     vdW  Elec       q    Type
REMARK                         _______ _______ _______ _____ _____    ______ ____
ROOT
ATOM      1  C   UNL     1       3.510   6.965  16.654  0.00  0.00    +0.000 C 
ATOM      2  C   UNL     1       2.866   7.569  17.860  0.00  0.00    +0.000 A 
ATOM      3  C   UNL     1       2.387   8.855  17.768  0.00  0.00    +0.000 A 
ATOM      4  N   UNL     1       1.743   9.491  18.754  0.00  0.00    +0.000 NA
ATOM      5  C   UNL     1       1.521   8.830  19.890  0.00  0.00    +0.000 A 
ATOM      6  N   UNL     1       0.681   9.460  20.894  0.00  0.00    +0.000 N 
ATOM      7  N   UNL     1       0.082   8.665  21.839  0.00  0.00    +0.000 NA
ATOM      8  C   UNL     1      -0.726   9.470  22.518  0.00  0.00    +0.000 A 
ATOM      9  C   UNL     1      -0.640  10.810  22.111  0.00  0.00    +0.000 A 
ATOM     10  C   UNL     1       0.287  10.807  21.056  0.00  0.00    +0.000 A 
ATOM     11  N   UNL     1       1.976   7.573  20.091  0.00  0.00    +0.000 NA
ATOM     12  C   UNL     1       2.685   6.962  19.099  0.00  0.00    +0.000 A 
ENDROOT
BRANCH  12  13
ATOM     13  C   UNL     1       3.203   5.618  19.470  0.00  0.00    +0.000 A 
ATOM     14  C   UNL     1       2.403   4.723  20.211  0.00  0.00    +0.000 A 
ATOM     15  C   UNL     1       2.866   3.453  20.575  0.00  0.00    +0.000 A 
ATOM     16  C   UNL     1       4.138   3.053  20.194  0.00  0.00    +0.000 A 
ATOM     17  F   UNL     1       4.580   1.834  20.529  0.00  0.00    +0.000 F 
ATOM     18  C   UNL     1       4.964   3.909  19.486  0.00  0.00    +0.000 A 
ATOM     19  C   UNL     1       4.507   5.188  19.152  0.00  0.00    +0.000 A 
ENDBRANCH  12  13
BRANCH   9  20
ATOM     20  C   UNL     1      -1.288  11.983  22.699  0.00  0.00    +0.000 C 
ATOM     21  O   UNL     1      -0.691  12.760  23.437  0.00  0.00    +0.000 OA
ATOM     22  N   UNL     1      -2.611  12.162  22.370  0.00  0.00    +0.000 N 
ATOM     23  H   UNL     1      -3.046  11.566  21.684  0.00  0.00    +0.000 HD
BRANCH  22  24
ATOM     24  C   UNL     1      -3.344  13.316  22.846  0.00  0.00    +0.000 C 
BRANCH  24  25
ATOM     25  C   UNL     1      -4.826  13.068  22.848  0.00  0.00    +0.000 A 
ATOM     26  C   UNL     1      -5.494  12.707  21.674  0.00  0.00    +0.000 A 
ATOM     27  C   UNL     1      -6.858  12.465  21.732  0.00  0.00    +0.000 A 
ATOM     28  N   UNL     1      -7.591  12.559  22.860  0.00  0.00    +0.000 NA
ATOM     29  C   UNL     1      -6.933  12.919  23.983  0.00  0.00    +0.000 A 
ATOM     30  C   UNL     1      -5.571  13.188  24.024  0.00  0.00    +0.000 A 
ENDBRANCH  24  25
ENDBRANCH  22  24
ENDBRANCH   9  20
BRANCH  10  31
ATOM     31  C   UNL     1       0.819  12.057  20.364  0.00  0.00    +0.000 C 
ATOM     32  C   UNL     1      -0.296  12.777  19.604  0.00  0.00    +0.000 C 
ATOM     33  C   UNL     1       1.662  13.050  21.147  0.00  0.00    +0.000 C 
ENDBRANCH  10  31
TORSDOF 5
ENDMDL
