MODEL 1
REMARK VINA RESULT:      -6.6      0.000      0.000
REMARK  Name = 
REMARK  3 active torsions:
REMARK  status: ('A' for Active; 'I' for Inactive)
REMARK    1  A    between atoms: N_1  and  C_2
REMARK    2  A    between atoms: C_5  and  N_6
REMARK    3  A    between atoms: N_6  and  C_7
REMARK                            x       y       z     vdW  Elec       q    Type
REMARK                         _______ _______ _______ _____ _____    ______ ____
ROOT
ATOM      1  C   UNL     1       6.740   5.270  15.858  0.00  0.00    +0.000 A 
ATOM      2  C   UNL     1       5.477   5.865  15.879  0.00  0.00    +0.000 A 
ATOM      3  C   UNL     1       4.734   5.888  17.054  0.00  0.00    +0.000 A 
ATOM      4  C   UNL     1       5.237   5.316  18.239  0.00  0.00    +0.000 A 
ATOM      5  C   UNL     1       6.519   4.745  18.225  0.00  0.00    +0.000 A 
ATOM      6  C   UNL     1       7.260   4.708  17.037  0.00  0.00    +0.000 A 
ENDROOT
BRANCH   1   7
ATOM      7  N   UNL     1       7.489   5.250  14.658  0.00  0.00    +0.000 N 
ATOM      8  H   UNL     1       8.372   4.721  14.602  0.00  0.00    +0.000 HD
ATOM      9  H   UNL     1       7.157   5.748  13.819  0.00  0.00    +0.000 HD
ENDBRANCH   1   7
BRANCH   4  10
ATOM     10  N   UNL     1       4.480   5.354  19.451  0.00  0.00    +0.000 N 
ATOM     11  H   UNL     1       4.757   6.022  20.185  0.00  0.00    +0.000 HD
BRANCH  10  12
ATOM     12  C   UNL     1       3.327   4.539  19.664  0.00  0.00    +0.000 A 
ATOM     13  C   UNL     1       2.172   5.068  20.275  0.00  0.00    +0.000 A 
ATOM     14  C   UNL     1       1.047   4.269  20.484  0.00  0.00    +0.000 A 
ATOM     15  C   UNL     1       1.058   2.934  20.086  0.00  0.00    +0.000 A 
ATOM     16  C   UNL     1       2.191   2.399  19.463  0.00  0.00    +0.000 A 
ATOM     17  C   UNL     1       3.317   3.202  19.237  0.00  0.00    +0.000 A 
ENDBRANCH  10  12
ENDBRANCH   4  10
TORSDOF 3
ENDMDL
MODEL 2
REMARK VINA RESULT:      -6.6      1.422      1.908
REMARK  Name = 
REMARK  3 active torsions:
REMARK  status: ('A' for Active; 'I' for Inactive)
REMARK    1  A    between atoms: N_1  and  C_2
REMARK    2  A    between atoms: C_5  and  N_6
REMARK    3  A    between atoms: N_6  and  C_7
REMARK                            x       y       z     vdW  Elec       q    Type
REMARK                         _______ _______ _______ _____ _____    ______ ____
ROOT
ATOM      1  C   UNL     1       6.300   5.501  16.172  0.00  0.00    +0.000 A 
ATOM      2  C   UNL     1       5.501   4.358  16.242  0.00  0.00    +0.000 A 
ATOM      3  C   UNL     1       4.263   4.407  16.872  0.00  0.00    +0.000 A 
ATOM      4  C   UNL     1       3.790   5.604  17.446  0.00  0.00    +0.000 A 
ATOM      5  C   UNL     1       4.580   6.760  17.349  0.00  0.00    +0.000 A 
ATOM      6  C   UNL     1       5.835   6.706  16.729  0.00  0.00    +0.000 A 
ENDROOT
BRANCH   1   7
ATOM      7  N   UNL     1       7.559   5.442  15.531  0.00  0.00    +0.000 N 
ATOM      8  H   UNL     1       7.828   4.612  14.983  0.00  0.00    +0.000 HD
ATOM      9  H   UNL     1       8.219   6.232  15.588  0.00  0.00    +0.000 HD
ENDBRANCH   1   7
BRANCH   4  10
ATOM     10  N   UNL     1       2.510   5.658  18.078  0.00  0.00    +0.000 N 
ATOM     11  H   UNL     1       1.838   6.377  17.772  0.00  0.00    +0.000 HD
BRANCH  10  12
ATOM     12  C   UNL     1       2.106   4.725  19.083  0.00  0.00    +0.000 A 
ATOM     13  C   UNL     1       1.251   3.650  18.768  0.00  0.00    +0.000 A 
ATOM     14  C   UNL     1       0.858   2.741  19.750  0.00  0.00    +0.000 A 
ATOM     15  C   UNL     1       1.312   2.892  21.059  0.00  0.00    +0.000 A 
ATOM     16  C   UNL     1       2.174   3.944  21.384  0.00  0.00    +0.000 A 
ATOM     17  C   UNL     1       2.585   4.850  20.397  0.00  0.00    +0.000 A 
ENDBRANCH  10  12
ENDBRANCH   4  10
TORSDOF 3
ENDMDL
MODEL 3
REMARK VINA RESULT:      -6.6      1.420      1.725
REMARK  Name = 
REMARK  3 active torsions:
REMARK  status: ('A' for Active; 'I' for Inactive)
REMARK    1  A    between atoms: N_1  and  C_2
REMARK    2  A    between atoms: C_5  and  N_6
REMARK    3  A    between atoms: N_6  and  C_7
REMARK                            x       y       z     vdW  Elec       q    Type
REMARK                         _______ _______ _______ _____ _____    ______ ____
ROOT
ATOM      1  C   UNL     1       6.206   5.391  16.046  0.00  0.00    +0.000 A 
ATOM      2  C   UNL     1       5.433   4.251  16.276  0.00  0.00    +0.000 A 
ATOM      3  C   UNL     1       4.236   4.348  16.976  0.00  0.00    +0.000 A 
ATOM      4  C   UNL     1       3.779   5.589  17.462  0.00  0.00    +0.000 A 
ATOM      5  C   UNL     1       4.541   6.739  17.203  0.00  0.00    +0.000 A 
ATOM      6  C   UNL     1       5.756   6.639  16.512  0.00  0.00    +0.000 A 
ENDROOT
BRANCH   1   7
ATOM      7  N   UNL     1       7.423   5.284  15.334  0.00  0.00    +0.000 N 
ATOM      8  H   UNL     1       7.713   4.383  14.925  0.00  0.00    +0.000 HD
ATOM      9  H   UNL     1       8.031   6.105  15.200  0.00  0.00    +0.000 HD
ENDBRANCH   1   7
BRANCH   4  10
ATOM     10  N   UNL     1       2.540   5.691  18.166  0.00  0.00    +0.000 N 
ATOM     11  H   UNL     1       1.908   6.473  17.942  0.00  0.00    +0.000 HD
BRANCH  10  12
ATOM     12  C   UNL     1       2.122   4.724  19.132  0.00  0.00    +0.000 A 
ATOM     13  C   UNL     1       2.555   4.808  20.471  0.00  0.00    +0.000 A 
ATOM     14  C   UNL     1       2.146   3.863  21.412  0.00  0.00    +0.000 A 
ATOM     15  C   UNL     1       1.301   2.823  21.031  0.00  0.00    +0.000 A 
ATOM     16  C   UNL     1       0.850   2.735  19.710  0.00  0.00    +0.000 A 
ATOM     17  C   UNL     1       1.244   3.692  18.766  0.00  0.00    +0.000 A 
ENDBRANCH  10  12
ENDBRANCH   4  10
TORSDOF 3
ENDMDL
MODEL 4
REMARK VINA RESULT:      -6.6      0.046      1.830
REMARK  Name = 
REMARK  3 active torsions:
REMARK  status: ('A' for Active; 'I' for Inactive)
REMARK    1  A    between atoms: N_1  and  C_2
REMARK    2  A    between atoms: C_5  and  N_6
REMARK    3  A    between atoms: N_6  and  C_7
REMARK                            x       y       z     vdW  Elec       q    Type
REMARK                         _______ _______ _______ _____ _____    ______ ____
ROOT
ATOM      1  C   UNL     1       6.733   5.298  15.890  0.00  0.00    +0.000 A 
ATOM      2  C   UNL     1       7.232   4.704  17.051  0.00  0.00    +0.000 A 
ATOM      3  C   UNL     1       6.491   4.734  18.226  0.00  0.00    +0.000 A 
ATOM      4  C   UNL     1       5.228   5.358  18.270  0.00  0.00    +0.000 A 
ATOM      5  C   UNL     1       4.713   5.927  17.094  0.00  0.00    +0.000 A 
ATOM      6  C   UNL     1       5.468   5.911  15.915  0.00  0.00    +0.000 A 
ENDROOT
BRANCH   1   7
ATOM      7  N   UNL     1       7.495   5.264  14.698  0.00  0.00    +0.000 N 
ATOM      8  H   UNL     1       8.394   5.765  14.638  0.00  0.00    +0.000 HD
ATOM      9  H   UNL     1       7.172   4.727  13.880  0.00  0.00    +0.000 HD
ENDBRANCH   1   7
BRANCH   4  10
ATOM     10  N   UNL     1       4.459   5.373  19.473  0.00  0.00    +0.000 N 
ATOM     11  H   UNL     1       4.725   6.030  20.221  0.00  0.00    +0.000 HD
BRANCH  10  12
ATOM     12  C   UNL     1       3.306   4.549  19.661  0.00  0.00    +0.000 A 
ATOM     13  C   UNL     1       3.295   3.212  19.216  0.00  0.00    +0.000 A 
ATOM     14  C   UNL     1       2.168   2.410  19.399  0.00  0.00    +0.000 A 
ATOM     15  C   UNL     1       1.039   2.930  20.029  0.00  0.00    +0.000 A 
ATOM     16  C   UNL     1       1.041   4.250  20.491  0.00  0.00    +0.000 A 
ATOM     17  C   UNL     1       2.176   5.054  20.324  0.00  0.00    +0.000 A 
ENDBRANCH  10  12
ENDBRANCH   4  10
TORSDOF 3
ENDMDL
MODEL 5
REMARK VINA RESULT:      -6.6      0.130      1.300
REMARK  Name = 
REMARK  3 active torsions:
REMARK  status: ('A' for Active; 'I' for Inactive)
REMARK    1  A    between atoms: N_1  and  C_2
REMARK    2  A    between atoms: C_5  and  N_6
REMARK    3  A    between atoms: N_6  and  C_7
REMARK                            x       y       z     vdW  Elec       q    Type
REMARK                         _______ _______ _______ _____ _____    ______ ____
ROOT
ATOM      1  C   UNL     1       6.720   5.244  15.817  0.00  0.00    +0.000 A 
ATOM      2  C   UNL     1       7.266   4.665  16.964  0.00  0.00    +0.000 A 
ATOM      3  C   UNL     1       6.550   4.666  18.156  0.00  0.00    +0.000 A 
ATOM      4  C   UNL     1       5.267   5.244  18.230  0.00  0.00    +0.000 A 
ATOM      5  C   UNL     1       4.706   5.798  17.068  0.00  0.00    +0.000 A 
ATOM      6  C   UNL     1       5.435   5.812  15.872  0.00  0.00    +0.000 A 
ENDROOT
BRANCH   1   7
ATOM      7  N   UNL     1       7.456   5.241  14.609  0.00  0.00    +0.000 N 
ATOM      8  H   UNL     1       8.425   4.891  14.588  0.00  0.00    +0.000 HD
ATOM      9  H   UNL     1       7.030   5.572  13.730  0.00  0.00    +0.000 HD
ENDBRANCH   1   7
BRANCH   4  10
ATOM     10  N   UNL     1       4.525   5.229  19.450  0.00  0.00    +0.000 N 
ATOM     11  H   UNL     1       4.849   5.815  20.233  0.00  0.00    +0.000 HD
BRANCH  10  12
ATOM     12  C   UNL     1       3.323   4.471  19.612  0.00  0.00    +0.000 A 
ATOM     13  C   UNL     1       2.219   5.008  20.305  0.00  0.00    +0.000 A 
ATOM     14  C   UNL     1       1.048   4.266  20.462  0.00  0.00    +0.000 A 
ATOM     15  C   UNL     1       0.962   2.981  19.930  0.00  0.00    +0.000 A 
ATOM     16  C   UNL     1       2.043   2.442  19.226  0.00  0.00    +0.000 A 
ATOM     17  C   UNL     1       3.215   3.189  19.051  0.00  0.00    +0.000 A 
ENDBRANCH  10  12
ENDBRANCH   4  10
TORSDOF 3
ENDMDL
MODEL 6
REMARK VINA RESULT:      -6.6      0.148      1.301
REMARK  Name = 
REMARK  3 active torsions:
REMARK  status: ('A' for Active; 'I' for Inactive)
REMARK    1  A    between atoms: N_1  and  C_2
REMARK    2  A    between atoms: C_5  and  N_6
REMARK    3  A    between atoms: N_6  and  C_7
REMARK                            x       y       z     vdW  Elec       q    Type
REMARK                         _______ _______ _______ _____ _____    ______ ____
ROOT
ATOM      1  C   UNL     1       6.714   5.173  15.790  0.00  0.00    +0.000 A 
ATOM      2  C   UNL     1       5.390   5.614  15.822  0.00  0.00    +0.000 A 
ATOM      3  C   UNL     1       4.687   5.628  17.021  0.00  0.00    +0.000 A 
ATOM      4  C   UNL     1       5.291   5.202  18.220  0.00  0.00    +0.000 A 
ATOM      5  C   UNL     1       6.632   4.787  18.192  0.00  0.00    +0.000 A 
ATOM      6  C   UNL     1       7.335   4.758  16.981  0.00  0.00    +0.000 A 
ENDROOT
BRANCH   1   7
ATOM      7  N   UNL     1       7.422   5.160  14.566  0.00  0.00    +0.000 N 
ATOM      8  H   UNL     1       6.972   4.816  13.704  0.00  0.00    +0.000 HD
ATOM      9  H   UNL     1       8.391   5.508  14.512  0.00  0.00    +0.000 HD
ENDBRANCH   1   7
BRANCH   4  10
ATOM     10  N   UNL     1       4.574   5.233  19.455  0.00  0.00    +0.000 N 
ATOM     11  H   UNL     1       4.919   5.841  20.212  0.00  0.00    +0.000 HD
BRANCH  10  12
ATOM     12  C   UNL     1       3.369   4.492  19.665  0.00  0.00    +0.000 A 
ATOM     13  C   UNL     1       3.288   3.131  19.307  0.00  0.00    +0.000 A 
ATOM     14  C   UNL     1       2.111   2.410  19.512  0.00  0.00    +0.000 A 
ATOM     15  C   UNL     1       1.001   3.036  20.075  0.00  0.00    +0.000 A 
ATOM     16  C   UNL     1       1.072   4.382  20.450  0.00  0.00    +0.000 A 
ATOM     17  C   UNL     1       2.257   5.105  20.262  0.00  0.00    +0.000 A 
ENDBRANCH  10  12
ENDBRANCH   4  10
TORSDOF 3
ENDMDL
MODEL 7
REMARK VINA RESULT:      -6.5      1.018      1.939
REMARK  Name = 
REMARK  3 active torsions:
REMARK  status: ('A' for Active; 'I' for Inactive)
REMARK    1  A    between atoms: N_1  and  C_2
REMARK    2  A    between atoms: C_5  and  N_6
REMARK    3  A    between atoms: N_6  and  C_7
REMARK                            x       y       z     vdW  Elec       q    Type
REMARK                         _______ _______ _______ _____ _____    ______ ____
ROOT
ATOM      1  C   UNL     1       6.707   4.950  15.692  0.00  0.00    +0.000 A 
ATOM      2  C   UNL     1       7.401   5.081  16.897  0.00  0.00    +0.000 A 
ATOM      3  C   UNL     1       6.844   4.607  18.079  0.00  0.00    +0.000 A 
ATOM      4  C   UNL     1       5.579   3.987  18.086  0.00  0.00    +0.000 A 
ATOM      5  C   UNL     1       4.896   3.828  16.870  0.00  0.00    +0.000 A 
ATOM      6  C   UNL     1       5.450   4.321  15.682  0.00  0.00    +0.000 A 
ENDROOT
BRANCH   1   7
ATOM      7  N   UNL     1       7.280   5.436  14.494  0.00  0.00    +0.000 N 
ATOM      8  H   UNL     1       6.997   5.045  13.583  0.00  0.00    +0.000 HD
ATOM      9  H   UNL     1       7.975   6.197  14.511  0.00  0.00    +0.000 HD
ENDBRANCH   1   7
BRANCH   4  10
ATOM     10  N   UNL     1       5.015   3.485  19.299  0.00  0.00    +0.000 N 
ATOM     11  H   UNL     1       5.631   2.997  19.966  0.00  0.00    +0.000 HD
BRANCH  10  12
ATOM     12  C   UNL     1       3.641   3.674  19.646  0.00  0.00    +0.000 A 
ATOM     13  C   UNL     1       2.747   2.584  19.674  0.00  0.00    +0.000 A 
ATOM     14  C   UNL     1       1.407   2.771  20.012  0.00  0.00    +0.000 A 
ATOM     15  C   UNL     1       0.940   4.046  20.326  0.00  0.00    +0.000 A 
ATOM     16  C   UNL     1       1.819   5.135  20.318  0.00  0.00    +0.000 A 
ATOM     17  C   UNL     1       3.169   4.948  19.996  0.00  0.00    +0.000 A 
ENDBRANCH  10  12
ENDBRANCH   4  10
TORSDOF 3
ENDMDL
MODEL 8
REMARK VINA RESULT:      -6.5      1.021      1.600
REMARK  Name = 
REMARK  3 active torsions:
REMARK  status: ('A' for Active; 'I' for Inactive)
REMARK    1  A    between atoms: N_1  and  C_2
REMARK    2  A    between atoms: C_5  and  N_6
REMARK    3  A    between atoms: N_6  and  C_7
REMARK                            x       y       z     vdW  Elec       q    Type
REMARK                         _______ _______ _______ _____ _____    ______ ____
ROOT
ATOM      1  C   UNL     1       6.718   4.994  15.739  0.00  0.00    +0.000 A 
ATOM      2  C   UNL     1       7.375   5.135  16.963  0.00  0.00    +0.000 A 
ATOM      3  C   UNL     1       6.804   4.628  18.125  0.00  0.00    +0.000 A 
ATOM      4  C   UNL     1       5.561   3.965  18.091  0.00  0.00    +0.000 A 
ATOM      5  C   UNL     1       4.916   3.797  16.856  0.00  0.00    +0.000 A 
ATOM      6  C   UNL     1       5.484   4.323  15.688  0.00  0.00    +0.000 A 
ENDROOT
BRANCH   1   7
ATOM      7  N   UNL     1       7.305   5.514  14.562  0.00  0.00    +0.000 N 
ATOM      8  H   UNL     1       6.722   5.738  13.741  0.00  0.00    +0.000 HD
ATOM      9  H   UNL     1       8.319   5.692  14.510  0.00  0.00    +0.000 HD
ENDBRANCH   1   7
BRANCH   4  10
ATOM     10  N   UNL     1       4.983   3.429  19.283  0.00  0.00    +0.000 N 
ATOM     11  H   UNL     1       5.583   2.889  19.923  0.00  0.00    +0.000 HD
BRANCH  10  12
ATOM     12  C   UNL     1       3.619   3.655  19.646  0.00  0.00    +0.000 A 
ATOM     13  C   UNL     1       3.166   4.946  19.982  0.00  0.00    +0.000 A 
ATOM     14  C   UNL     1       1.834   5.163  20.337  0.00  0.00    +0.000 A 
ATOM     15  C   UNL     1       0.938   4.097  20.361  0.00  0.00    +0.000 A 
ATOM     16  C   UNL     1       1.369   2.812  20.014  0.00  0.00    +0.000 A 
ATOM     17  C   UNL     1       2.702   2.593  19.640  0.00  0.00    +0.000 A 
ENDBRANCH  10  12
ENDBRANCH   4  10
TORSDOF 3
ENDMDL
MODEL 9
REMARK VINA RESULT:      -6.5      1.611      1.715
REMARK  Name = 
REMARK  3 active torsions:
REMARK  status: ('A' for Active; 'I' for Inactive)
REMARK    1  A    between atoms: N_1  and  C_2
REMARK    2  A    between atoms: C_5  and  N_6
REMARK    3  A    between atoms: N_6  and  C_7
REMARK                            x       y       z     vdW  Elec       q    Type
REMARK                         _______ _______ _______ _____ _____    ______ ____
ROOT
ATOM      1  C   UNL     1       6.724   6.644  17.300  0.00  0.00    +0.000 A 
ATOM      2  C   UNL     1       5.581   6.405  16.536  0.00  0.00    +0.000 A 
ATOM      3  C   UNL     1       4.799   5.282  16.779  0.00  0.00    +0.000 A 
ATOM      4  C   UNL     1       5.141   4.368  17.796  0.00  0.00    +0.000 A 
ATOM      5  C   UNL     1       6.274   4.625  18.584  0.00  0.00    +0.000 A 
ATOM      6  C   UNL     1       7.070   5.748  18.328  0.00  0.00    +0.000 A 
ENDROOT
BRANCH   1   7
ATOM      7  N   UNL     1       7.515   7.788  17.046  0.00  0.00    +0.000 N 
ATOM      8  H   UNL     1       8.226   7.777  16.299  0.00  0.00    +0.000 HD
ATOM      9  H   UNL     1       7.383   8.654  17.590  0.00  0.00    +0.000 HD
ENDBRANCH   1   7
BRANCH   4  10
ATOM     10  N   UNL     1       4.328   3.223  18.057  0.00  0.00    +0.000 N 
ATOM     11  H   UNL     1       4.512   2.356  17.531  0.00  0.00    +0.000 HD
BRANCH  10  12
ATOM     12  C   UNL     1       3.302   3.217  19.052  0.00  0.00    +0.000 A 
ATOM     13  C   UNL     1       2.013   3.710  18.763  0.00  0.00    +0.000 A 
ATOM     14  C   UNL     1       1.014   3.704  19.737  0.00  0.00    +0.000 A 
ATOM     15  C   UNL     1       1.286   3.207  21.010  0.00  0.00    +0.000 A 
ATOM     16  C   UNL     1       2.555   2.700  21.307  0.00  0.00    +0.000 A 
ATOM     17  C   UNL     1       3.557   2.688  20.327  0.00  0.00    +0.000 A 
ENDBRANCH  10  12
ENDBRANCH   4  10
TORSDOF 3
ENDMDL
