MODEL 1
REMARK VINA RESULT:      -7.4      0.000      0.000
REMARK  Name = 
REMARK  10 active torsions:
REMARK  status: ('A' for Active; 'I' for Inactive)
REMARK    1  A    between atoms: C_2  and  C_11
REMARK    2  A    between atoms: N_3  and  C_4
REMARK    3  A    between atoms: C_4  and  C_5
REMARK    4  A    between atoms: C_5  and  C_6
REMARK    5  A    between atoms: C_6  and  O_7
REMARK    6  A    between atoms: C_6  and  C_8
REMARK    7  A    between atoms: C_8  and  O_10
REMARK    8  A    between atoms: C_16  and  O_17
REMARK    9  A    between atoms: O_17  and  C_18
REMARK   10  A    between atoms: C_27  and  O_28
REMARK                            x       y       z     vdW  Elec       q    Type
REMARK                         _______ _______ _______ _____ _____    ______ ____
ROOT
ATOM      1  C   UNL     1       2.364   7.279  18.689  0.00  0.00    +0.000 A 
ATOM      2  N   UNL     1       2.134   8.250  17.759  0.00  0.00    +0.000 NA
ATOM      3  C   UNL     1       1.546   9.387  18.199  0.00  0.00    +0.000 A 
ATOM      4  C   UNL     1       1.151   9.620  19.520  0.00  0.00    +0.000 A 
ATOM      5  C   UNL     1       0.597  10.852  19.930  0.00  0.00    +0.000 A 
ATOM      6  C   UNL     1       0.237  11.059  21.262  0.00  0.00    +0.000 A 
ATOM      7  C   UNL     1       0.321  10.001  22.165  0.00  0.00    +0.000 A 
ATOM      8  C   UNL     1       0.887   8.787  21.775  0.00  0.00    +0.000 A 
ATOM      9  C   UNL     1       1.339   8.577  20.456  0.00  0.00    +0.000 A 
ATOM     10  C   UNL     1       1.962   7.385  20.023  0.00  0.00    +0.000 A 
ENDROOT
BRANCH   1  12
ATOM     11  O   UNL     1       4.204   6.242  17.518  0.00  0.00    +0.000 OA
ATOM     12  C   UNL     1       3.196   6.114  18.202  0.00  0.00    +0.000 C 
ATOM     13  N   UNL     1       2.695   4.864  18.521  0.00  0.00    +0.000 N 
ATOM     14  H   UNL     1       1.865   4.853  19.118  0.00  0.00    +0.000 HD
BRANCH  13  15
ATOM     15  C   UNL     1       3.378   3.654  18.144  0.00  0.00    +0.000 C 
BRANCH  15  16
ATOM     16  C   UNL     1       3.249   2.552  19.190  0.00  0.00    +0.000 C 
BRANCH  16  17
ATOM     17  C   UNL     1       1.819   2.183  19.589  0.00  0.00    +0.000 C 
BRANCH  17  18
ATOM     18  O   UNL     1       0.877   2.388  18.528  0.00  0.00    +0.000 OA
ATOM     19  H   UNL     1       0.592   1.508  18.208  0.00  0.00    +0.000 HD
ENDBRANCH  17  18
BRANCH  17  20
ATOM     20  C   UNL     1       1.321   2.891  20.854  0.00  0.00    +0.000 C 
ATOM     21  O   UNL     1       1.525   2.527  22.001  0.00  0.00    +0.000 OA
BRANCH  20  22
ATOM     22  O   UNL     1       0.565   3.976  20.539  0.00  0.00    +0.000 OA
ATOM     23  H   UNL     1      -0.386   3.737  20.647  0.00  0.00    +0.000 HD
ENDBRANCH  20  22
ENDBRANCH  17  20
ENDBRANCH  16  17
ENDBRANCH  15  16
ENDBRANCH  13  15
ENDBRANCH   1  12
BRANCH  10  24
ATOM     24  O   UNL     1       2.171   6.347  20.890  0.00  0.00    +0.000 OA
ATOM     25  H   UNL     1       3.008   6.462  21.361  0.00  0.00    +0.000 HD
ENDBRANCH  10  24
BRANCH   6  26
ATOM     26  O   UNL     1      -0.211  12.319  21.601  0.00  0.00    +0.000 OA
BRANCH  26  27
ATOM     27  C   UNL     1      -1.560  12.493  21.835  0.00  0.00    +0.000 A 
ATOM     28  C   UNL     1      -2.140  12.415  23.106  0.00  0.00    +0.000 A 
ATOM     29  C   UNL     1      -3.525  12.490  23.250  0.00  0.00    +0.000 A 
ATOM     30  C   UNL     1      -4.327  12.719  22.134  0.00  0.00    +0.000 A 
ATOM     31  C   UNL     1      -3.744  12.889  20.878  0.00  0.00    +0.000 A 
ATOM     32  C   UNL     1      -2.359  12.778  20.727  0.00  0.00    +0.000 A 
ENDBRANCH  26  27
ENDBRANCH   6  26
TORSDOF 10
ENDMDL
MODEL 2
REMARK VINA RESULT:      -7.4      0.995      1.555
REMARK  Name = 
REMARK  10 active torsions:
REMARK  status: ('A' for Active; 'I' for Inactive)
REMARK    1  A    between atoms: C_2  and  C_11
REMARK    2  A    between atoms: N_3  and  C_4
REMARK    3  A    between atoms: C_4  and  C_5
REMARK    4  A    between atoms: C_5  and  C_6
REMARK    5  A    between atoms: C_6  and  O_7
REMARK    6  A    between atoms: C_6  and  C_8
REMARK    7  A    between atoms: C_8  and  O_10
REMARK    8  A    between atoms: C_16  and  O_17
REMARK    9  A    between atoms: O_17  and  C_18
REMARK   10  A    between atoms: C_27  and  O_28
REMARK                            x       y       z     vdW  Elec       q    Type
REMARK                         _______ _______ _______ _____ _____    ______ ____
ROOT
ATOM      1  C   UNL     1       2.573   7.123  18.480  0.00  0.00    +0.000 A 
ATOM      2  N   UNL     1       2.340   8.165  17.632  0.00  0.00    +0.000 NA
ATOM      3  C   UNL     1       1.765   9.268  18.167  0.00  0.00    +0.000 A 
ATOM      4  C   UNL     1       1.389   9.400  19.508  0.00  0.00    +0.000 A 
ATOM      5  C   UNL     1       0.849  10.599  20.019  0.00  0.00    +0.000 A 
ATOM      6  C   UNL     1       0.506  10.703  21.368  0.00  0.00    +0.000 A 
ATOM      7  C   UNL     1       0.594   9.577  22.185  0.00  0.00    +0.000 A 
ATOM      8  C   UNL     1       1.146   8.394  21.694  0.00  0.00    +0.000 A 
ATOM      9  C   UNL     1       1.580   8.285  20.356  0.00  0.00    +0.000 A 
ATOM     10  C   UNL     1       2.188   7.127  19.823  0.00  0.00    +0.000 A 
ENDROOT
BRANCH   1  12
ATOM     11  O   UNL     1       4.550   6.123  17.516  0.00  0.00    +0.000 OA
ATOM     12  C   UNL     1       3.391   5.994  17.893  0.00  0.00    +0.000 C 
ATOM     13  N   UNL     1       2.710   4.800  17.735  0.00  0.00    +0.000 N 
ATOM     14  H   UNL     1       1.756   4.777  18.103  0.00  0.00    +0.000 HD
BRANCH  13  15
ATOM     15  C   UNL     1       3.351   3.625  17.204  0.00  0.00    +0.000 C 
BRANCH  15  16
ATOM     16  C   UNL     1       3.368   2.464  18.192  0.00  0.00    +0.000 C 
BRANCH  16  17
ATOM     17  C   UNL     1       3.814   2.811  19.614  0.00  0.00    +0.000 C 
BRANCH  17  18
ATOM     18  O   UNL     1       4.886   1.979  20.077  0.00  0.00    +0.000 OA
ATOM     19  H   UNL     1       4.495   1.261  20.615  0.00  0.00    +0.000 HD
ENDBRANCH  17  18
BRANCH  17  20
ATOM     20  C   UNL     1       2.681   2.802  20.645  0.00  0.00    +0.000 C 
ATOM     21  O   UNL     1       1.536   3.176  20.449  0.00  0.00    +0.000 OA
BRANCH  20  22
ATOM     22  O   UNL     1       3.125   2.358  21.851  0.00  0.00    +0.000 OA
ATOM     23  H   UNL     1       3.920   1.793  21.703  0.00  0.00    +0.000 HD
ENDBRANCH  20  22
ENDBRANCH  17  20
ENDBRANCH  16  17
ENDBRANCH  15  16
ENDBRANCH  13  15
ENDBRANCH   1  12
BRANCH  10  24
ATOM     24  O   UNL     1       2.400   6.023  20.603  0.00  0.00    +0.000 OA
ATOM     25  H   UNL     1       3.132   6.177  21.218  0.00  0.00    +0.000 HD
ENDBRANCH  10  24
BRANCH   6  26
ATOM     26  O   UNL     1       0.072  11.936  21.811  0.00  0.00    +0.000 OA
BRANCH  26  27
ATOM     27  C   UNL     1      -1.287  12.158  21.898  0.00  0.00    +0.000 A 
ATOM     28  C   UNL     1      -2.087  12.497  20.800  0.00  0.00    +0.000 A 
ATOM     29  C   UNL     1      -3.431  12.816  20.986  0.00  0.00    +0.000 A 
ATOM     30  C   UNL     1      -3.998  12.726  22.255  0.00  0.00    +0.000 A 
ATOM     31  C   UNL     1      -3.225  12.299  23.336  0.00  0.00    +0.000 A 
ATOM     32  C   UNL     1      -1.869  12.014  23.158  0.00  0.00    +0.000 A 
ENDBRANCH  26  27
ENDBRANCH   6  26
TORSDOF 10
ENDMDL
MODEL 3
REMARK VINA RESULT:      -7.4      2.086      3.230
REMARK  Name = 
REMARK  10 active torsions:
REMARK  status: ('A' for Active; 'I' for Inactive)
REMARK    1  A    between atoms: C_2  and  C_11
REMARK    2  A    between atoms: N_3  and  C_4
REMARK    3  A    between atoms: C_4  and  C_5
REMARK    4  A    between atoms: C_5  and  C_6
REMARK    5  A    between atoms: C_6  and  O_7
REMARK    6  A    between atoms: C_6  and  C_8
REMARK    7  A    between atoms: C_8  and  O_10
REMARK    8  A    between atoms: C_16  and  O_17
REMARK    9  A    between atoms: O_17  and  C_18
REMARK   10  A    between atoms: C_27  and  O_28
REMARK                            x       y       z     vdW  Elec       q    Type
REMARK                         _______ _______ _______ _____ _____    ______ ____
ROOT
ATOM      1  C   UNL     1       2.495   7.536  18.648  0.00  0.00    +0.000 A 
ATOM      2  N   UNL     1       2.333   8.548  17.749  0.00  0.00    +0.000 NA
ATOM      3  C   UNL     1       1.698   9.659  18.191  0.00  0.00    +0.000 A 
ATOM      4  C   UNL     1       1.193   9.826  19.484  0.00  0.00    +0.000 A 
ATOM      5  C   UNL     1       0.594  11.033  19.903  0.00  0.00    +0.000 A 
ATOM      6  C   UNL     1       0.122  11.174  21.209  0.00  0.00    +0.000 A 
ATOM      7  C   UNL     1       0.143  10.075  22.066  0.00  0.00    +0.000 A 
ATOM      8  C   UNL     1       0.752   8.885  21.668  0.00  0.00    +0.000 A 
ATOM      9  C   UNL     1       1.314   8.741  20.382  0.00  0.00    +0.000 A 
ATOM     10  C   UNL     1       1.983   7.575  19.947  0.00  0.00    +0.000 A 
ENDROOT
BRANCH   1  12
ATOM     11  O   UNL     1       3.398   5.296  18.706  0.00  0.00    +0.000 OA
ATOM     12  C   UNL     1       3.377   6.401  18.177  0.00  0.00    +0.000 C 
ATOM     13  N   UNL     1       4.233   6.719  17.136  0.00  0.00    +0.000 N 
ATOM     14  H   UNL     1       4.126   7.655  16.739  0.00  0.00    +0.000 HD
BRANCH  13  15
ATOM     15  C   UNL     1       5.125   5.744  16.563  0.00  0.00    +0.000 C 
BRANCH  15  16
ATOM     16  C   UNL     1       6.583   5.984  16.940  0.00  0.00    +0.000 C 
BRANCH  16  17
ATOM     17  C   UNL     1       7.157   5.036  17.994  0.00  0.00    +0.000 C 
BRANCH  17  18
ATOM     18  O   UNL     1       6.211   4.050  18.427  0.00  0.00    +0.000 OA
ATOM     19  H   UNL     1       6.353   3.244  17.890  0.00  0.00    +0.000 HD
ENDBRANCH  17  18
BRANCH  17  20
ATOM     20  C   UNL     1       7.748   5.745  19.217  0.00  0.00    +0.000 C 
ATOM     21  O   UNL     1       7.712   5.334  20.366  0.00  0.00    +0.000 OA
BRANCH  20  22
ATOM     22  O   UNL     1       8.292   6.942  18.870  0.00  0.00    +0.000 OA
ATOM     23  H   UNL     1       9.156   7.039  19.337  0.00  0.00    +0.000 HD
ENDBRANCH  20  22
ENDBRANCH  17  20
ENDBRANCH  16  17
ENDBRANCH  15  16
ENDBRANCH  13  15
ENDBRANCH   1  12
BRANCH  10  24
ATOM     24  O   UNL     1       2.131   6.499  20.778  0.00  0.00    +0.000 OA
ATOM     25  H   UNL     1       3.065   6.356  20.986  0.00  0.00    +0.000 HD
ENDBRANCH  10  24
BRANCH   6  26
ATOM     26  O   UNL     1      -0.365  12.414  21.569  0.00  0.00    +0.000 OA
BRANCH  26  27
ATOM     27  C   UNL     1      -1.720  12.542  21.802  0.00  0.00    +0.000 A 
ATOM     28  C   UNL     1      -2.296  12.451  23.075  0.00  0.00    +0.000 A 
ATOM     29  C   UNL     1      -3.683  12.478  23.218  0.00  0.00    +0.000 A 
ATOM     30  C   UNL     1      -4.493  12.671  22.102  0.00  0.00    +0.000 A 
ATOM     31  C   UNL     1      -3.916  12.854  20.844  0.00  0.00    +0.000 A 
ATOM     32  C   UNL     1      -2.528  12.791  20.693  0.00  0.00    +0.000 A 
ENDBRANCH  26  27
ENDBRANCH   6  26
TORSDOF 10
ENDMDL
MODEL 4
REMARK VINA RESULT:      -7.4      2.073      3.597
REMARK  Name = 
REMARK  10 active torsions:
REMARK  status: ('A' for Active; 'I' for Inactive)
REMARK    1  A    between atoms: C_2  and  C_11
REMARK    2  A    between atoms: N_3  and  C_4
REMARK    3  A    between atoms: C_4  and  C_5
REMARK    4  A    between atoms: C_5  and  C_6
REMARK    5  A    between atoms: C_6  and  O_7
REMARK    6  A    between atoms: C_6  and  C_8
REMARK    7  A    between atoms: C_8  and  O_10
REMARK    8  A    between atoms: C_16  and  O_17
REMARK    9  A    between atoms: O_17  and  C_18
REMARK   10  A    between atoms: C_27  and  O_28
REMARK                            x       y       z     vdW  Elec       q    Type
REMARK                         _______ _______ _______ _____ _____    ______ ____
ROOT
ATOM      1  C   UNL     1       2.562   6.963  18.783  0.00  0.00    +0.000 A 
ATOM      2  N   UNL     1       2.506   7.929  17.822  0.00  0.00    +0.000 NA
ATOM      3  C   UNL     1       1.946   9.109  18.178  0.00  0.00    +0.000 A 
ATOM      4  C   UNL     1       1.415   9.391  19.440  0.00  0.00    +0.000 A 
ATOM      5  C   UNL     1       0.898  10.663  19.768  0.00  0.00    +0.000 A 
ATOM      6  C   UNL     1       0.399  10.917  21.046  0.00  0.00    +0.000 A 
ATOM      7  C   UNL     1       0.309   9.873  21.965  0.00  0.00    +0.000 A 
ATOM      8  C   UNL     1       0.836   8.619  21.658  0.00  0.00    +0.000 A 
ATOM      9  C   UNL     1       1.425   8.356  20.403  0.00  0.00    +0.000 A 
ATOM     10  C   UNL     1       2.015   7.119  20.059  0.00  0.00    +0.000 A 
ENDROOT
BRANCH   1  12
ATOM     11  O   UNL     1       3.048   4.964  17.518  0.00  0.00    +0.000 OA
ATOM     12  C   UNL     1       3.368   5.739  18.410  0.00  0.00    +0.000 C 
ATOM     13  N   UNL     1       4.475   5.504  19.207  0.00  0.00    +0.000 N 
ATOM     14  H   UNL     1       4.682   6.218  19.909  0.00  0.00    +0.000 HD
BRANCH  13  15
ATOM     15  C   UNL     1       5.356   4.388  18.972  0.00  0.00    +0.000 C 
BRANCH  15  16
ATOM     16  C   UNL     1       6.520   4.738  18.051  0.00  0.00    +0.000 C 
BRANCH  16  17
ATOM     17  C   UNL     1       7.645   5.555  18.689  0.00  0.00    +0.000 C 
BRANCH  17  18
ATOM     18  O   UNL     1       7.554   5.602  20.119  0.00  0.00    +0.000 OA
ATOM     19  H   UNL     1       8.443   5.813  20.469  0.00  0.00    +0.000 HD
ENDBRANCH  17  18
BRANCH  17  20
ATOM     20  C   UNL     1       7.771   6.980  18.141  0.00  0.00    +0.000 C 
ATOM     21  O   UNL     1       7.233   7.405  17.131  0.00  0.00    +0.000 OA
BRANCH  20  22
ATOM     22  O   UNL     1       8.612   7.724  18.908  0.00  0.00    +0.000 OA
ATOM     23  H   UNL     1       8.115   8.507  19.246  0.00  0.00    +0.000 HD
ENDBRANCH  20  22
ENDBRANCH  17  20
ENDBRANCH  16  17
ENDBRANCH  15  16
ENDBRANCH  13  15
ENDBRANCH   1  12
BRANCH  10  24
ATOM     24  O   UNL     1       2.054   6.087  20.956  0.00  0.00    +0.000 OA
ATOM     25  H   UNL     1       2.891   6.090  21.442  0.00  0.00    +0.000 HD
ENDBRANCH  10  24
BRANCH   6  26
ATOM     26  O   UNL     1      -0.002  12.209  21.317  0.00  0.00    +0.000 OA
BRANCH  26  27
ATOM     27  C   UNL     1      -1.306  12.418  21.719  0.00  0.00    +0.000 A 
ATOM     28  C   UNL     1      -1.698  12.492  23.060  0.00  0.00    +0.000 A 
ATOM     29  C   UNL     1      -3.049  12.593  23.390  0.00  0.00    +0.000 A 
ATOM     30  C   UNL     1      -4.005  12.696  22.381  0.00  0.00    +0.000 A 
ATOM     31  C   UNL     1      -3.607  12.716  21.043  0.00  0.00    +0.000 A 
ATOM     32  C   UNL     1      -2.257  12.578  20.711  0.00  0.00    +0.000 A 
ENDBRANCH  26  27
ENDBRANCH   6  26
TORSDOF 10
ENDMDL
MODEL 5
REMARK VINA RESULT:      -7.4      1.958      3.372
REMARK  Name = 
REMARK  10 active torsions:
REMARK  status: ('A' for Active; 'I' for Inactive)
REMARK    1  A    between atoms: C_2  and  C_11
REMARK    2  A    between atoms: N_3  and  C_4
REMARK    3  A    between atoms: C_4  and  C_5
REMARK    4  A    between atoms: C_5  and  C_6
REMARK    5  A    between atoms: C_6  and  O_7
REMARK    6  A    between atoms: C_6  and  C_8
REMARK    7  A    between atoms: C_8  and  O_10
REMARK    8  A    between atoms: C_16  and  O_17
REMARK    9  A    between atoms: O_17  and  C_18
REMARK   10  A    between atoms: C_27  and  O_28
REMARK                            x       y       z     vdW  Elec       q    Type
REMARK                         _______ _______ _______ _____ _____    ______ ____
ROOT
ATOM      1  C   UNL     1       2.828   6.738  18.747  0.00  0.00    +0.000 A 
ATOM      2  N   UNL     1       2.818   7.592  17.684  0.00  0.00    +0.000 NA
ATOM      3  C   UNL     1       2.195   8.780  17.863  0.00  0.00    +0.000 A 
ATOM      4  C   UNL     1       1.558   9.176  19.043  0.00  0.00    +0.000 A 
ATOM      5  C   UNL     1       0.978  10.454  19.188  0.00  0.00    +0.000 A 
ATOM      6  C   UNL     1       0.372  10.825  20.389  0.00  0.00    +0.000 A 
ATOM      7  C   UNL     1       0.241   9.883  21.408  0.00  0.00    +0.000 A 
ATOM      8  C   UNL     1       0.830   8.625  21.282  0.00  0.00    +0.000 A 
ATOM      9  C   UNL     1       1.523   8.252  20.112  0.00  0.00    +0.000 A 
ATOM     10  C   UNL     1       2.177   7.010  19.953  0.00  0.00    +0.000 A 
ENDROOT
BRANCH   1  12
ATOM     11  O   UNL     1       4.302   4.976  19.494  0.00  0.00    +0.000 OA
ATOM     12  C   UNL     1       3.699   5.514  18.573  0.00  0.00    +0.000 C 
ATOM     13  N   UNL     1       3.834   5.073  17.268  0.00  0.00    +0.000 N 
ATOM     14  H   UNL     1       3.271   5.565  16.569  0.00  0.00    +0.000 HD
BRANCH  13  15
ATOM     15  C   UNL     1       4.615   3.910  16.937  0.00  0.00    +0.000 C 
BRANCH  15  16
ATOM     16  C   UNL     1       5.946   4.259  16.280  0.00  0.00    +0.000 C 
BRANCH  16  17
ATOM     17  C   UNL     1       7.052   4.722  17.231  0.00  0.00    +0.000 C 
BRANCH  17  18
ATOM     18  O   UNL     1       6.923   4.162  18.545  0.00  0.00    +0.000 OA
ATOM     19  H   UNL     1       6.036   4.399  18.885  0.00  0.00    +0.000 HD
ENDBRANCH  17  18
BRANCH  17  20
ATOM     20  C   UNL     1       7.188   6.244  17.338  0.00  0.00    +0.000 C 
ATOM     21  O   UNL     1       7.894   6.842  18.135  0.00  0.00    +0.000 OA
BRANCH  20  22
ATOM     22  O   UNL     1       6.373   6.869  16.447  0.00  0.00    +0.000 OA
ATOM     23  H   UNL     1       5.542   7.127  16.912  0.00  0.00    +0.000 HD
ENDBRANCH  20  22
ENDBRANCH  17  20
ENDBRANCH  16  17
ENDBRANCH  15  16
ENDBRANCH  13  15
ENDBRANCH   1  12
BRANCH  10  24
ATOM     24  O   UNL     1       2.176   6.082  20.959  0.00  0.00    +0.000 OA
ATOM     25  H   UNL     1       1.270   5.874  21.228  0.00  0.00    +0.000 HD
ENDBRANCH  10  24
BRANCH   6  26
ATOM     26  O   UNL     1      -0.089  12.122  20.484  0.00  0.00    +0.000 OA
BRANCH  26  27
ATOM     27  C   UNL     1      -1.445  12.324  20.647  0.00  0.00    +0.000 A 
ATOM     28  C   UNL     1      -2.038  12.623  21.879  0.00  0.00    +0.000 A 
ATOM     29  C   UNL     1      -3.426  12.702  21.987  0.00  0.00    +0.000 A 
ATOM     30  C   UNL     1      -4.220  12.557  20.852  0.00  0.00    +0.000 A 
ATOM     31  C   UNL     1      -3.626  12.351  19.606  0.00  0.00    +0.000 A 
ATOM     32  C   UNL     1      -2.238  12.235  19.502  0.00  0.00    +0.000 A 
ENDBRANCH  26  27
ENDBRANCH   6  26
TORSDOF 10
ENDMDL
MODEL 6
REMARK VINA RESULT:      -7.3      1.947      3.364
REMARK  Name = 
REMARK  10 active torsions:
REMARK  status: ('A' for Active; 'I' for Inactive)
REMARK    1  A    between atoms: C_2  and  C_11
REMARK    2  A    between atoms: N_3  and  C_4
REMARK    3  A    between atoms: C_4  and  C_5
REMARK    4  A    between atoms: C_5  and  C_6
REMARK    5  A    between atoms: C_6  and  O_7
REMARK    6  A    between atoms: C_6  and  C_8
REMARK    7  A    between atoms: C_8  and  O_10
REMARK    8  A    between atoms: C_16  and  O_17
REMARK    9  A    between atoms: O_17  and  C_18
REMARK   10  A    between atoms: C_27  and  O_28
REMARK                            x       y       z     vdW  Elec       q    Type
REMARK                         _______ _______ _______ _____ _____    ______ ____
ROOT
ATOM      1  C   UNL     1       2.752   6.929  18.780  0.00  0.00    +0.000 A 
ATOM      2  N   UNL     1       2.724   7.720  17.670  0.00  0.00    +0.000 NA
ATOM      3  C   UNL     1       2.075   8.903  17.783  0.00  0.00    +0.000 A 
ATOM      4  C   UNL     1       1.430   9.351  18.940  0.00  0.00    +0.000 A 
ATOM      5  C   UNL     1       0.821  10.622  19.014  0.00  0.00    +0.000 A 
ATOM      6  C   UNL     1       0.207  11.046  20.193  0.00  0.00    +0.000 A 
ATOM      7  C   UNL     1       0.098  10.161  21.264  0.00  0.00    +0.000 A 
ATOM      8  C   UNL     1       0.714   8.911  21.208  0.00  0.00    +0.000 A 
ATOM      9  C   UNL     1       1.415   8.488  20.060  0.00  0.00    +0.000 A 
ATOM     10  C   UNL     1       2.096   7.253  19.970  0.00  0.00    +0.000 A 
ENDROOT
BRANCH   1  12
ATOM     11  O   UNL     1       4.545   5.465  19.471  0.00  0.00    +0.000 OA
ATOM     12  C   UNL     1       3.650   5.715  18.674  0.00  0.00    +0.000 C 
ATOM     13  N   UNL     1       3.439   4.929  17.555  0.00  0.00    +0.000 N 
ATOM     14  H   UNL     1       2.652   5.198  16.960  0.00  0.00    +0.000 HD
BRANCH  13  15
ATOM     15  C   UNL     1       4.200   3.730  17.316  0.00  0.00    +0.000 C 
BRANCH  15  16
ATOM     16  C   UNL     1       5.253   3.904  16.228  0.00  0.00    +0.000 C 
BRANCH  16  17
ATOM     17  C   UNL     1       6.590   4.490  16.689  0.00  0.00    +0.000 C 
BRANCH  17  18
ATOM     18  O   UNL     1       6.875   4.202  18.065  0.00  0.00    +0.000 OA
ATOM     19  H   UNL     1       7.792   4.492  18.246  0.00  0.00    +0.000 HD
ENDBRANCH  17  18
BRANCH  17  20
ATOM     20  C   UNL     1       6.730   5.996  16.445  0.00  0.00    +0.000 C 
ATOM     21  O   UNL     1       7.690   6.682  16.759  0.00  0.00    +0.000 OA
BRANCH  20  22
ATOM     22  O   UNL     1       5.610   6.501  15.862  0.00  0.00    +0.000 OA
ATOM     23  H   UNL     1       5.541   6.133  14.950  0.00  0.00    +0.000 HD
ENDBRANCH  20  22
ENDBRANCH  17  20
ENDBRANCH  16  17
ENDBRANCH  15  16
ENDBRANCH  13  15
ENDBRANCH   1  12
BRANCH  10  24
ATOM     24  O   UNL     1       2.116   6.383  21.026  0.00  0.00    +0.000 OA
ATOM     25  H   UNL     1       1.216   6.112  21.259  0.00  0.00    +0.000 HD
ENDBRANCH  10  24
BRANCH   6  26
ATOM     26  O   UNL     1      -0.282  12.336  20.216  0.00  0.00    +0.000 OA
BRANCH  26  27
ATOM     27  C   UNL     1      -1.093  12.709  21.268  0.00  0.00    +0.000 A 
ATOM     28  C   UNL     1      -0.619  13.343  22.422  0.00  0.00    +0.000 A 
ATOM     29  C   UNL     1      -1.480  13.588  23.491  0.00  0.00    +0.000 A 
ATOM     30  C   UNL     1      -2.832  13.269  23.381  0.00  0.00    +0.000 A 
ATOM     31  C   UNL     1      -3.325  12.722  22.196  0.00  0.00    +0.000 A 
ATOM     32  C   UNL     1      -2.457  12.443  21.137  0.00  0.00    +0.000 A 
ENDBRANCH  26  27
ENDBRANCH   6  26
TORSDOF 10
ENDMDL
MODEL 7
REMARK VINA RESULT:      -7.3      1.919      3.478
REMARK  Name = 
REMARK  10 active torsions:
REMARK  status: ('A' for Active; 'I' for Inactive)
REMARK    1  A    between atoms: C_2  and  C_11
REMARK    2  A    between atoms: N_3  and  C_4
REMARK    3  A    between atoms: C_4  and  C_5
REMARK    4  A    between atoms: C_5  and  C_6
REMARK    5  A    between atoms: C_6  and  O_7
REMARK    6  A    between atoms: C_6  and  C_8
REMARK    7  A    between atoms: C_8  and  O_10
REMARK    8  A    between atoms: C_16  and  O_17
REMARK    9  A    between atoms: O_17  and  C_18
REMARK   10  A    between atoms: C_27  and  O_28
REMARK                            x       y       z     vdW  Elec       q    Type
REMARK                         _______ _______ _______ _____ _____    ______ ____
ROOT
ATOM      1  C   UNL     1       2.331   7.294  18.999  0.00  0.00    +0.000 A 
ATOM      2  N   UNL     1       2.211   8.256  18.040  0.00  0.00    +0.000 NA
ATOM      3  C   UNL     1       1.595   9.405  18.406  0.00  0.00    +0.000 A 
ATOM      4  C   UNL     1       1.070   9.659  19.677  0.00  0.00    +0.000 A 
ATOM      5  C   UNL     1       0.493  10.901  20.015  0.00  0.00    +0.000 A 
ATOM      6  C   UNL     1       0.001  11.128  21.300  0.00  0.00    +0.000 A 
ATOM      7  C   UNL     1      -0.021  10.080  22.219  0.00  0.00    +0.000 A 
ATOM      8  C   UNL     1       0.566   8.855  21.901  0.00  0.00    +0.000 A 
ATOM      9  C   UNL     1       1.148   8.624  20.637  0.00  0.00    +0.000 A 
ATOM     10  C   UNL     1       1.796   7.420  20.283  0.00  0.00    +0.000 A 
ENDROOT
BRANCH   1  12
ATOM     11  O   UNL     1       3.023   5.456  17.592  0.00  0.00    +0.000 OA
ATOM     12  C   UNL     1       3.194   6.114  18.611  0.00  0.00    +0.000 C 
ATOM     13  N   UNL     1       4.163   5.769  19.538  0.00  0.00    +0.000 N 
ATOM     14  H   UNL     1       4.252   6.391  20.345  0.00  0.00    +0.000 HD
BRANCH  13  15
ATOM     15  C   UNL     1       5.077   4.680  19.311  0.00  0.00    +0.000 C 
BRANCH  15  16
ATOM     16  C   UNL     1       6.487   5.151  18.973  0.00  0.00    +0.000 C 
BRANCH  16  17
ATOM     17  C   UNL     1       7.011   4.736  17.597  0.00  0.00    +0.000 C 
BRANCH  17  18
ATOM     18  O   UNL     1       8.281   4.074  17.664  0.00  0.00    +0.000 OA
ATOM     19  H   UNL     1       8.112   3.119  17.798  0.00  0.00    +0.000 HD
ENDBRANCH  17  18
BRANCH  17  20
ATOM     20  C   UNL     1       7.090   5.885  16.586  0.00  0.00    +0.000 C 
ATOM     21  O   UNL     1       6.777   7.045  16.800  0.00  0.00    +0.000 OA
BRANCH  20  22
ATOM     22  O   UNL     1       7.517   5.438  15.375  0.00  0.00    +0.000 OA
ATOM     23  H   UNL     1       7.105   5.996  14.673  0.00  0.00    +0.000 HD
ENDBRANCH  20  22
ENDBRANCH  17  20
ENDBRANCH  16  17
ENDBRANCH  15  16
ENDBRANCH  13  15
ENDBRANCH   1  12
BRANCH  10  24
ATOM     24  O   UNL     1       1.902   6.390  21.177  0.00  0.00    +0.000 OA
ATOM     25  H   UNL     1       1.027   6.040  21.397  0.00  0.00    +0.000 HD
ENDBRANCH  10  24
BRANCH   6  26
ATOM     26  O   UNL     1      -0.463  12.397  21.579  0.00  0.00    +0.000 OA
BRANCH  26  27
ATOM     27  C   UNL     1      -1.814  12.565  21.809  0.00  0.00    +0.000 A 
ATOM     28  C   UNL     1      -2.385  12.570  23.086  0.00  0.00    +0.000 A 
ATOM     29  C   UNL     1      -3.771  12.632  23.233  0.00  0.00    +0.000 A 
ATOM     30  C   UNL     1      -4.583  12.763  22.109  0.00  0.00    +0.000 A 
ATOM     31  C   UNL     1      -4.009  12.851  20.840  0.00  0.00    +0.000 A 
ATOM     32  C   UNL     1      -2.624  12.753  20.688  0.00  0.00    +0.000 A 
ENDBRANCH  26  27
ENDBRANCH   6  26
TORSDOF 10
ENDMDL
MODEL 8
REMARK VINA RESULT:      -7.2      2.078      3.048
REMARK  Name = 
REMARK  10 active torsions:
REMARK  status: ('A' for Active; 'I' for Inactive)
REMARK    1  A    between atoms: C_2  and  C_11
REMARK    2  A    between atoms: N_3  and  C_4
REMARK    3  A    between atoms: C_4  and  C_5
REMARK    4  A    between atoms: C_5  and  C_6
REMARK    5  A    between atoms: C_6  and  O_7
REMARK    6  A    between atoms: C_6  and  C_8
REMARK    7  A    between atoms: C_8  and  O_10
REMARK    8  A    between atoms: C_16  and  O_17
REMARK    9  A    between atoms: O_17  and  C_18
REMARK   10  A    between atoms: C_27  and  O_28
REMARK                            x       y       z     vdW  Elec       q    Type
REMARK                         _______ _______ _______ _____ _____    ______ ____
ROOT
ATOM      1  C   UNL     1       2.676   6.731  18.915  0.00  0.00    +0.000 A 
ATOM      2  N   UNL     1       2.704   7.457  17.761  0.00  0.00    +0.000 NA
ATOM      3  C   UNL     1       2.149   8.691  17.805  0.00  0.00    +0.000 A 
ATOM      4  C   UNL     1       1.545   9.254  18.934  0.00  0.00    +0.000 A 
ATOM      5  C   UNL     1       1.037  10.571  18.933  0.00  0.00    +0.000 A 
ATOM      6  C   UNL     1       0.463  11.109  20.085  0.00  0.00    +0.000 A 
ATOM      7  C   UNL     1       0.289  10.298  21.206  0.00  0.00    +0.000 A 
ATOM      8  C   UNL     1       0.807   9.003  21.222  0.00  0.00    +0.000 A 
ATOM      9  C   UNL     1       1.468   8.461  20.101  0.00  0.00    +0.000 A 
ATOM     10  C   UNL     1       2.051   7.174  20.083  0.00  0.00    +0.000 A 
ENDROOT
BRANCH   1  12
ATOM     11  O   UNL     1       4.570   5.319  19.414  0.00  0.00    +0.000 OA
ATOM     12  C   UNL     1       3.476   5.448  18.880  0.00  0.00    +0.000 C 
ATOM     13  N   UNL     1       2.915   4.431  18.127  0.00  0.00    +0.000 N 
ATOM     14  H   UNL     1       1.987   4.618  17.742  0.00  0.00    +0.000 HD
BRANCH  13  15
ATOM     15  C   UNL     1       3.545   3.141  18.008  0.00  0.00    +0.000 C 
BRANCH  15  16
ATOM     16  C   UNL     1       3.206   2.208  19.165  0.00  0.00    +0.000 C 
BRANCH  16  17
ATOM     17  C   UNL     1       1.719   2.081  19.499  0.00  0.00    +0.000 C 
BRANCH  17  18
ATOM     18  O   UNL     1       0.872   2.418  18.393  0.00  0.00    +0.000 OA
ATOM     19  H   UNL     1       0.925   1.688  17.743  0.00  0.00    +0.000 HD
ENDBRANCH  17  18
BRANCH  17  20
ATOM     20  C   UNL     1       1.284   2.878  20.733  0.00  0.00    +0.000 C 
ATOM     21  O   UNL     1       1.508   2.573  21.894  0.00  0.00    +0.000 OA
BRANCH  20  22
ATOM     22  O   UNL     1       0.561   3.972  20.376  0.00  0.00    +0.000 OA
ATOM     23  H   UNL     1      -0.396   3.731  20.385  0.00  0.00    +0.000 HD
ENDBRANCH  20  22
ENDBRANCH  17  20
ENDBRANCH  16  17
ENDBRANCH  15  16
ENDBRANCH  13  15
ENDBRANCH   1  12
BRANCH  10  24
ATOM     24  O   UNL     1       2.008   6.368  21.188  0.00  0.00    +0.000 OA
ATOM     25  H   UNL     1       2.810   6.477  21.719  0.00  0.00    +0.000 HD
ENDBRANCH  10  24
BRANCH   6  26
ATOM     26  O   UNL     1       0.075  12.432  20.033  0.00  0.00    +0.000 OA
BRANCH  26  27
ATOM     27  C   UNL     1       1.048  13.391  19.833  0.00  0.00    +0.000 A 
ATOM     28  C   UNL     1       1.000  14.336  18.801  0.00  0.00    +0.000 A 
ATOM     29  C   UNL     1       2.073  15.201  18.593  0.00  0.00    +0.000 A 
ATOM     30  C   UNL     1       3.163  15.175  19.460  0.00  0.00    +0.000 A 
ATOM     31  C   UNL     1       3.172  14.297  20.545  0.00  0.00    +0.000 A 
ATOM     32  C   UNL     1       2.113  13.405  20.733  0.00  0.00    +0.000 A 
ENDBRANCH  26  27
ENDBRANCH   6  26
TORSDOF 10
ENDMDL
MODEL 9
REMARK VINA RESULT:      -7.2      2.208      3.153
REMARK  Name = 
REMARK  10 active torsions:
REMARK  status: ('A' for Active; 'I' for Inactive)
REMARK    1  A    between atoms: C_2  and  C_11
REMARK    2  A    between atoms: N_3  and  C_4
REMARK    3  A    between atoms: C_4  and  C_5
REMARK    4  A    between atoms: C_5  and  C_6
REMARK    5  A    between atoms: C_6  and  O_7
REMARK    6  A    between atoms: C_6  and  C_8
REMARK    7  A    between atoms: C_8  and  O_10
REMARK    8  A    between atoms: C_16  and  O_17
REMARK    9  A    between atoms: O_17  and  C_18
REMARK   10  A    between atoms: C_27  and  O_28
REMARK                            x       y       z     vdW  Elec       q    Type
REMARK                         _______ _______ _______ _____ _____    ______ ____
ROOT
ATOM      1  C   UNL     1       2.300   7.785  18.758  0.00  0.00    +0.000 A 
ATOM      2  N   UNL     1       2.043   8.850  17.946  0.00  0.00    +0.000 NA
ATOM      3  C   UNL     1       1.373   9.889  18.498  0.00  0.00    +0.000 A 
ATOM      4  C   UNL     1       0.924   9.934  19.821  0.00  0.00    +0.000 A 
ATOM      5  C   UNL     1       0.283  11.073  20.356  0.00  0.00    +0.000 A 
ATOM      6  C   UNL     1      -0.131  11.092  21.688  0.00  0.00    +0.000 A 
ATOM      7  C   UNL     1      -0.012   9.937  22.458  0.00  0.00    +0.000 A 
ATOM      8  C   UNL     1       0.638   8.815  21.945  0.00  0.00    +0.000 A 
ATOM      9  C   UNL     1       1.144   8.795  20.629  0.00  0.00    +0.000 A 
ATOM     10  C   UNL     1       1.851   7.703  20.079  0.00  0.00    +0.000 A 
ENDROOT
BRANCH   1  12
ATOM     11  O   UNL     1       3.213   5.563  18.510  0.00  0.00    +0.000 OA
ATOM     12  C   UNL     1       3.217   6.738  18.165  0.00  0.00    +0.000 C 
ATOM     13  N   UNL     1       4.130   7.216  17.242  0.00  0.00    +0.000 N 
ATOM     14  H   UNL     1       4.041   8.205  16.994  0.00  0.00    +0.000 HD
BRANCH  13  15
ATOM     15  C   UNL     1       5.061   6.344  16.574  0.00  0.00    +0.000 C 
BRANCH  15  16
ATOM     16  C   UNL     1       6.490   6.504  17.081  0.00  0.00    +0.000 C 
BRANCH  16  17
ATOM     17  C   UNL     1       7.122   5.248  17.684  0.00  0.00    +0.000 C 
BRANCH  17  18
ATOM     18  O   UNL     1       6.776   4.055  16.968  0.00  0.00    +0.000 OA
ATOM     19  H   UNL     1       6.777   4.269  16.013  0.00  0.00    +0.000 HD
ENDBRANCH  17  18
BRANCH  17  20
ATOM     20  C   UNL     1       6.823   5.052  19.174  0.00  0.00    +0.000 C 
ATOM     21  O   UNL     1       7.480   5.505  20.098  0.00  0.00    +0.000 OA
BRANCH  20  22
ATOM     22  O   UNL     1       5.737   4.253  19.351  0.00  0.00    +0.000 OA
ATOM     23  H   UNL     1       6.026   3.432  19.816  0.00  0.00    +0.000 HD
ENDBRANCH  20  22
ENDBRANCH  17  20
ENDBRANCH  16  17
ENDBRANCH  15  16
ENDBRANCH  13  15
ENDBRANCH   1  12
BRANCH  10  24
ATOM     24  O   UNL     1       2.094   6.579  20.820  0.00  0.00    +0.000 OA
ATOM     25  H   UNL     1       1.788   5.790  20.350  0.00  0.00    +0.000 HD
ENDBRANCH  10  24
BRANCH   6  26
ATOM     26  O   UNL     1      -0.664  12.274  22.161  0.00  0.00    +0.000 OA
BRANCH  26  27
ATOM     27  C   UNL     1      -2.035  12.428  22.139  0.00  0.00    +0.000 A 
ATOM     28  C   UNL     1      -2.771  12.631  20.966  0.00  0.00    +0.000 A 
ATOM     29  C   UNL     1      -4.140  12.890  21.034  0.00  0.00    +0.000 A 
ATOM     30  C   UNL     1      -4.789  12.874  22.267  0.00  0.00    +0.000 A 
ATOM     31  C   UNL     1      -4.074  12.580  23.429  0.00  0.00    +0.000 A 
ATOM     32  C   UNL     1      -2.696  12.355  23.366  0.00  0.00    +0.000 A 
ENDBRANCH  26  27
ENDBRANCH   6  26
TORSDOF 10
ENDMDL
