MODEL 1
REMARK VINA RESULT:      -6.6      0.000      0.000
REMARK  Name = 
REMARK  8 active torsions:
REMARK  status: ('A' for Active; 'I' for Inactive)
REMARK    1  A    between atoms: C_1  and  N_2
REMARK    2  A    between atoms: N_2  and  C_3
REMARK    3  A    between atoms: C_4  and  C_6
REMARK    4  A    between atoms: C_9  and  O_10
REMARK    5  A    between atoms: O_10  and  C_11
REMARK    6  A    between atoms: C_11  and  C_12
REMARK    7  A    between atoms: C_12  and  C_15
REMARK    8  A    between atoms: C_15  and  N_16
REMARK                            x       y       z     vdW  Elec       q    Type
REMARK                         _______ _______ _______ _____ _____    ______ ____
ROOT
ATOM      1  C   UNL     1       5.617   5.494  17.294  0.00  0.00    +0.000 A 
ATOM      2  C   UNL     1       5.834   4.532  18.279  0.00  0.00    +0.000 A 
ATOM      3  C   UNL     1       4.920   4.346  19.304  0.00  0.00    +0.000 A 
ATOM      4  C   UNL     1       3.845   5.220  19.453  0.00  0.00    +0.000 A 
ATOM      5  C   UNL     1       3.633   6.218  18.501  0.00  0.00    +0.000 A 
ATOM      6  C   UNL     1       4.518   6.352  17.420  0.00  0.00    +0.000 A 
ENDROOT
BRANCH   1  10
ATOM      7  C   UNL     1       7.413   5.076  13.952  0.00  0.00    +0.000 C 
ATOM      8  N   UNL     1       6.388   4.941  14.975  0.00  0.00    +0.000 N 
ATOM      9  C   UNL     1       5.167   4.241  14.588  0.00  0.00    +0.000 C 
ATOM     10  C   UNL     1       6.579   5.651  16.165  0.00  0.00    +0.000 C 
ATOM     11  O   UNL     1       7.533   6.421  16.332  0.00  0.00    +0.000 OA
ENDBRANCH   1  10
BRANCH   4  12
ATOM     12  O   UNL     1       2.991   5.183  20.529  0.00  0.00    +0.000 OA
BRANCH  12  13
ATOM     13  C   UNL     1       1.615   5.020  20.160  0.00  0.00    +0.000 C 
BRANCH  13  14
ATOM     14  C   UNL     1       1.275   3.562  20.092  0.00  0.00    +0.000 C 
ATOM     15  C   UNL     1       0.984   3.006  18.914  0.00  0.00    +0.000 C 
ATOM     16  F   UNL     1       0.682   1.702  18.780  0.00  0.00    +0.000 F 
BRANCH  14  17
ATOM     17  C   UNL     1       1.300   2.793  21.378  0.00  0.00    +0.000 C 
BRANCH  17  18
ATOM     18  N   UNL     1       2.659   2.569  21.858  0.00  0.00    +0.000 NA
ATOM     19  H   UNL     1       2.651   2.431  22.866  0.00  0.00    +0.000 HD
ATOM     20  H   UNL     1       3.188   3.429  21.719  0.00  0.00    +0.000 HD
ENDBRANCH  17  18
ENDBRANCH  14  17
ENDBRANCH  13  14
ENDBRANCH  12  13
ENDBRANCH   4  12
TORSDOF 6
ENDMDL
MODEL 2
REMARK VINA RESULT:      -6.6      1.800      2.169
REMARK  Name = 
REMARK  8 active torsions:
REMARK  status: ('A' for Active; 'I' for Inactive)
REMARK    1  A    between atoms: C_1  and  N_2
REMARK    2  A    between atoms: N_2  and  C_3
REMARK    3  A    between atoms: C_4  and  C_6
REMARK    4  A    between atoms: C_9  and  O_10
REMARK    5  A    between atoms: O_10  and  C_11
REMARK    6  A    between atoms: C_11  and  C_12
REMARK    7  A    between atoms: C_12  and  C_15
REMARK    8  A    between atoms: C_15  and  N_16
REMARK                            x       y       z     vdW  Elec       q    Type
REMARK                         _______ _______ _______ _____ _____    ______ ____
ROOT
ATOM      1  C   UNL     1       5.772   4.871  15.417  0.00  0.00    +0.000 A 
ATOM      2  C   UNL     1       5.460   3.731  16.155  0.00  0.00    +0.000 A 
ATOM      3  C   UNL     1       4.564   3.791  17.211  0.00  0.00    +0.000 A 
ATOM      4  C   UNL     1       4.077   5.021  17.648  0.00  0.00    +0.000 A 
ATOM      5  C   UNL     1       4.410   6.181  16.948  0.00  0.00    +0.000 A 
ATOM      6  C   UNL     1       5.255   6.105  15.830  0.00  0.00    +0.000 A 
ENDROOT
BRANCH   1  10
ATOM      7  C   UNL     1       7.308   3.957  12.045  0.00  0.00    +0.000 C 
ATOM      8  N   UNL     1       6.323   4.070  13.107  0.00  0.00    +0.000 N 
ATOM      9  C   UNL     1       4.975   3.597  12.802  0.00  0.00    +0.000 C 
ATOM     10  C   UNL     1       6.695   4.787  14.249  0.00  0.00    +0.000 C 
ATOM     11  O   UNL     1       7.784   5.368  14.340  0.00  0.00    +0.000 OA
ENDBRANCH   1  10
BRANCH   4  12
ATOM     12  O   UNL     1       3.307   5.164  18.777  0.00  0.00    +0.000 OA
BRANCH  12  13
ATOM     13  C   UNL     1       1.909   4.938  18.548  0.00  0.00    +0.000 C 
BRANCH  13  14
ATOM     14  C   UNL     1       1.438   3.781  19.376  0.00  0.00    +0.000 C 
ATOM     15  C   UNL     1       1.369   3.903  20.704  0.00  0.00    +0.000 C 
ATOM     16  F   UNL     1       0.943   2.911  21.505  0.00  0.00    +0.000 F 
BRANCH  14  17
ATOM     17  C   UNL     1       1.045   2.532  18.647  0.00  0.00    +0.000 C 
BRANCH  17  18
ATOM     18  N   UNL     1       2.103   1.528  18.665  0.00  0.00    +0.000 NA
ATOM     19  H   UNL     1       2.309   1.260  19.625  0.00  0.00    +0.000 HD
ATOM     20  H   UNL     1       2.960   1.968  18.329  0.00  0.00    +0.000 HD
ENDBRANCH  17  18
ENDBRANCH  14  17
ENDBRANCH  13  14
ENDBRANCH  12  13
ENDBRANCH   4  12
TORSDOF 6
ENDMDL
MODEL 3
REMARK VINA RESULT:      -6.6      1.828      2.434
REMARK  Name = 
REMARK  8 active torsions:
REMARK  status: ('A' for Active; 'I' for Inactive)
REMARK    1  A    between atoms: C_1  and  N_2
REMARK    2  A    between atoms: N_2  and  C_3
REMARK    3  A    between atoms: C_4  and  C_6
REMARK    4  A    between atoms: C_9  and  O_10
REMARK    5  A    between atoms: O_10  and  C_11
REMARK    6  A    between atoms: C_11  and  C_12
REMARK    7  A    between atoms: C_12  and  C_15
REMARK    8  A    between atoms: C_15  and  N_16
REMARK                            x       y       z     vdW  Elec       q    Type
REMARK                         _______ _______ _______ _____ _____    ______ ____
ROOT
ATOM      1  C   UNL     1       5.803   4.945  15.402  0.00  0.00    +0.000 A 
ATOM      2  C   UNL     1       5.270   6.186  15.748  0.00  0.00    +0.000 A 
ATOM      3  C   UNL     1       4.461   6.326  16.864  0.00  0.00    +0.000 A 
ATOM      4  C   UNL     1       4.045   5.202  17.575  0.00  0.00    +0.000 A 
ATOM      5  C   UNL     1       4.535   3.944  17.219  0.00  0.00    +0.000 A 
ATOM      6  C   UNL     1       5.417   3.817  16.135  0.00  0.00    +0.000 A 
ENDROOT
BRANCH   1  10
ATOM      7  C   UNL     1       7.301   3.905  12.049  0.00  0.00    +0.000 C 
ATOM      8  N   UNL     1       6.326   4.061  13.117  0.00  0.00    +0.000 N 
ATOM      9  C   UNL     1       4.973   3.588  12.840  0.00  0.00    +0.000 C 
ATOM     10  C   UNL     1       6.715   4.814  14.230  0.00  0.00    +0.000 C 
ATOM     11  O   UNL     1       7.809   5.390  14.291  0.00  0.00    +0.000 OA
ENDBRANCH   1  10
BRANCH   4  12
ATOM     12  O   UNL     1       3.128   5.257  18.596  0.00  0.00    +0.000 OA
BRANCH  12  13
ATOM     13  C   UNL     1       1.832   4.763  18.227  0.00  0.00    +0.000 C 
BRANCH  13  14
ATOM     14  C   UNL     1       1.390   3.713  19.200  0.00  0.00    +0.000 C 
ATOM     15  C   UNL     1       1.297   4.012  20.497  0.00  0.00    +0.000 C 
ATOM     16  F   UNL     1       0.895   3.122  21.422  0.00  0.00    +0.000 F 
BRANCH  14  17
ATOM     17  C   UNL     1       1.054   2.363  18.644  0.00  0.00    +0.000 C 
BRANCH  17  18
ATOM     18  N   UNL     1       2.206   1.467  18.638  0.00  0.00    +0.000 NA
ATOM     19  H   UNL     1       2.957   1.875  18.087  0.00  0.00    +0.000 HD
ATOM     20  H   UNL     1       1.944   0.620  18.135  0.00  0.00    +0.000 HD
ENDBRANCH  17  18
ENDBRANCH  14  17
ENDBRANCH  13  14
ENDBRANCH  12  13
ENDBRANCH   4  12
TORSDOF 6
ENDMDL
MODEL 4
REMARK VINA RESULT:      -6.6      1.459      2.068
REMARK  Name = 
REMARK  8 active torsions:
REMARK  status: ('A' for Active; 'I' for Inactive)
REMARK    1  A    between atoms: C_1  and  N_2
REMARK    2  A    between atoms: N_2  and  C_3
REMARK    3  A    between atoms: C_4  and  C_6
REMARK    4  A    between atoms: C_9  and  O_10
REMARK    5  A    between atoms: O_10  and  C_11
REMARK    6  A    between atoms: C_11  and  C_12
REMARK    7  A    between atoms: C_12  and  C_15
REMARK    8  A    between atoms: C_15  and  N_16
REMARK                            x       y       z     vdW  Elec       q    Type
REMARK                         _______ _______ _______ _____ _____    ______ ____
ROOT
ATOM      1  C   UNL     1       5.855   4.919  15.412  0.00  0.00    +0.000 A 
ATOM      2  C   UNL     1       5.267   6.134  15.759  0.00  0.00    +0.000 A 
ATOM      3  C   UNL     1       4.475   6.242  16.891  0.00  0.00    +0.000 A 
ATOM      4  C   UNL     1       4.130   5.105  17.618  0.00  0.00    +0.000 A 
ATOM      5  C   UNL     1       4.675   3.871  17.263  0.00  0.00    +0.000 A 
ATOM      6  C   UNL     1       5.540   3.779  16.161  0.00  0.00    +0.000 A 
ENDROOT
BRANCH   1  10
ATOM      7  C   UNL     1       7.311   3.959  12.017  0.00  0.00    +0.000 C 
ATOM      8  N   UNL     1       6.353   4.081  13.103  0.00  0.00    +0.000 N 
ATOM      9  C   UNL     1       5.003   3.587  12.843  0.00  0.00    +0.000 C 
ATOM     10  C   UNL     1       6.748   4.823  14.222  0.00  0.00    +0.000 C 
ATOM     11  O   UNL     1       7.831   5.417  14.273  0.00  0.00    +0.000 OA
ENDBRANCH   1  10
BRANCH   4  12
ATOM     12  O   UNL     1       3.233   5.123  18.658  0.00  0.00    +0.000 OA
BRANCH  12  13
ATOM     13  C   UNL     1       3.301   3.958  19.492  0.00  0.00    +0.000 C 
BRANCH  13  14
ATOM     14  C   UNL     1       1.938   3.351  19.632  0.00  0.00    +0.000 C 
ATOM     15  C   UNL     1       1.392   2.708  18.598  0.00  0.00    +0.000 C 
ATOM     16  F   UNL     1       0.179   2.130  18.659  0.00  0.00    +0.000 F 
BRANCH  14  17
ATOM     17  C   UNL     1       1.261   3.488  20.962  0.00  0.00    +0.000 C 
BRANCH  17  18
ATOM     18  N   UNL     1       1.877   2.646  21.982  0.00  0.00    +0.000 NA
ATOM     19  H   UNL     1       2.756   2.271  21.635  0.00  0.00    +0.000 HD
ATOM     20  H   UNL     1       1.281   1.829  22.117  0.00  0.00    +0.000 HD
ENDBRANCH  17  18
ENDBRANCH  14  17
ENDBRANCH  13  14
ENDBRANCH  12  13
ENDBRANCH   4  12
TORSDOF 6
ENDMDL
MODEL 5
REMARK VINA RESULT:      -6.6      0.128      1.141
REMARK  Name = 
REMARK  8 active torsions:
REMARK  status: ('A' for Active; 'I' for Inactive)
REMARK    1  A    between atoms: C_1  and  N_2
REMARK    2  A    between atoms: N_2  and  C_3
REMARK    3  A    between atoms: C_4  and  C_6
REMARK    4  A    between atoms: C_9  and  O_10
REMARK    5  A    between atoms: O_10  and  C_11
REMARK    6  A    between atoms: C_11  and  C_12
REMARK    7  A    between atoms: C_12  and  C_15
REMARK    8  A    between atoms: C_15  and  N_16
REMARK                            x       y       z     vdW  Elec       q    Type
REMARK                         _______ _______ _______ _____ _____    ______ ____
ROOT
ATOM      1  C   UNL     1       5.623   5.623  17.370  0.00  0.00    +0.000 A 
ATOM      2  C   UNL     1       4.495   6.439  17.437  0.00  0.00    +0.000 A 
ATOM      3  C   UNL     1       3.642   6.383  18.528  0.00  0.00    +0.000 A 
ATOM      4  C   UNL     1       3.814   5.405  19.504  0.00  0.00    +0.000 A 
ATOM      5  C   UNL     1       4.915   4.550  19.434  0.00  0.00    +0.000 A 
ATOM      6  C   UNL     1       5.820   4.662  18.368  0.00  0.00    +0.000 A 
ENDROOT
BRANCH   1  10
ATOM      7  C   UNL     1       7.361   5.045  14.021  0.00  0.00    +0.000 C 
ATOM      8  N   UNL     1       6.355   4.958  15.067  0.00  0.00    +0.000 N 
ATOM      9  C   UNL     1       5.131   4.234  14.738  0.00  0.00    +0.000 C 
ATOM     10  C   UNL     1       6.564   5.727  16.217  0.00  0.00    +0.000 C 
ATOM     11  O   UNL     1       7.517   6.507  16.329  0.00  0.00    +0.000 OA
ENDBRANCH   1  10
BRANCH   4  12
ATOM     12  O   UNL     1       2.921   5.201  20.528  0.00  0.00    +0.000 OA
BRANCH  12  13
ATOM     13  C   UNL     1       1.574   4.999  20.079  0.00  0.00    +0.000 C 
BRANCH  13  14
ATOM     14  C   UNL     1       1.269   3.533  20.027  0.00  0.00    +0.000 C 
ATOM     15  C   UNL     1       1.034   2.948  18.850  0.00  0.00    +0.000 C 
ATOM     16  F   UNL     1       0.767   1.635  18.730  0.00  0.00    +0.000 F 
BRANCH  14  17
ATOM     17  C   UNL     1       1.263   2.788  21.327  0.00  0.00    +0.000 C 
BRANCH  17  18
ATOM     18  N   UNL     1       2.605   2.642  21.883  0.00  0.00    +0.000 NA
ATOM     19  H   UNL     1       2.774   1.668  22.124  0.00  0.00    +0.000 HD
ATOM     20  H   UNL     1       2.632   3.139  22.773  0.00  0.00    +0.000 HD
ENDBRANCH  17  18
ENDBRANCH  14  17
ENDBRANCH  13  14
ENDBRANCH  12  13
ENDBRANCH   4  12
TORSDOF 6
ENDMDL
MODEL 6
REMARK VINA RESULT:      -6.6      3.291      6.509
REMARK  Name = 
REMARK  8 active torsions:
REMARK  status: ('A' for Active; 'I' for Inactive)
REMARK    1  A    between atoms: C_1  and  N_2
REMARK    2  A    between atoms: N_2  and  C_3
REMARK    3  A    between atoms: C_4  and  C_6
REMARK    4  A    between atoms: C_9  and  O_10
REMARK    5  A    between atoms: O_10  and  C_11
REMARK    6  A    between atoms: C_11  and  C_12
REMARK    7  A    between atoms: C_12  and  C_15
REMARK    8  A    between atoms: C_15  and  N_16
REMARK                            x       y       z     vdW  Elec       q    Type
REMARK                         _______ _______ _______ _____ _____    ______ ____
ROOT
ATOM      1  C   UNL     1       2.749   4.731  17.982  0.00  0.00    +0.000 A 
ATOM      2  C   UNL     1       2.755   6.121  18.098  0.00  0.00    +0.000 A 
ATOM      3  C   UNL     1       3.711   6.884  17.446  0.00  0.00    +0.000 A 
ATOM      4  C   UNL     1       4.772   6.267  16.787  0.00  0.00    +0.000 A 
ATOM      5  C   UNL     1       4.807   4.874  16.695  0.00  0.00    +0.000 A 
ATOM      6  C   UNL     1       3.793   4.108  17.290  0.00  0.00    +0.000 A 
ENDROOT
BRANCH   1  10
ATOM      7  C   UNL     1       0.699   2.842  20.589  0.00  0.00    +0.000 C 
ATOM      8  N   UNL     1       1.718   3.713  20.026  0.00  0.00    +0.000 N 
ATOM      9  C   UNL     1       2.553   4.442  20.978  0.00  0.00    +0.000 C 
ATOM     10  C   UNL     1       1.685   3.922  18.643  0.00  0.00    +0.000 C 
ATOM     11  O   UNL     1       0.795   3.454  17.924  0.00  0.00    +0.000 OA
ENDBRANCH   1  10
BRANCH   4  12
ATOM     12  O   UNL     1       5.828   6.962  16.251  0.00  0.00    +0.000 OA
BRANCH  12  13
ATOM     13  C   UNL     1       7.104   6.372  16.537  0.00  0.00    +0.000 C 
BRANCH  13  14
ATOM     14  C   UNL     1       7.697   7.006  17.758  0.00  0.00    +0.000 C 
ATOM     15  C   UNL     1       8.025   8.300  17.737  0.00  0.00    +0.000 C 
ATOM     16  F   UNL     1       8.548   8.935  18.801  0.00  0.00    +0.000 F 
BRANCH  14  17
ATOM     17  C   UNL     1       7.873   6.135  18.965  0.00  0.00    +0.000 C 
BRANCH  17  18
ATOM     18  N   UNL     1       7.831   4.716  18.630  0.00  0.00    +0.000 NA
ATOM     19  H   UNL     1       7.602   4.600  17.645  0.00  0.00    +0.000 HD
ATOM     20  H   UNL     1       7.046   4.297  19.129  0.00  0.00    +0.000 HD
ENDBRANCH  17  18
ENDBRANCH  14  17
ENDBRANCH  13  14
ENDBRANCH  12  13
ENDBRANCH   4  12
TORSDOF 6
ENDMDL
MODEL 7
REMARK VINA RESULT:      -6.5      1.805      2.534
REMARK  Name = 
REMARK  8 active torsions:
REMARK  status: ('A' for Active; 'I' for Inactive)
REMARK    1  A    between atoms: C_1  and  N_2
REMARK    2  A    between atoms: N_2  and  C_3
REMARK    3  A    between atoms: C_4  and  C_6
REMARK    4  A    between atoms: C_9  and  O_10
REMARK    5  A    between atoms: O_10  and  C_11
REMARK    6  A    between atoms: C_11  and  C_12
REMARK    7  A    between atoms: C_12  and  C_15
REMARK    8  A    between atoms: C_15  and  N_16
REMARK                            x       y       z     vdW  Elec       q    Type
REMARK                         _______ _______ _______ _____ _____    ______ ____
ROOT
ATOM      1  C   UNL     1       6.577   5.150  15.639  0.00  0.00    +0.000 A 
ATOM      2  C   UNL     1       5.357   5.795  15.835  0.00  0.00    +0.000 A 
ATOM      3  C   UNL     1       4.836   5.956  17.109  0.00  0.00    +0.000 A 
ATOM      4  C   UNL     1       5.447   5.343  18.200  0.00  0.00    +0.000 A 
ATOM      5  C   UNL     1       6.648   4.656  18.019  0.00  0.00    +0.000 A 
ATOM      6  C   UNL     1       7.214   4.563  16.738  0.00  0.00    +0.000 A 
ENDROOT
BRANCH   1  10
ATOM      7  C   UNL     1       7.227   4.053  12.041  0.00  0.00    +0.000 C 
ATOM      8  N   UNL     1       6.557   4.189  13.324  0.00  0.00    +0.000 N 
ATOM      9  C   UNL     1       5.226   3.599  13.433  0.00  0.00    +0.000 C 
ATOM     10  C   UNL     1       7.157   5.028  14.270  0.00  0.00    +0.000 C 
ATOM     11  O   UNL     1       8.172   5.689  14.021  0.00  0.00    +0.000 OA
ENDBRANCH   1  10
BRANCH   4  12
ATOM     12  O   UNL     1       4.901   5.339  19.461  0.00  0.00    +0.000 OA
BRANCH  12  13
ATOM     13  C   UNL     1       3.469   5.252  19.463  0.00  0.00    +0.000 C 
BRANCH  13  14
ATOM     14  C   UNL     1       3.036   3.992  20.150  0.00  0.00    +0.000 C 
ATOM     15  C   UNL     1       2.272   4.065  21.243  0.00  0.00    +0.000 C 
ATOM     16  F   UNL     1       1.837   2.976  21.900  0.00  0.00    +0.000 F 
BRANCH  14  17
ATOM     17  C   UNL     1       3.480   2.695  19.545  0.00  0.00    +0.000 C 
BRANCH  17  18
ATOM     18  N   UNL     1       4.818   2.313  19.985  0.00  0.00    +0.000 NA
ATOM     19  H   UNL     1       5.338   1.920  19.203  0.00  0.00    +0.000 HD
ATOM     20  H   UNL     1       4.724   1.544  20.647  0.00  0.00    +0.000 HD
ENDBRANCH  17  18
ENDBRANCH  14  17
ENDBRANCH  13  14
ENDBRANCH  12  13
ENDBRANCH   4  12
TORSDOF 6
ENDMDL
MODEL 8
REMARK VINA RESULT:      -6.4      2.347      2.902
REMARK  Name = 
REMARK  8 active torsions:
REMARK  status: ('A' for Active; 'I' for Inactive)
REMARK    1  A    between atoms: C_1  and  N_2
REMARK    2  A    between atoms: N_2  and  C_3
REMARK    3  A    between atoms: C_4  and  C_6
REMARK    4  A    between atoms: C_9  and  O_10
REMARK    5  A    between atoms: O_10  and  C_11
REMARK    6  A    between atoms: C_11  and  C_12
REMARK    7  A    between atoms: C_12  and  C_15
REMARK    8  A    between atoms: C_15  and  N_16
REMARK                            x       y       z     vdW  Elec       q    Type
REMARK                         _______ _______ _______ _____ _____    ______ ____
ROOT
ATOM      1  C   UNL     1       4.560   5.654  17.108  0.00  0.00    +0.000 A 
ATOM      2  C   UNL     1       4.673   4.328  16.691  0.00  0.00    +0.000 A 
ATOM      3  C   UNL     1       3.634   3.432  16.884  0.00  0.00    +0.000 A 
ATOM      4  C   UNL     1       2.519   3.801  17.634  0.00  0.00    +0.000 A 
ATOM      5  C   UNL     1       2.405   5.112  18.097  0.00  0.00    +0.000 A 
ATOM      6  C   UNL     1       3.425   6.039  17.831  0.00  0.00    +0.000 A 
ENDROOT
BRANCH   1  10
ATOM      7  C   UNL     1       7.710   7.776  17.484  0.00  0.00    +0.000 C 
ATOM      8  N   UNL     1       6.719   6.748  17.757  0.00  0.00    +0.000 N 
ATOM      9  C   UNL     1       7.026   5.815  18.838  0.00  0.00    +0.000 C 
ATOM     10  C   UNL     1       5.662   6.624  16.849  0.00  0.00    +0.000 C 
ATOM     11  O   UNL     1       5.594   7.301  15.816  0.00  0.00    +0.000 OA
ENDBRANCH   1  10
BRANCH   4  12
ATOM     12  O   UNL     1       1.527   2.918  17.987  0.00  0.00    +0.000 OA
BRANCH  12  13
ATOM     13  C   UNL     1       1.982   1.860  18.842  0.00  0.00    +0.000 C 
BRANCH  13  14
ATOM     14  C   UNL     1       2.342   2.413  20.188  0.00  0.00    +0.000 C 
ATOM     15  C   UNL     1       1.375   2.731  21.052  0.00  0.00    +0.000 C 
ATOM     16  F   UNL     1       1.628   3.218  22.280  0.00  0.00    +0.000 F 
BRANCH  14  17
ATOM     17  C   UNL     1       3.800   2.561  20.500  0.00  0.00    +0.000 C 
BRANCH  17  18
ATOM     18  N   UNL     1       4.628   1.663  19.701  0.00  0.00    +0.000 NA
ATOM     19  H   UNL     1       5.366   1.269  20.279  0.00  0.00    +0.000 HD
ATOM     20  H   UNL     1       5.116   2.223  19.002  0.00  0.00    +0.000 HD
ENDBRANCH  17  18
ENDBRANCH  14  17
ENDBRANCH  13  14
ENDBRANCH  12  13
ENDBRANCH   4  12
TORSDOF 6
ENDMDL
MODEL 9
REMARK VINA RESULT:      -6.4      1.909      2.540
REMARK  Name = 
REMARK  8 active torsions:
REMARK  status: ('A' for Active; 'I' for Inactive)
REMARK    1  A    between atoms: C_1  and  N_2
REMARK    2  A    between atoms: N_2  and  C_3
REMARK    3  A    between atoms: C_4  and  C_6
REMARK    4  A    between atoms: C_9  and  O_10
REMARK    5  A    between atoms: O_10  and  C_11
REMARK    6  A    between atoms: C_11  and  C_12
REMARK    7  A    between atoms: C_12  and  C_15
REMARK    8  A    between atoms: C_15  and  N_16
REMARK                            x       y       z     vdW  Elec       q    Type
REMARK                         _______ _______ _______ _____ _____    ______ ____
ROOT
ATOM      1  C   UNL     1       5.864   4.832  15.372  0.00  0.00    +0.000 A 
ATOM      2  C   UNL     1       5.275   6.031  15.772  0.00  0.00    +0.000 A 
ATOM      3  C   UNL     1       4.487   6.091  16.910  0.00  0.00    +0.000 A 
ATOM      4  C   UNL     1       4.145   4.924  17.589  0.00  0.00    +0.000 A 
ATOM      5  C   UNL     1       4.691   3.706  17.180  0.00  0.00    +0.000 A 
ATOM      6  C   UNL     1       5.553   3.662  16.073  0.00  0.00    +0.000 A 
ENDROOT
BRANCH   1  10
ATOM      7  C   UNL     1       7.322   4.002  11.944  0.00  0.00    +0.000 C 
ATOM      8  N   UNL     1       6.366   4.074  13.037  0.00  0.00    +0.000 N 
ATOM      9  C   UNL     1       5.024   3.566  12.766  0.00  0.00    +0.000 C 
ATOM     10  C   UNL     1       6.753   4.788  14.176  0.00  0.00    +0.000 C 
ATOM     11  O   UNL     1       7.827   5.399  14.242  0.00  0.00    +0.000 OA
ENDBRANCH   1  10
BRANCH   4  12
ATOM     12  O   UNL     1       3.251   4.897  18.631  0.00  0.00    +0.000 OA
BRANCH  12  13
ATOM     13  C   UNL     1       3.224   3.643  19.328  0.00  0.00    +0.000 C 
BRANCH  13  14
ATOM     14  C   UNL     1       2.157   3.667  20.380  0.00  0.00    +0.000 C 
ATOM     15  C   UNL     1       2.023   2.630  21.209  0.00  0.00    +0.000 C 
ATOM     16  F   UNL     1       1.096   2.591  22.183  0.00  0.00    +0.000 F 
BRANCH  14  17
ATOM     17  C   UNL     1       1.294   4.890  20.452  0.00  0.00    +0.000 C 
BRANCH  17  18
ATOM     18  N   UNL     1       2.023   6.049  20.956  0.00  0.00    +0.000 NA
ATOM     19  H   UNL     1       2.718   5.750  21.637  0.00  0.00    +0.000 HD
ATOM     20  H   UNL     1       1.371   6.625  21.488  0.00  0.00    +0.000 HD
ENDBRANCH  17  18
ENDBRANCH  14  17
ENDBRANCH  13  14
ENDBRANCH  12  13
ENDBRANCH   4  12
TORSDOF 6
ENDMDL
