MODEL 1
REMARK VINA RESULT:      -6.5      0.000      0.000
REMARK  Name = 
REMARK  8 active torsions:
REMARK  status: ('A' for Active; 'I' for Inactive)
REMARK    1  A    between atoms: C_1  and  O_2
REMARK    2  A    between atoms: O_2  and  C_3
REMARK    3  A    between atoms: C_3  and  C_5
REMARK    4  A    between atoms: C_9  and  S_10
REMARK    5  A    between atoms: S_10  and  N_13
REMARK    6  A    between atoms: N_13  and  C_14
REMARK    7  A    between atoms: C_17  and  S_18
REMARK    8  A    between atoms: S_18  and  N_19
REMARK                            x       y       z     vdW  Elec       q    Type
REMARK                         _______ _______ _______ _____ _____    ______ ____
ROOT
ATOM      1  N   UNL     1       3.240   5.804  17.779  0.00  0.00    +0.000 N 
ATOM      2  H   UNL     1       4.151   5.582  18.180  0.00  0.00    +0.000 HD
ENDROOT
BRANCH   1   3
ATOM      3  C   UNL     1       2.599   6.921  18.387  0.00  0.00    +0.000 A 
ATOM      4  C   UNL     1       2.311   6.897  19.752  0.00  0.00    +0.000 A 
ATOM      5  C   UNL     1       1.692   7.995  20.349  0.00  0.00    +0.000 A 
ATOM      6  C   UNL     1       1.356   9.108  19.568  0.00  0.00    +0.000 A 
ATOM      7  C   UNL     1       1.602   9.116  18.194  0.00  0.00    +0.000 A 
ATOM      8  C   UNL     1       2.230   8.018  17.604  0.00  0.00    +0.000 A 
BRANCH   6   9
ATOM      9  S   UNL     1       0.607  10.513  20.336  0.00  0.00    +0.000 S 
ATOM     10  O   UNL     1       1.307  11.707  19.927  0.00  0.00    +0.000 OA
ATOM     11  O   UNL     1      -0.829  10.385  20.261  0.00  0.00    +0.000 OA
BRANCH   9  12
ATOM     12  N   UNL     1       1.013  10.262  21.945  0.00  0.00    +0.000 NA
ATOM     13  H   UNL     1       1.207  11.154  22.400  0.00  0.00    +0.000 HD
ATOM     14  H   UNL     1       0.290   9.711  22.407  0.00  0.00    +0.000 HD
ENDBRANCH   9  12
ENDBRANCH   6   9
ENDBRANCH   1   3
BRANCH   1  15
ATOM     15  S   UNL     1       2.354   4.365  17.690  0.00  0.00    +0.000 S 
ATOM     16  O   UNL     1       3.132   3.412  16.927  0.00  0.00    +0.000 OA
ATOM     17  O   UNL     1       1.004   4.705  17.296  0.00  0.00    +0.000 OA
BRANCH  15  22
ATOM     18  C   UNL     1       3.208   3.171  20.048  0.00  0.00    +0.000 A 
ATOM     19  S   UNL     1       2.603   2.587  21.554  0.00  0.00    +0.000 S 
ATOM     20  C   UNL     1       0.992   2.978  21.154  0.00  0.00    +0.000 A 
ATOM     21  C   UNL     1       0.897   3.546  19.906  0.00  0.00    +0.000 A 
ATOM     22  C   UNL     1       2.172   3.649  19.260  0.00  0.00    +0.000 A 
BRANCH  18  23
ATOM     23  C   UNL     1       4.641   3.076  19.829  0.00  0.00    +0.000 C 
ATOM     24  O   UNL     1       5.292   2.039  19.767  0.00  0.00    +0.000 OA
BRANCH  23  26
ATOM     25  C   UNL     1       6.160   4.354  18.574  0.00  0.00    +0.000 C 
ATOM     26  O   UNL     1       5.171   4.307  19.603  0.00  0.00    +0.000 OA
ENDBRANCH  23  26
ENDBRANCH  18  23
ENDBRANCH  15  22
ENDBRANCH   1  15
TORSDOF 7
ENDMDL
MODEL 2
REMARK VINA RESULT:      -6.5      2.496      3.858
REMARK  Name = 
REMARK  8 active torsions:
REMARK  status: ('A' for Active; 'I' for Inactive)
REMARK    1  A    between atoms: C_1  and  O_2
REMARK    2  A    between atoms: O_2  and  C_3
REMARK    3  A    between atoms: C_3  and  C_5
REMARK    4  A    between atoms: C_9  and  S_10
REMARK    5  A    between atoms: S_10  and  N_13
REMARK    6  A    between atoms: N_13  and  C_14
REMARK    7  A    between atoms: C_17  and  S_18
REMARK    8  A    between atoms: S_18  and  N_19
REMARK                            x       y       z     vdW  Elec       q    Type
REMARK                         _______ _______ _______ _____ _____    ______ ____
ROOT
ATOM      1  N   UNL     1       4.100   5.072  19.170  0.00  0.00    +0.000 N 
ATOM      2  H   UNL     1       3.983   4.594  20.063  0.00  0.00    +0.000 HD
ENDROOT
BRANCH   1   3
ATOM      3  C   UNL     1       3.333   6.265  19.050  0.00  0.00    +0.000 A 
ATOM      4  C   UNL     1       3.490   7.082  17.929  0.00  0.00    +0.000 A 
ATOM      5  C   UNL     1       2.732   8.246  17.808  0.00  0.00    +0.000 A 
ATOM      6  C   UNL     1       1.827   8.589  18.819  0.00  0.00    +0.000 A 
ATOM      7  C   UNL     1       1.700   7.798  19.963  0.00  0.00    +0.000 A 
ATOM      8  C   UNL     1       2.455   6.630  20.074  0.00  0.00    +0.000 A 
BRANCH   6   9
ATOM      9  S   UNL     1       0.840  10.045  18.642  0.00  0.00    +0.000 S 
ATOM     10  O   UNL     1      -0.249   9.773  17.734  0.00  0.00    +0.000 OA
ATOM     11  O   UNL     1       0.641  10.644  19.941  0.00  0.00    +0.000 OA
BRANCH   9  12
ATOM     12  N   UNL     1       1.894  11.058  17.819  0.00  0.00    +0.000 NA
ATOM     13  H   UNL     1       1.620  12.031  17.953  0.00  0.00    +0.000 HD
ATOM     14  H   UNL     1       2.856  10.858  18.091  0.00  0.00    +0.000 HD
ENDBRANCH   9  12
ENDBRANCH   6   9
ENDBRANCH   1   3
BRANCH   1  15
ATOM     15  S   UNL     1       3.924   3.919  17.944  0.00  0.00    +0.000 S 
ATOM     16  O   UNL     1       2.592   4.056  17.393  0.00  0.00    +0.000 OA
ATOM     17  O   UNL     1       4.385   2.651  18.465  0.00  0.00    +0.000 OA
BRANCH  15  22
ATOM     18  C   UNL     1       6.313   4.673  16.742  0.00  0.00    +0.000 A 
ATOM     19  S   UNL     1       7.041   4.837  15.188  0.00  0.00    +0.000 S 
ATOM     20  C   UNL     1       5.624   4.345  14.378  0.00  0.00    +0.000 A 
ATOM     21  C   UNL     1       4.608   4.052  15.257  0.00  0.00    +0.000 A 
ATOM     22  C   UNL     1       4.997   4.251  16.621  0.00  0.00    +0.000 A 
BRANCH  18  23
ATOM     23  C   UNL     1       7.137   4.991  17.896  0.00  0.00    +0.000 C 
ATOM     24  O   UNL     1       8.041   4.297  18.346  0.00  0.00    +0.000 OA
BRANCH  23  26
ATOM     25  C   UNL     1       7.795   7.240  18.057  0.00  0.00    +0.000 C 
ATOM     26  O   UNL     1       6.836   6.229  18.369  0.00  0.00    +0.000 OA
ENDBRANCH  23  26
ENDBRANCH  18  23
ENDBRANCH  15  22
ENDBRANCH   1  15
TORSDOF 7
ENDMDL
MODEL 3
REMARK VINA RESULT:      -6.5      2.574      3.970
REMARK  Name = 
REMARK  8 active torsions:
REMARK  status: ('A' for Active; 'I' for Inactive)
REMARK    1  A    between atoms: C_1  and  O_2
REMARK    2  A    between atoms: O_2  and  C_3
REMARK    3  A    between atoms: C_3  and  C_5
REMARK    4  A    between atoms: C_9  and  S_10
REMARK    5  A    between atoms: S_10  and  N_13
REMARK    6  A    between atoms: N_13  and  C_14
REMARK    7  A    between atoms: C_17  and  S_18
REMARK    8  A    between atoms: S_18  and  N_19
REMARK                            x       y       z     vdW  Elec       q    Type
REMARK                         _______ _______ _______ _____ _____    ______ ____
ROOT
ATOM      1  N   UNL     1       3.147   4.780  19.086  0.00  0.00    +0.000 N 
ATOM      2  H   UNL     1       2.775   4.181  18.348  0.00  0.00    +0.000 HD
ENDROOT
BRANCH   1   3
ATOM      3  C   UNL     1       2.626   6.105  19.071  0.00  0.00    +0.000 A 
ATOM      4  C   UNL     1       2.080   6.648  20.234  0.00  0.00    +0.000 A 
ATOM      5  C   UNL     1       1.577   7.950  20.221  0.00  0.00    +0.000 A 
ATOM      6  C   UNL     1       1.618   8.694  19.037  0.00  0.00    +0.000 A 
ATOM      7  C   UNL     1       2.123   8.137  17.860  0.00  0.00    +0.000 A 
ATOM      8  C   UNL     1       2.632   6.838  17.881  0.00  0.00    +0.000 A 
BRANCH   6   9
ATOM      9  S   UNL     1       1.017  10.356  19.035  0.00  0.00    +0.000 S 
ATOM     10  O   UNL     1      -0.280  10.392  18.402  0.00  0.00    +0.000 OA
ATOM     11  O   UNL     1       1.272  10.954  20.324  0.00  0.00    +0.000 OA
BRANCH   9  12
ATOM     12  N   UNL     1       2.080  11.089  17.964  0.00  0.00    +0.000 NA
ATOM     13  H   UNL     1       1.752  12.026  17.730  0.00  0.00    +0.000 HD
ATOM     14  H   UNL     1       3.028  11.065  18.340  0.00  0.00    +0.000 HD
ENDBRANCH   9  12
ENDBRANCH   6   9
ENDBRANCH   1   3
BRANCH   1  15
ATOM     15  S   UNL     1       4.831   4.616  19.079  0.00  0.00    +0.000 S 
ATOM     16  O   UNL     1       5.152   3.302  19.594  0.00  0.00    +0.000 OA
ATOM     17  O   UNL     1       5.390   5.806  19.683  0.00  0.00    +0.000 OA
BRANCH  15  22
ATOM     18  C   UNL     1       6.562   5.342  17.031  0.00  0.00    +0.000 A 
ATOM     19  S   UNL     1       6.866   5.042  15.360  0.00  0.00    +0.000 S 
ATOM     20  C   UNL     1       5.540   3.979  15.222  0.00  0.00    +0.000 A 
ATOM     21  C   UNL     1       4.871   3.839  16.414  0.00  0.00    +0.000 A 
ATOM     22  C   UNL     1       5.450   4.631  17.458  0.00  0.00    +0.000 A 
BRANCH  18  23
ATOM     23  C   UNL     1       7.464   6.254  17.714  0.00  0.00    +0.000 C 
ATOM     24  O   UNL     1       8.099   6.007  18.732  0.00  0.00    +0.000 OA
BRANCH  23  26
ATOM     25  C   UNL     1       7.919   8.556  17.801  0.00  0.00    +0.000 C 
ATOM     26  O   UNL     1       7.591   7.412  17.014  0.00  0.00    +0.000 OA
ENDBRANCH  23  26
ENDBRANCH  18  23
ENDBRANCH  15  22
ENDBRANCH   1  15
TORSDOF 7
ENDMDL
MODEL 4
REMARK VINA RESULT:      -6.4      2.391      3.992
REMARK  Name = 
REMARK  8 active torsions:
REMARK  status: ('A' for Active; 'I' for Inactive)
REMARK    1  A    between atoms: C_1  and  O_2
REMARK    2  A    between atoms: O_2  and  C_3
REMARK    3  A    between atoms: C_3  and  C_5
REMARK    4  A    between atoms: C_9  and  S_10
REMARK    5  A    between atoms: S_10  and  N_13
REMARK    6  A    between atoms: N_13  and  C_14
REMARK    7  A    between atoms: C_17  and  S_18
REMARK    8  A    between atoms: S_18  and  N_19
REMARK                            x       y       z     vdW  Elec       q    Type
REMARK                         _______ _______ _______ _____ _____    ______ ____
ROOT
ATOM      1  N   UNL     1       2.826   4.915  17.806  0.00  0.00    +0.000 N 
ATOM      2  H   UNL     1       2.959   5.215  16.840  0.00  0.00    +0.000 HD
ENDROOT
BRANCH   1   3
ATOM      3  C   UNL     1       2.383   5.952  18.675  0.00  0.00    +0.000 A 
ATOM      4  C   UNL     1       2.442   7.282  18.257  0.00  0.00    +0.000 A 
ATOM      5  C   UNL     1       1.999   8.296  19.105  0.00  0.00    +0.000 A 
ATOM      6  C   UNL     1       1.507   7.969  20.374  0.00  0.00    +0.000 A 
ATOM      7  C   UNL     1       1.489   6.644  20.814  0.00  0.00    +0.000 A 
ATOM      8  C   UNL     1       1.925   5.633  19.956  0.00  0.00    +0.000 A 
BRANCH   6   9
ATOM      9  S   UNL     1       0.910   9.254  21.431  0.00  0.00    +0.000 S 
ATOM     10  O   UNL     1       1.073  10.527  20.770  0.00  0.00    +0.000 OA
ATOM     11  O   UNL     1      -0.338   8.838  22.026  0.00  0.00    +0.000 OA
BRANCH   9  12
ATOM     12  N   UNL     1       2.048   9.220  22.664  0.00  0.00    +0.000 NA
ATOM     13  H   UNL     1       1.916   8.387  23.239  0.00  0.00    +0.000 HD
ATOM     14  H   UNL     1       2.987   9.311  22.277  0.00  0.00    +0.000 HD
ENDBRANCH   9  12
ENDBRANCH   6   9
ENDBRANCH   1   3
BRANCH   1  15
ATOM     15  S   UNL     1       4.210   4.061  18.273  0.00  0.00    +0.000 S 
ATOM     16  O   UNL     1       4.428   3.006  17.304  0.00  0.00    +0.000 OA
ATOM     17  O   UNL     1       4.084   3.759  19.682  0.00  0.00    +0.000 OA
BRANCH  15  22
ATOM     18  C   UNL     1       5.992   5.824  17.077  0.00  0.00    +0.000 A 
ATOM     19  S   UNL     1       7.431   6.713  17.413  0.00  0.00    +0.000 S 
ATOM     20  C   UNL     1       7.545   6.094  18.998  0.00  0.00    +0.000 A 
ATOM     21  C   UNL     1       6.514   5.231  19.285  0.00  0.00    +0.000 A 
ATOM     22  C   UNL     1       5.622   5.064  18.177  0.00  0.00    +0.000 A 
BRANCH  18  23
ATOM     23  C   UNL     1       5.408   5.986  15.757  0.00  0.00    +0.000 C 
ATOM     24  O   UNL     1       4.931   7.020  15.304  0.00  0.00    +0.000 OA
BRANCH  23  26
ATOM     25  C   UNL     1       6.771   4.734  14.311  0.00  0.00    +0.000 C 
ATOM     26  O   UNL     1       5.544   4.844  15.033  0.00  0.00    +0.000 OA
ENDBRANCH  23  26
ENDBRANCH  18  23
ENDBRANCH  15  22
ENDBRANCH   1  15
TORSDOF 7
ENDMDL
MODEL 5
REMARK VINA RESULT:      -6.4      0.755      1.349
REMARK  Name = 
REMARK  8 active torsions:
REMARK  status: ('A' for Active; 'I' for Inactive)
REMARK    1  A    between atoms: C_1  and  O_2
REMARK    2  A    between atoms: O_2  and  C_3
REMARK    3  A    between atoms: C_3  and  C_5
REMARK    4  A    between atoms: C_9  and  S_10
REMARK    5  A    between atoms: S_10  and  N_13
REMARK    6  A    between atoms: N_13  and  C_14
REMARK    7  A    between atoms: C_17  and  S_18
REMARK    8  A    between atoms: S_18  and  N_19
REMARK                            x       y       z     vdW  Elec       q    Type
REMARK                         _______ _______ _______ _____ _____    ______ ____
ROOT
ATOM      1  N   UNL     1       3.249   5.709  17.719  0.00  0.00    +0.000 N 
ATOM      2  H   UNL     1       4.163   5.466  18.101  0.00  0.00    +0.000 HD
ENDROOT
BRANCH   1   3
ATOM      3  C   UNL     1       2.656   6.853  18.325  0.00  0.00    +0.000 A 
ATOM      4  C   UNL     1       2.399   7.990  17.558  0.00  0.00    +0.000 A 
ATOM      5  C   UNL     1       1.810   9.107  18.150  0.00  0.00    +0.000 A 
ATOM      6  C   UNL     1       1.492   9.079  19.513  0.00  0.00    +0.000 A 
ATOM      7  C   UNL     1       1.789   7.960  20.294  0.00  0.00    +0.000 A 
ATOM      8  C   UNL     1       2.371   6.842  19.693  0.00  0.00    +0.000 A 
BRANCH   6   9
ATOM      9  S   UNL     1       0.710  10.482  20.251  0.00  0.00    +0.000 S 
ATOM     10  O   UNL     1       0.893  10.431  21.682  0.00  0.00    +0.000 OA
ATOM     11  O   UNL     1       1.008  11.658  19.468  0.00  0.00    +0.000 OA
BRANCH   9  12
ATOM     12  N   UNL     1      -0.910  10.138  19.975  0.00  0.00    +0.000 NA
ATOM     13  H   UNL     1      -1.193  10.498  19.063  0.00  0.00    +0.000 HD
ATOM     14  H   UNL     1      -1.081   9.140  20.097  0.00  0.00    +0.000 HD
ENDBRANCH   9  12
ENDBRANCH   6   9
ENDBRANCH   1   3
BRANCH   1  15
ATOM     15  S   UNL     1       2.319   4.296  17.672  0.00  0.00    +0.000 S 
ATOM     16  O   UNL     1       3.055   3.306  16.914  0.00  0.00    +0.000 OA
ATOM     17  O   UNL     1       0.973   4.669  17.295  0.00  0.00    +0.000 OA
BRANCH  15  22
ATOM     18  C   UNL     1       3.183   3.148  20.049  0.00  0.00    +0.000 A 
ATOM     19  S   UNL     1       2.585   2.600  21.571  0.00  0.00    +0.000 S 
ATOM     20  C   UNL     1       0.973   2.989  21.174  0.00  0.00    +0.000 A 
ATOM     21  C   UNL     1       0.873   3.532  19.914  0.00  0.00    +0.000 A 
ATOM     22  C   UNL     1       2.144   3.615  19.258  0.00  0.00    +0.000 A 
BRANCH  18  23
ATOM     23  C   UNL     1       4.614   3.041  19.824  0.00  0.00    +0.000 C 
ATOM     24  O   UNL     1       5.257   2.000  19.764  0.00  0.00    +0.000 OA
BRANCH  23  26
ATOM     25  C   UNL     1       6.090   4.313  18.512  0.00  0.00    +0.000 C 
ATOM     26  O   UNL     1       5.152   4.267  19.587  0.00  0.00    +0.000 OA
ENDBRANCH  23  26
ENDBRANCH  18  23
ENDBRANCH  15  22
ENDBRANCH   1  15
TORSDOF 7
ENDMDL
MODEL 6
REMARK VINA RESULT:      -6.3      2.494      4.026
REMARK  Name = 
REMARK  8 active torsions:
REMARK  status: ('A' for Active; 'I' for Inactive)
REMARK    1  A    between atoms: C_1  and  O_2
REMARK    2  A    between atoms: O_2  and  C_3
REMARK    3  A    between atoms: C_3  and  C_5
REMARK    4  A    between atoms: C_9  and  S_10
REMARK    5  A    between atoms: S_10  and  N_13
REMARK    6  A    between atoms: N_13  and  C_14
REMARK    7  A    between atoms: C_17  and  S_18
REMARK    8  A    between atoms: S_18  and  N_19
REMARK                            x       y       z     vdW  Elec       q    Type
REMARK                         _______ _______ _______ _____ _____    ______ ____
ROOT
ATOM      1  N   UNL     1       3.053   4.822  19.024  0.00  0.00    +0.000 N 
ATOM      2  H   UNL     1       2.704   4.349  18.191  0.00  0.00    +0.000 HD
ENDROOT
BRANCH   1   3
ATOM      3  C   UNL     1       2.517   6.127  19.213  0.00  0.00    +0.000 A 
ATOM      4  C   UNL     1       2.558   7.052  18.169  0.00  0.00    +0.000 A 
ATOM      5  C   UNL     1       2.025   8.328  18.352  0.00  0.00    +0.000 A 
ATOM      6  C   UNL     1       1.463   8.671  19.587  0.00  0.00    +0.000 A 
ATOM      7  C   UNL     1       1.461   7.764  20.648  0.00  0.00    +0.000 A 
ATOM      8  C   UNL     1       1.988   6.486  20.456  0.00  0.00    +0.000 A 
BRANCH   6   9
ATOM      9  S   UNL     1       0.753  10.276  19.801  0.00  0.00    +0.000 S 
ATOM     10  O   UNL     1      -0.665  10.207  19.538  0.00  0.00    +0.000 OA
ATOM     11  O   UNL     1       1.297  10.880  20.994  0.00  0.00    +0.000 OA
BRANCH   9  12
ATOM     12  N   UNL     1       1.427  11.108  18.509  0.00  0.00    +0.000 NA
ATOM     13  H   UNL     1       0.806  11.862  18.216  0.00  0.00    +0.000 HD
ATOM     14  H   UNL     1       2.370  11.418  18.746  0.00  0.00    +0.000 HD
ENDBRANCH   9  12
ENDBRANCH   6   9
ENDBRANCH   1   3
BRANCH   1  15
ATOM     15  S   UNL     1       4.738   4.675  19.031  0.00  0.00    +0.000 S 
ATOM     16  O   UNL     1       5.067   3.365  19.554  0.00  0.00    +0.000 OA
ATOM     17  O   UNL     1       5.281   5.872  19.635  0.00  0.00    +0.000 OA
BRANCH  15  22
ATOM     18  C   UNL     1       6.524   5.345  17.012  0.00  0.00    +0.000 A 
ATOM     19  S   UNL     1       6.824   5.065  15.336  0.00  0.00    +0.000 S 
ATOM     20  C   UNL     1       5.440   4.083  15.166  0.00  0.00    +0.000 A 
ATOM     21  C   UNL     1       4.754   3.954  16.351  0.00  0.00    +0.000 A 
ATOM     22  C   UNL     1       5.370   4.690  17.415  0.00  0.00    +0.000 A 
BRANCH  18  23
ATOM     23  C   UNL     1       7.470   6.188  17.721  0.00  0.00    +0.000 C 
ATOM     24  O   UNL     1       8.052   5.900  18.760  0.00  0.00    +0.000 OA
BRANCH  23  26
ATOM     25  C   UNL     1       7.910   8.493  17.822  0.00  0.00    +0.000 C 
ATOM     26  O   UNL     1       7.710   7.328  17.021  0.00  0.00    +0.000 OA
ENDBRANCH  23  26
ENDBRANCH  18  23
ENDBRANCH  15  22
ENDBRANCH   1  15
TORSDOF 7
ENDMDL
MODEL 7
REMARK VINA RESULT:      -6.3      0.415      1.089
REMARK  Name = 
REMARK  8 active torsions:
REMARK  status: ('A' for Active; 'I' for Inactive)
REMARK    1  A    between atoms: C_1  and  O_2
REMARK    2  A    between atoms: O_2  and  C_3
REMARK    3  A    between atoms: C_3  and  C_5
REMARK    4  A    between atoms: C_9  and  S_10
REMARK    5  A    between atoms: S_10  and  N_13
REMARK    6  A    between atoms: N_13  and  C_14
REMARK    7  A    between atoms: C_17  and  S_18
REMARK    8  A    between atoms: S_18  and  N_19
REMARK                            x       y       z     vdW  Elec       q    Type
REMARK                         _______ _______ _______ _____ _____    ______ ____
ROOT
ATOM      1  N   UNL     1       3.334   6.022  18.020  0.00  0.00    +0.000 N 
ATOM      2  H   UNL     1       4.153   5.786  18.582  0.00  0.00    +0.000 HD
ENDROOT
BRANCH   1   3
ATOM      3  C   UNL     1       2.641   7.182  18.469  0.00  0.00    +0.000 A 
ATOM      4  C   UNL     1       2.451   8.256  17.600  0.00  0.00    +0.000 A 
ATOM      5  C   UNL     1       1.764   9.389  18.037  0.00  0.00    +0.000 A 
ATOM      6  C   UNL     1       1.280   9.439  19.349  0.00  0.00    +0.000 A 
ATOM      7  C   UNL     1       1.509   8.385  20.236  0.00  0.00    +0.000 A 
ATOM      8  C   UNL     1       2.189   7.251  19.789  0.00  0.00    +0.000 A 
BRANCH   6   9
ATOM      9  S   UNL     1       0.376  10.859  19.887  0.00  0.00    +0.000 S 
ATOM     10  O   UNL     1       0.731  11.989  19.062  0.00  0.00    +0.000 OA
ATOM     11  O   UNL     1      -0.993  10.481  20.145  0.00  0.00    +0.000 OA
BRANCH   9  12
ATOM     12  N   UNL     1       1.071  11.142  21.389  0.00  0.00    +0.000 NA
ATOM     13  H   UNL     1       1.991  11.567  21.273  0.00  0.00    +0.000 HD
ATOM     14  H   UNL     1       0.435  11.685  21.972  0.00  0.00    +0.000 HD
ENDBRANCH   9  12
ENDBRANCH   6   9
ENDBRANCH   1   3
BRANCH   1  15
ATOM     15  S   UNL     1       2.423   4.610  17.823  0.00  0.00    +0.000 S 
ATOM     16  O   UNL     1       3.189   3.699  16.998  0.00  0.00    +0.000 OA
ATOM     17  O   UNL     1       1.082   5.003  17.448  0.00  0.00    +0.000 OA
BRANCH  15  22
ATOM     18  C   UNL     1       3.237   3.211  20.080  0.00  0.00    +0.000 A 
ATOM     19  S   UNL     1       2.614   2.541  21.542  0.00  0.00    +0.000 S 
ATOM     20  C   UNL     1       1.018   3.021  21.182  0.00  0.00    +0.000 A 
ATOM     21  C   UNL     1       0.942   3.684  19.980  0.00  0.00    +0.000 A 
ATOM     22  C   UNL     1       2.218   3.787  19.336  0.00  0.00    +0.000 A 
BRANCH  18  23
ATOM     23  C   UNL     1       4.665   3.078  19.847  0.00  0.00    +0.000 C 
ATOM     24  O   UNL     1       5.286   2.024  19.775  0.00  0.00    +0.000 OA
BRANCH  23  26
ATOM     25  C   UNL     1       6.208   4.318  18.584  0.00  0.00    +0.000 C 
ATOM     26  O   UNL     1       5.226   4.295  19.620  0.00  0.00    +0.000 OA
ENDBRANCH  23  26
ENDBRANCH  18  23
ENDBRANCH  15  22
ENDBRANCH   1  15
TORSDOF 7
ENDMDL
MODEL 8
REMARK VINA RESULT:      -6.2      0.619      1.501
REMARK  Name = 
REMARK  8 active torsions:
REMARK  status: ('A' for Active; 'I' for Inactive)
REMARK    1  A    between atoms: C_1  and  O_2
REMARK    2  A    between atoms: O_2  and  C_3
REMARK    3  A    between atoms: C_3  and  C_5
REMARK    4  A    between atoms: C_9  and  S_10
REMARK    5  A    between atoms: S_10  and  N_13
REMARK    6  A    between atoms: N_13  and  C_14
REMARK    7  A    between atoms: C_17  and  S_18
REMARK    8  A    between atoms: S_18  and  N_19
REMARK                            x       y       z     vdW  Elec       q    Type
REMARK                         _______ _______ _______ _____ _____    ______ ____
ROOT
ATOM      1  N   UNL     1       3.303   5.971  17.961  0.00  0.00    +0.000 N 
ATOM      2  H   UNL     1       4.143   5.728  18.486  0.00  0.00    +0.000 HD
ENDROOT
BRANCH   1   3
ATOM      3  C   UNL     1       2.635   7.131  18.446  0.00  0.00    +0.000 A 
ATOM      4  C   UNL     1       2.420   8.215  17.595  0.00  0.00    +0.000 A 
ATOM      5  C   UNL     1       1.757   9.347  18.068  0.00  0.00    +0.000 A 
ATOM      6  C   UNL     1       1.323   9.388  19.398  0.00  0.00    +0.000 A 
ATOM      7  C   UNL     1       1.576   8.323  20.265  0.00  0.00    +0.000 A 
ATOM      8  C   UNL     1       2.232   7.189  19.783  0.00  0.00    +0.000 A 
BRANCH   6   9
ATOM      9  S   UNL     1       0.448  10.808  19.983  0.00  0.00    +0.000 S 
ATOM     10  O   UNL     1       1.034  11.996  19.409  0.00  0.00    +0.000 OA
ATOM     11  O   UNL     1      -0.970  10.541  19.946  0.00  0.00    +0.000 OA
BRANCH   9  12
ATOM     12  N   UNL     1       0.879  10.813  21.605  0.00  0.00    +0.000 NA
ATOM     13  H   UNL     1       0.514  11.650  22.061  0.00  0.00    +0.000 HD
ATOM     14  H   UNL     1       0.587   9.942  22.047  0.00  0.00    +0.000 HD
ENDBRANCH   9  12
ENDBRANCH   6   9
ENDBRANCH   1   3
BRANCH   1  15
ATOM     15  S   UNL     1       2.378   4.565  17.792  0.00  0.00    +0.000 S 
ATOM     16  O   UNL     1       3.125   3.638  16.968  0.00  0.00    +0.000 OA
ATOM     17  O   UNL     1       1.036   4.964  17.431  0.00  0.00    +0.000 OA
BRANCH  15  22
ATOM     18  C   UNL     1       3.205   3.155  20.038  0.00  0.00    +0.000 A 
ATOM     19  S   UNL     1       2.600   2.518  21.523  0.00  0.00    +0.000 S 
ATOM     20  C   UNL     1       1.013   3.053  21.203  0.00  0.00    +0.000 A 
ATOM     21  C   UNL     1       0.927   3.710  19.999  0.00  0.00    +0.000 A 
ATOM     22  C   UNL     1       2.187   3.761  19.318  0.00  0.00    +0.000 A 
BRANCH  18  23
ATOM     23  C   UNL     1       4.620   2.968  19.766  0.00  0.00    +0.000 C 
ATOM     24  O   UNL     1       5.443   3.860  19.594  0.00  0.00    +0.000 OA
BRANCH  23  26
ATOM     25  C   UNL     1       4.339   0.839  18.815  0.00  0.00    +0.000 C 
ATOM     26  O   UNL     1       4.946   1.650  19.822  0.00  0.00    +0.000 OA
ENDBRANCH  23  26
ENDBRANCH  18  23
ENDBRANCH  15  22
ENDBRANCH   1  15
TORSDOF 7
ENDMDL
MODEL 9
REMARK VINA RESULT:      -6.2      0.971      1.495
REMARK  Name = 
REMARK  8 active torsions:
REMARK  status: ('A' for Active; 'I' for Inactive)
REMARK    1  A    between atoms: C_1  and  O_2
REMARK    2  A    between atoms: O_2  and  C_3
REMARK    3  A    between atoms: C_3  and  C_5
REMARK    4  A    between atoms: C_9  and  S_10
REMARK    5  A    between atoms: S_10  and  N_13
REMARK    6  A    between atoms: N_13  and  C_14
REMARK    7  A    between atoms: C_17  and  S_18
REMARK    8  A    between atoms: S_18  and  N_19
REMARK                            x       y       z     vdW  Elec       q    Type
REMARK                         _______ _______ _______ _____ _____    ______ ____
ROOT
ATOM      1  N   UNL     1       3.335   5.847  17.880  0.00  0.00    +0.000 N 
ATOM      2  H   UNL     1       4.189   5.627  18.393  0.00  0.00    +0.000 HD
ENDROOT
BRANCH   1   3
ATOM      3  C   UNL     1       2.651   6.998  18.365  0.00  0.00    +0.000 A 
ATOM      4  C   UNL     1       2.270   7.064  19.706  0.00  0.00    +0.000 A 
ATOM      5  C   UNL     1       1.607   8.195  20.183  0.00  0.00    +0.000 A 
ATOM      6  C   UNL     1       1.322   9.249  19.307  0.00  0.00    +0.000 A 
ATOM      7  C   UNL     1       1.662   9.167  17.955  0.00  0.00    +0.000 A 
ATOM      8  C   UNL     1       2.332   8.036  17.486  0.00  0.00    +0.000 A 
BRANCH   6   9
ATOM      9  S   UNL     1       0.518  10.697  19.925  0.00  0.00    +0.000 S 
ATOM     10  O   UNL     1      -0.910  10.488  19.916  0.00  0.00    +0.000 OA
ATOM     11  O   UNL     1       1.229  11.176  21.086  0.00  0.00    +0.000 OA
BRANCH   9  12
ATOM     12  N   UNL     1       0.836  11.797  18.698  0.00  0.00    +0.000 NA
ATOM     13  H   UNL     1       1.779  12.172  18.801  0.00  0.00    +0.000 HD
ATOM     14  H   UNL     1       0.657  11.370  17.790  0.00  0.00    +0.000 HD
ENDBRANCH   9  12
ENDBRANCH   6   9
ENDBRANCH   1   3
BRANCH   1  15
ATOM     15  S   UNL     1       2.437   4.420  17.742  0.00  0.00    +0.000 S 
ATOM     16  O   UNL     1       3.225   3.471  16.984  0.00  0.00    +0.000 OA
ATOM     17  O   UNL     1       1.102   4.781  17.319  0.00  0.00    +0.000 OA
BRANCH  15  22
ATOM     18  C   UNL     1       3.215   3.172  20.099  0.00  0.00    +0.000 A 
ATOM     19  S   UNL     1       2.564   2.571  21.579  0.00  0.00    +0.000 S 
ATOM     20  C   UNL     1       0.969   2.991  21.146  0.00  0.00    +0.000 A 
ATOM     21  C   UNL     1       0.914   3.583  19.906  0.00  0.00    +0.000 A 
ATOM     22  C   UNL     1       2.206   3.679  19.294  0.00  0.00    +0.000 A 
BRANCH  18  23
ATOM     23  C   UNL     1       4.652   3.061  19.915  0.00  0.00    +0.000 C 
ATOM     24  O   UNL     1       5.390   3.934  19.473  0.00  0.00    +0.000 OA
BRANCH  23  26
ATOM     25  C   UNL     1       4.847   0.750  19.549  0.00  0.00    +0.000 C 
ATOM     26  O   UNL     1       5.103   1.872  20.394  0.00  0.00    +0.000 OA
ENDBRANCH  23  26
ENDBRANCH  18  23
ENDBRANCH  15  22
ENDBRANCH   1  15
TORSDOF 7
ENDMDL
