MODEL 1
REMARK VINA RESULT:      -7.3      0.000      0.000
REMARK  Name = 
REMARK  8 active torsions:
REMARK  status: ('A' for Active; 'I' for Inactive)
REMARK    1  A    between atoms: C_1  and  C_2
REMARK    2  A    between atoms: N_4  and  C_5
REMARK    3  A    between atoms: C_7  and  N_8
REMARK    4  A    between atoms: C_11  and  C_12
REMARK    5  A    between atoms: C_12  and  O_13
REMARK    6  A    between atoms: O_13  and  C_14
REMARK    7  A    between atoms: C_14  and  C_16
REMARK    8  A    between atoms: C_16  and  N_17
REMARK                            x       y       z     vdW  Elec       q    Type
REMARK                         _______ _______ _______ _____ _____    ______ ____
ROOT
ATOM      1  C   UNL     1       5.331   4.175  16.806  0.00  0.00    +0.000 C 
ATOM      2  C   UNL     1       4.944   2.741  17.124  0.00  0.00    +0.000 C 
ATOM      3  C   UNL     1       3.881   2.965  18.189  0.00  0.00    +0.000 C 
ATOM      4  C   UNL     1       3.136   4.169  17.575  0.00  0.00    +0.000 C 
ATOM      5  O   UNL     1       4.101   4.920  16.803  0.00  0.00    +0.000 OA
ENDROOT
BRANCH   1   9
ATOM      6  C   UNL     1       5.913   3.151  11.978  0.00  0.00    +0.000 C 
ATOM      7  C   UNL     1       6.284   3.856  13.240  0.00  0.00    +0.000 A 
ATOM      8  C   UNL     1       5.715   3.626  14.431  0.00  0.00    +0.000 A 
ATOM      9  N   UNL     1       6.053   4.346  15.559  0.00  0.00    +0.000 N 
ATOM     10  C   UNL     1       7.070   5.287  15.551  0.00  0.00    +0.000 A 
ATOM     11  O   UNL     1       7.427   5.928  16.536  0.00  0.00    +0.000 OA
ATOM     12  N   UNL     1       7.677   5.494  14.341  0.00  0.00    +0.000 N 
ATOM     13  C   UNL     1       7.324   4.910  13.158  0.00  0.00    +0.000 A 
ATOM     14  O   UNL     1       7.831   5.239  12.092  0.00  0.00    +0.000 OA
ATOM     15  H   UNL     1       8.375   6.217  14.301  0.00  0.00    +0.000 HD
ENDBRANCH   1   9
BRANCH   3  16
ATOM     16  N   UNL     1       4.457   3.331  19.502  0.00  0.00    +0.000 NA
ATOM     17  N   UNL     1       4.835   2.423  20.268  0.00  0.00    +0.000 NA
ATOM     18  N   UNL     1       5.209   1.596  20.952  0.00  0.00    +0.000 NA
ENDBRANCH   3  16
BRANCH   4  19
ATOM     19  C   UNL     1       2.429   5.107  18.556  0.00  0.00    +0.000 C 
BRANCH  19  20
ATOM     20  O   UNL     1       1.354   4.461  19.250  0.00  0.00    +0.000 OA
BRANCH  20  21
ATOM     21  C   UNL     1       1.419   4.531  20.609  0.00  0.00    +0.000 C 
ATOM     22  O   UNL     1       1.607   5.561  21.250  0.00  0.00    +0.000 OA
BRANCH  21  23
ATOM     23  C   UNL     1       1.269   3.143  21.219  0.00  0.00    +0.000 C 
BRANCH  23  24
ATOM     24  N   UNL     1       2.466   2.787  21.997  0.00  0.00    +0.000 NA
ATOM     25  H   UNL     1       2.895   1.963  21.569  0.00  0.00    +0.000 HD
ATOM     26  H   UNL     1       2.190   2.516  22.939  0.00  0.00    +0.000 HD
ENDBRANCH  23  24
ENDBRANCH  21  23
ENDBRANCH  20  21
ENDBRANCH  19  20
ENDBRANCH   4  19
TORSDOF 7
ENDMDL
MODEL 2
REMARK VINA RESULT:      -7.3      2.088      2.596
REMARK  Name = 
REMARK  8 active torsions:
REMARK  status: ('A' for Active; 'I' for Inactive)
REMARK    1  A    between atoms: C_1  and  C_2
REMARK    2  A    between atoms: N_4  and  C_5
REMARK    3  A    between atoms: C_7  and  N_8
REMARK    4  A    between atoms: C_11  and  C_12
REMARK    5  A    between atoms: C_12  and  O_13
REMARK    6  A    between atoms: O_13  and  C_14
REMARK    7  A    between atoms: C_14  and  C_16
REMARK    8  A    between atoms: C_16  and  N_17
REMARK                            x       y       z     vdW  Elec       q    Type
REMARK                         _______ _______ _______ _____ _____    ______ ____
ROOT
ATOM      1  C   UNL     1       4.967   4.319  17.411  0.00  0.00    +0.000 C 
ATOM      2  C   UNL     1       4.263   2.974  17.468  0.00  0.00    +0.000 C 
ATOM      3  C   UNL     1       3.186   3.263  18.503  0.00  0.00    +0.000 C 
ATOM      4  C   UNL     1       2.764   4.681  18.063  0.00  0.00    +0.000 C 
ATOM      5  O   UNL     1       3.926   5.308  17.474  0.00  0.00    +0.000 OA
ENDROOT
BRANCH   1   9
ATOM      6  C   UNL     1       5.966   3.479  12.616  0.00  0.00    +0.000 C 
ATOM      7  C   UNL     1       6.240   4.114  13.938  0.00  0.00    +0.000 A 
ATOM      8  C   UNL     1       5.554   3.857  15.059  0.00  0.00    +0.000 A 
ATOM      9  N   UNL     1       5.810   4.514  16.246  0.00  0.00    +0.000 N 
ATOM     10  C   UNL     1       6.857   5.412  16.376  0.00  0.00    +0.000 A 
ATOM     11  O   UNL     1       7.142   5.996  17.418  0.00  0.00    +0.000 OA
ATOM     12  N   UNL     1       7.582   5.646  15.239  0.00  0.00    +0.000 N 
ATOM     13  C   UNL     1       7.322   5.128  14.002  0.00  0.00    +0.000 A 
ATOM     14  O   UNL     1       7.938   5.481  13.004  0.00  0.00    +0.000 OA
ATOM     15  H   UNL     1       8.307   6.342  15.297  0.00  0.00    +0.000 HD
ENDBRANCH   1   9
BRANCH   3  16
ATOM     16  N   UNL     1       3.716   3.289  19.884  0.00  0.00    +0.000 NA
ATOM     17  N   UNL     1       4.481   2.376  20.254  0.00  0.00    +0.000 NA
ATOM     18  N   UNL     1       5.202   1.562  20.579  0.00  0.00    +0.000 NA
ENDBRANCH   3  16
BRANCH   4  19
ATOM     19  C   UNL     1       2.191   5.592  19.152  0.00  0.00    +0.000 C 
BRANCH  19  20
ATOM     20  O   UNL     1       2.925   6.815  19.280  0.00  0.00    +0.000 OA
BRANCH  20  21
ATOM     21  C   UNL     1       2.191   7.950  19.109  0.00  0.00    +0.000 C 
ATOM     22  O   UNL     1       1.518   8.489  19.982  0.00  0.00    +0.000 OA
BRANCH  21  23
ATOM     23  C   UNL     1       2.291   8.432  17.667  0.00  0.00    +0.000 C 
BRANCH  23  24
ATOM     24  N   UNL     1       1.852   9.832  17.557  0.00  0.00    +0.000 NA
ATOM     25  H   UNL     1       2.628  10.436  17.839  0.00  0.00    +0.000 HD
ATOM     26  H   UNL     1       1.094  10.004  18.215  0.00  0.00    +0.000 HD
ENDBRANCH  23  24
ENDBRANCH  21  23
ENDBRANCH  20  21
ENDBRANCH  19  20
ENDBRANCH   4  19
TORSDOF 7
ENDMDL
MODEL 3
REMARK VINA RESULT:      -7.1      2.257      2.926
REMARK  Name = 
REMARK  8 active torsions:
REMARK  status: ('A' for Active; 'I' for Inactive)
REMARK    1  A    between atoms: C_1  and  C_2
REMARK    2  A    between atoms: N_4  and  C_5
REMARK    3  A    between atoms: C_7  and  N_8
REMARK    4  A    between atoms: C_11  and  C_12
REMARK    5  A    between atoms: C_12  and  O_13
REMARK    6  A    between atoms: O_13  and  C_14
REMARK    7  A    between atoms: C_14  and  C_16
REMARK    8  A    between atoms: C_16  and  N_17
REMARK                            x       y       z     vdW  Elec       q    Type
REMARK                         _______ _______ _______ _____ _____    ______ ____
ROOT
ATOM      1  C   UNL     1       4.769   4.398  17.873  0.00  0.00    +0.000 C 
ATOM      2  C   UNL     1       3.948   3.121  17.842  0.00  0.00    +0.000 C 
ATOM      3  C   UNL     1       2.867   3.456  18.860  0.00  0.00    +0.000 C 
ATOM      4  C   UNL     1       2.587   4.926  18.478  0.00  0.00    +0.000 C 
ATOM      5  O   UNL     1       3.818   5.473  17.955  0.00  0.00    +0.000 OA
ENDROOT
BRANCH   1   9
ATOM      6  C   UNL     1       5.884   3.632  13.091  0.00  0.00    +0.000 C 
ATOM      7  C   UNL     1       6.151   4.210  14.440  0.00  0.00    +0.000 A 
ATOM      8  C   UNL     1       5.410   3.966  15.529  0.00  0.00    +0.000 A 
ATOM      9  N   UNL     1       5.664   4.571  16.744  0.00  0.00    +0.000 N 
ATOM     10  C   UNL     1       6.761   5.396  16.936  0.00  0.00    +0.000 A 
ATOM     11  O   UNL     1       7.045   5.930  18.005  0.00  0.00    +0.000 OA
ATOM     12  N   UNL     1       7.540   5.615  15.832  0.00  0.00    +0.000 N 
ATOM     13  C   UNL     1       7.291   5.150  14.572  0.00  0.00    +0.000 A 
ATOM     14  O   UNL     1       7.965   5.490  13.607  0.00  0.00    +0.000 OA
ATOM     15  H   UNL     1       8.305   6.260  15.937  0.00  0.00    +0.000 HD
ENDBRANCH   1   9
BRANCH   3  16
ATOM     16  N   UNL     1       3.351   3.370  20.255  0.00  0.00    +0.000 NA
ATOM     17  N   UNL     1       2.582   2.932  21.133  0.00  0.00    +0.000 NA
ATOM     18  N   UNL     1       1.891   2.503  21.927  0.00  0.00    +0.000 NA
ENDBRANCH   3  16
BRANCH   4  19
ATOM     19  C   UNL     1       2.061   5.832  19.594  0.00  0.00    +0.000 C 
BRANCH  19  20
ATOM     20  O   UNL     1       2.749   7.088  19.646  0.00  0.00    +0.000 OA
BRANCH  20  21
ATOM     21  C   UNL     1       2.008   8.168  19.268  0.00  0.00    +0.000 C 
ATOM     22  O   UNL     1       1.160   8.715  19.966  0.00  0.00    +0.000 OA
BRANCH  21  23
ATOM     23  C   UNL     1       2.353   8.573  17.841  0.00  0.00    +0.000 C 
BRANCH  23  24
ATOM     24  N   UNL     1       1.751   9.875  17.513  0.00  0.00    +0.000 NA
ATOM     25  H   UNL     1       2.027  10.127  16.560  0.00  0.00    +0.000 HD
ATOM     26  H   UNL     1       2.135  10.591  18.126  0.00  0.00    +0.000 HD
ENDBRANCH  23  24
ENDBRANCH  21  23
ENDBRANCH  20  21
ENDBRANCH  19  20
ENDBRANCH   4  19
TORSDOF 7
ENDMDL
MODEL 4
REMARK VINA RESULT:      -7.0      2.918      3.784
REMARK  Name = 
REMARK  8 active torsions:
REMARK  status: ('A' for Active; 'I' for Inactive)
REMARK    1  A    between atoms: C_1  and  C_2
REMARK    2  A    between atoms: N_4  and  C_5
REMARK    3  A    between atoms: C_7  and  N_8
REMARK    4  A    between atoms: C_11  and  C_12
REMARK    5  A    between atoms: C_12  and  O_13
REMARK    6  A    between atoms: O_13  and  C_14
REMARK    7  A    between atoms: C_14  and  C_16
REMARK    8  A    between atoms: C_16  and  N_17
REMARK                            x       y       z     vdW  Elec       q    Type
REMARK                         _______ _______ _______ _____ _____    ______ ____
ROOT
ATOM      1  C   UNL     1       4.052   4.927  19.175  0.00  0.00    +0.000 C 
ATOM      2  C   UNL     1       2.835   4.033  19.013  0.00  0.00    +0.000 C 
ATOM      3  C   UNL     1       1.844   4.736  19.930  0.00  0.00    +0.000 C 
ATOM      4  C   UNL     1       2.153   6.207  19.581  0.00  0.00    +0.000 C 
ATOM      5  O   UNL     1       3.548   6.273  19.204  0.00  0.00    +0.000 OA
ENDROOT
BRANCH   1   9
ATOM      6  C   UNL     1       5.303   4.253  14.413  0.00  0.00    +0.000 C 
ATOM      7  C   UNL     1       5.628   4.473  15.853  0.00  0.00    +0.000 A 
ATOM      8  C   UNL     1       4.721   4.502  16.838  0.00  0.00    +0.000 A 
ATOM      9  N   UNL     1       5.065   4.766  18.149  0.00  0.00    +0.000 N 
ATOM     10  C   UNL     1       6.384   4.923  18.543  0.00  0.00    +0.000 A 
ATOM     11  O   UNL     1       6.740   5.128  19.700  0.00  0.00    +0.000 OA
ATOM     12  N   UNL     1       7.314   4.855  17.541  0.00  0.00    +0.000 N 
ATOM     13  C   UNL     1       7.048   4.714  16.208  0.00  0.00    +0.000 A 
ATOM     14  O   UNL     1       7.925   4.788  15.357  0.00  0.00    +0.000 OA
ATOM     15  H   UNL     1       8.272   5.028  17.797  0.00  0.00    +0.000 HD
ENDBRANCH   1   9
BRANCH   3  16
ATOM     16  N   UNL     1       2.113   4.480  21.362  0.00  0.00    +0.000 NA
ATOM     17  N   UNL     1       1.907   3.338  21.819  0.00  0.00    +0.000 NA
ATOM     18  N   UNL     1       1.749   2.290  22.227  0.00  0.00    +0.000 NA
ENDBRANCH   3  16
BRANCH   4  19
ATOM     19  C   UNL     1       1.871   7.242  20.673  0.00  0.00    +0.000 C 
BRANCH  19  20
ATOM     20  O   UNL     1       1.417   8.491  20.136  0.00  0.00    +0.000 OA
BRANCH  20  21
ATOM     21  C   UNL     1       0.632   9.227  20.972  0.00  0.00    +0.000 C 
ATOM     22  O   UNL     1      -0.387   9.822  20.635  0.00  0.00    +0.000 OA
BRANCH  21  23
ATOM     23  C   UNL     1       1.222   9.240  22.377  0.00  0.00    +0.000 C 
BRANCH  23  24
ATOM     24  N   UNL     1       0.256   9.795  23.339  0.00  0.00    +0.000 NA
ATOM     25  H   UNL     1       0.772  10.125  24.158  0.00  0.00    +0.000 HD
ATOM     26  H   UNL     1      -0.365   9.056  23.662  0.00  0.00    +0.000 HD
ENDBRANCH  23  24
ENDBRANCH  21  23
ENDBRANCH  20  21
ENDBRANCH  19  20
ENDBRANCH   4  19
TORSDOF 7
ENDMDL
MODEL 5
REMARK VINA RESULT:      -6.9      2.123      2.551
REMARK  Name = 
REMARK  8 active torsions:
REMARK  status: ('A' for Active; 'I' for Inactive)
REMARK    1  A    between atoms: C_1  and  C_2
REMARK    2  A    between atoms: N_4  and  C_5
REMARK    3  A    between atoms: C_7  and  N_8
REMARK    4  A    between atoms: C_11  and  C_12
REMARK    5  A    between atoms: C_12  and  O_13
REMARK    6  A    between atoms: O_13  and  C_14
REMARK    7  A    between atoms: C_14  and  C_16
REMARK    8  A    between atoms: C_16  and  N_17
REMARK                            x       y       z     vdW  Elec       q    Type
REMARK                         _______ _______ _______ _____ _____    ______ ____
ROOT
ATOM      1  C   UNL     1       4.727   4.382  17.894  0.00  0.00    +0.000 C 
ATOM      2  C   UNL     1       4.042   3.027  17.917  0.00  0.00    +0.000 C 
ATOM      3  C   UNL     1       2.895   3.307  18.878  0.00  0.00    +0.000 C 
ATOM      4  C   UNL     1       2.481   4.715  18.397  0.00  0.00    +0.000 C 
ATOM      5  O   UNL     1       3.669   5.355  17.879  0.00  0.00    +0.000 OA
ENDROOT
BRANCH   1   9
ATOM      6  C   UNL     1       5.985   3.621  13.147  0.00  0.00    +0.000 C 
ATOM      7  C   UNL     1       6.197   4.221  14.498  0.00  0.00    +0.000 A 
ATOM      8  C   UNL     1       5.440   3.956  15.570  0.00  0.00    +0.000 A 
ATOM      9  N   UNL     1       5.641   4.581  16.785  0.00  0.00    +0.000 N 
ATOM     10  C   UNL     1       6.700   5.450  16.996  0.00  0.00    +0.000 A 
ATOM     11  O   UNL     1       6.937   6.003  18.067  0.00  0.00    +0.000 OA
ATOM     12  N   UNL     1       7.496   5.689  15.909  0.00  0.00    +0.000 N 
ATOM     13  C   UNL     1       7.297   5.205  14.647  0.00  0.00    +0.000 A 
ATOM     14  O   UNL     1       7.979   5.563  13.696  0.00  0.00    +0.000 OA
ATOM     15  H   UNL     1       8.233   6.365  16.026  0.00  0.00    +0.000 HD
ENDBRANCH   1   9
BRANCH   3  16
ATOM     16  N   UNL     1       3.332   3.354  20.290  0.00  0.00    +0.000 NA
ATOM     17  N   UNL     1       2.570   2.911  21.172  0.00  0.00    +0.000 NA
ATOM     18  N   UNL     1       1.888   2.478  21.971  0.00  0.00    +0.000 NA
ENDBRANCH   3  16
BRANCH   4  19
ATOM     19  C   UNL     1       1.823   5.625  19.437  0.00  0.00    +0.000 C 
BRANCH  19  20
ATOM     20  O   UNL     1       2.603   6.797  19.705  0.00  0.00    +0.000 OA
BRANCH  20  21
ATOM     21  C   UNL     1       2.049   7.969  19.284  0.00  0.00    +0.000 C 
ATOM     22  O   UNL     1       2.235   8.477  18.182  0.00  0.00    +0.000 OA
BRANCH  21  23
ATOM     23  C   UNL     1       1.198   8.580  20.391  0.00  0.00    +0.000 C 
BRANCH  23  24
ATOM     24  N   UNL     1       1.796   8.314  21.709  0.00  0.00    +0.000 NA
ATOM     25  H   UNL     1       2.792   8.541  21.663  0.00  0.00    +0.000 HD
ATOM     26  H   UNL     1       1.732   7.319  21.917  0.00  0.00    +0.000 HD
ENDBRANCH  23  24
ENDBRANCH  21  23
ENDBRANCH  20  21
ENDBRANCH  19  20
ENDBRANCH   4  19
TORSDOF 7
ENDMDL
MODEL 6
REMARK VINA RESULT:      -6.8      2.633      3.085
REMARK  Name = 
REMARK  8 active torsions:
REMARK  status: ('A' for Active; 'I' for Inactive)
REMARK    1  A    between atoms: C_1  and  C_2
REMARK    2  A    between atoms: N_4  and  C_5
REMARK    3  A    between atoms: C_7  and  N_8
REMARK    4  A    between atoms: C_11  and  C_12
REMARK    5  A    between atoms: C_12  and  O_13
REMARK    6  A    between atoms: O_13  and  C_14
REMARK    7  A    between atoms: C_14  and  C_16
REMARK    8  A    between atoms: C_16  and  N_17
REMARK                            x       y       z     vdW  Elec       q    Type
REMARK                         _______ _______ _______ _____ _____    ______ ____
ROOT
ATOM      1  C   UNL     1       4.553   5.044  18.140  0.00  0.00    +0.000 C 
ATOM      2  C   UNL     1       3.487   3.962  18.119  0.00  0.00    +0.000 C 
ATOM      3  C   UNL     1       2.493   4.526  19.124  0.00  0.00    +0.000 C 
ATOM      4  C   UNL     1       2.522   6.017  18.722  0.00  0.00    +0.000 C 
ATOM      5  O   UNL     1       3.843   6.292  18.201  0.00  0.00    +0.000 OA
ENDROOT
BRANCH   1   9
ATOM      6  C   UNL     1       5.601   3.754  13.457  0.00  0.00    +0.000 C 
ATOM      7  C   UNL     1       5.926   4.407  14.759  0.00  0.00    +0.000 A 
ATOM      8  C   UNL     1       5.153   4.344  15.851  0.00  0.00    +0.000 A 
ATOM      9  N   UNL     1       5.470   5.014  17.016  0.00  0.00    +0.000 N 
ATOM     10  C   UNL     1       6.657   5.715  17.159  0.00  0.00    +0.000 A 
ATOM     11  O   UNL     1       6.996   6.298  18.185  0.00  0.00    +0.000 OA
ATOM     12  N   UNL     1       7.464   5.746  16.054  0.00  0.00    +0.000 N 
ATOM     13  C   UNL     1       7.170   5.211  14.832  0.00  0.00    +0.000 A 
ATOM     14  O   UNL     1       7.886   5.386  13.854  0.00  0.00    +0.000 OA
ATOM     15  H   UNL     1       8.300   6.302  16.118  0.00  0.00    +0.000 HD
ENDBRANCH   1   9
BRANCH   3  16
ATOM     16  N   UNL     1       2.942   4.362  20.524  0.00  0.00    +0.000 NA
ATOM     17  N   UNL     1       2.321   3.575  21.267  0.00  0.00    +0.000 NA
ATOM     18  N   UNL     1       1.776   2.836  21.934  0.00  0.00    +0.000 NA
ENDBRANCH   3  16
BRANCH   4  19
ATOM     19  C   UNL     1       2.188   7.027  19.822  0.00  0.00    +0.000 C 
BRANCH  19  20
ATOM     20  O   UNL     1       1.833   8.310  19.294  0.00  0.00    +0.000 OA
BRANCH  20  21
ATOM     21  C   UNL     1       1.116   9.105  20.138  0.00  0.00    +0.000 C 
ATOM     22  O   UNL     1       0.555  10.147  19.814  0.00  0.00    +0.000 OA
BRANCH  21  23
ATOM     23  C   UNL     1       1.146   8.536  21.551  0.00  0.00    +0.000 C 
BRANCH  23  24
ATOM     24  N   UNL     1       1.282   9.617  22.541  0.00  0.00    +0.000 NA
ATOM     25  H   UNL     1       1.934  10.313  22.170  0.00  0.00    +0.000 HD
ATOM     26  H   UNL     1       1.700   9.248  23.392  0.00  0.00    +0.000 HD
ENDBRANCH  23  24
ENDBRANCH  21  23
ENDBRANCH  20  21
ENDBRANCH  19  20
ENDBRANCH   4  19
TORSDOF 7
ENDMDL
MODEL 7
REMARK VINA RESULT:      -6.8      1.235      1.539
REMARK  Name = 
REMARK  8 active torsions:
REMARK  status: ('A' for Active; 'I' for Inactive)
REMARK    1  A    between atoms: C_1  and  C_2
REMARK    2  A    between atoms: N_4  and  C_5
REMARK    3  A    between atoms: C_7  and  N_8
REMARK    4  A    between atoms: C_11  and  C_12
REMARK    5  A    between atoms: C_12  and  O_13
REMARK    6  A    between atoms: O_13  and  C_14
REMARK    7  A    between atoms: C_14  and  C_16
REMARK    8  A    between atoms: C_16  and  N_17
REMARK                            x       y       z     vdW  Elec       q    Type
REMARK                         _______ _______ _______ _____ _____    ______ ____
ROOT
ATOM      1  C   UNL     1       4.805   3.746  17.154  0.00  0.00    +0.000 C 
ATOM      2  C   UNL     1       4.719   2.253  17.414  0.00  0.00    +0.000 C 
ATOM      3  C   UNL     1       3.433   2.181  18.224  0.00  0.00    +0.000 C 
ATOM      4  C   UNL     1       2.565   3.188  17.440  0.00  0.00    +0.000 C 
ATOM      5  O   UNL     1       3.461   4.173  16.875  0.00  0.00    +0.000 OA
ENDROOT
BRANCH   1   9
ATOM      6  C   UNL     1       6.219   3.485  12.397  0.00  0.00    +0.000 C 
ATOM      7  C   UNL     1       6.341   4.000  13.792  0.00  0.00    +0.000 A 
ATOM      8  C   UNL     1       5.599   3.576  14.824  0.00  0.00    +0.000 A 
ATOM      9  N   UNL     1       5.710   4.125  16.086  0.00  0.00    +0.000 N 
ATOM     10  C   UNL     1       6.664   5.085  16.386  0.00  0.00    +0.000 A 
ATOM     11  O   UNL     1       6.821   5.579  17.499  0.00  0.00    +0.000 OA
ATOM     12  N   UNL     1       7.447   5.491  15.339  0.00  0.00    +0.000 N 
ATOM     13  C   UNL     1       7.323   5.084  14.041  0.00  0.00    +0.000 A 
ATOM     14  O   UNL     1       7.979   5.584  13.136  0.00  0.00    +0.000 OA
ATOM     15  H   UNL     1       8.103   6.231  15.523  0.00  0.00    +0.000 HD
ENDBRANCH   1   9
BRANCH   3  16
ATOM     16  N   UNL     1       3.613   2.634  19.621  0.00  0.00    +0.000 NA
ATOM     17  N   UNL     1       4.467   2.068  20.333  0.00  0.00    +0.000 NA
ATOM     18  N   UNL     1       5.266   1.574  20.970  0.00  0.00    +0.000 NA
ENDBRANCH   3  16
BRANCH   4  19
ATOM     19  C   UNL     1       1.461   3.897  18.229  0.00  0.00    +0.000 C 
BRANCH  19  20
ATOM     20  O   UNL     1       1.716   5.299  18.381  0.00  0.00    +0.000 OA
BRANCH  20  21
ATOM     21  C   UNL     1       2.170   5.674  19.611  0.00  0.00    +0.000 C 
ATOM     22  O   UNL     1       1.560   5.510  20.663  0.00  0.00    +0.000 OA
BRANCH  21  23
ATOM     23  C   UNL     1       3.523   6.362  19.488  0.00  0.00    +0.000 C 
BRANCH  23  24
ATOM     24  N   UNL     1       4.613   5.419  19.784  0.00  0.00    +0.000 NA
ATOM     25  H   UNL     1       4.925   5.579  20.744  0.00  0.00    +0.000 HD
ATOM     26  H   UNL     1       5.409   5.618  19.181  0.00  0.00    +0.000 HD
ENDBRANCH  23  24
ENDBRANCH  21  23
ENDBRANCH  20  21
ENDBRANCH  19  20
ENDBRANCH   4  19
TORSDOF 7
ENDMDL
MODEL 8
REMARK VINA RESULT:      -6.7      2.182      2.592
REMARK  Name = 
REMARK  8 active torsions:
REMARK  status: ('A' for Active; 'I' for Inactive)
REMARK    1  A    between atoms: C_1  and  C_2
REMARK    2  A    between atoms: N_4  and  C_5
REMARK    3  A    between atoms: C_7  and  N_8
REMARK    4  A    between atoms: C_11  and  C_12
REMARK    5  A    between atoms: C_12  and  O_13
REMARK    6  A    between atoms: O_13  and  C_14
REMARK    7  A    between atoms: C_14  and  C_16
REMARK    8  A    between atoms: C_16  and  N_17
REMARK                            x       y       z     vdW  Elec       q    Type
REMARK                         _______ _______ _______ _____ _____    ______ ____
ROOT
ATOM      1  C   UNL     1       4.884   4.811  16.843  0.00  0.00    +0.000 C 
ATOM      2  C   UNL     1       5.009   6.107  17.624  0.00  0.00    +0.000 C 
ATOM      3  C   UNL     1       4.401   5.694  18.957  0.00  0.00    +0.000 C 
ATOM      4  C   UNL     1       5.013   4.285  19.105  0.00  0.00    +0.000 C 
ATOM      5  O   UNL     1       5.209   3.762  17.771  0.00  0.00    +0.000 OA
ENDROOT
BRANCH   1   9
ATOM      6  C   UNL     1       5.589   3.291  12.165  0.00  0.00    +0.000 C 
ATOM      7  C   UNL     1       6.001   4.018  13.401  0.00  0.00    +0.000 A 
ATOM      8  C   UNL     1       5.318   4.000  14.553  0.00  0.00    +0.000 A 
ATOM      9  N   UNL     1       5.710   4.737  15.653  0.00  0.00    +0.000 N 
ATOM     10  C   UNL     1       6.889   5.465  15.665  0.00  0.00    +0.000 A 
ATOM     11  O   UNL     1       7.294   6.109  16.629  0.00  0.00    +0.000 OA
ATOM     12  N   UNL     1       7.606   5.451  14.499  0.00  0.00    +0.000 N 
ATOM     13  C   UNL     1       7.229   4.846  13.334  0.00  0.00    +0.000 A 
ATOM     14  O   UNL     1       7.863   4.982  12.294  0.00  0.00    +0.000 OA
ATOM     15  H   UNL     1       8.433   6.024  14.468  0.00  0.00    +0.000 HD
ENDBRANCH   1   9
BRANCH   3  16
ATOM     16  N   UNL     1       2.925   5.612  18.909  0.00  0.00    +0.000 NA
ATOM     17  N   UNL     1       2.263   6.119  19.836  0.00  0.00    +0.000 NA
ATOM     18  N   UNL     1       1.660   6.609  20.664  0.00  0.00    +0.000 NA
ENDBRANCH   3  16
BRANCH   4  19
ATOM     19  C   UNL     1       4.214   3.277  19.934  0.00  0.00    +0.000 C 
BRANCH  19  20
ATOM     20  O   UNL     1       3.635   2.244  19.126  0.00  0.00    +0.000 OA
BRANCH  20  21
ATOM     21  C   UNL     1       2.307   2.394  18.862  0.00  0.00    +0.000 C 
ATOM     22  O   UNL     1       1.825   2.524  17.741  0.00  0.00    +0.000 OA
BRANCH  21  23
ATOM     23  C   UNL     1       1.509   2.420  20.160  0.00  0.00    +0.000 C 
BRANCH  23  24
ATOM     24  N   UNL     1       0.667   3.625  20.227  0.00  0.00    +0.000 NA
ATOM     25  H   UNL     1       0.422   3.900  19.273  0.00  0.00    +0.000 HD
ATOM     26  H   UNL     1       1.205   4.394  20.623  0.00  0.00    +0.000 HD
ENDBRANCH  23  24
ENDBRANCH  21  23
ENDBRANCH  20  21
ENDBRANCH  19  20
ENDBRANCH   4  19
TORSDOF 7
ENDMDL
MODEL 9
REMARK VINA RESULT:      -6.7      2.383      3.048
REMARK  Name = 
REMARK  8 active torsions:
REMARK  status: ('A' for Active; 'I' for Inactive)
REMARK    1  A    between atoms: C_1  and  C_2
REMARK    2  A    between atoms: N_4  and  C_5
REMARK    3  A    between atoms: C_7  and  N_8
REMARK    4  A    between atoms: C_11  and  C_12
REMARK    5  A    between atoms: C_12  and  O_13
REMARK    6  A    between atoms: O_13  and  C_14
REMARK    7  A    between atoms: C_14  and  C_16
REMARK    8  A    between atoms: C_16  and  N_17
REMARK                            x       y       z     vdW  Elec       q    Type
REMARK                         _______ _______ _______ _____ _____    ______ ____
ROOT
ATOM      1  C   UNL     1       4.568   4.157  18.702  0.00  0.00    +0.000 C 
ATOM      2  C   UNL     1       3.421   3.192  18.460  0.00  0.00    +0.000 C 
ATOM      3  C   UNL     1       2.481   3.583  19.592  0.00  0.00    +0.000 C 
ATOM      4  C   UNL     1       2.625   5.119  19.541  0.00  0.00    +0.000 C 
ATOM      5  O   UNL     1       3.959   5.407  19.064  0.00  0.00    +0.000 OA
ENDROOT
BRANCH   1   9
ATOM      6  C   UNL     1       5.414   4.140  13.805  0.00  0.00    +0.000 C 
ATOM      7  C   UNL     1       5.834   4.330  15.224  0.00  0.00    +0.000 A 
ATOM      8  C   UNL     1       5.058   4.070  16.284  0.00  0.00    +0.000 A 
ATOM      9  N   UNL     1       5.473   4.317  17.578  0.00  0.00    +0.000 N 
ATOM     10  C   UNL     1       6.754   4.760  17.865  0.00  0.00    +0.000 A 
ATOM     11  O   UNL     1       7.177   4.963  19.000  0.00  0.00    +0.000 OA
ATOM     12  N   UNL     1       7.559   4.989  16.782  0.00  0.00    +0.000 N 
ATOM     13  C   UNL     1       7.188   4.882  15.472  0.00  0.00    +0.000 A 
ATOM     14  O   UNL     1       7.926   5.224  14.556  0.00  0.00    +0.000 OA
ATOM     15  H   UNL     1       8.472   5.370  16.967  0.00  0.00    +0.000 HD
ENDBRANCH   1   9
BRANCH   3  16
ATOM     16  N   UNL     1       2.925   3.068  20.906  0.00  0.00    +0.000 NA
ATOM     17  N   UNL     1       2.070   2.640  21.706  0.00  0.00    +0.000 NA
ATOM     18  N   UNL     1       1.293   2.222  22.421  0.00  0.00    +0.000 NA
ENDBRANCH   3  16
BRANCH   4  19
ATOM     19  C   UNL     1       2.379   5.872  20.851  0.00  0.00    +0.000 C 
BRANCH  19  20
ATOM     20  O   UNL     1       1.198   6.683  20.800  0.00  0.00    +0.000 OA
BRANCH  20  21
ATOM     21  C   UNL     1       1.415   8.001  20.534  0.00  0.00    +0.000 C 
ATOM     22  O   UNL     1       1.966   8.432  19.526  0.00  0.00    +0.000 OA
BRANCH  21  23
ATOM     23  C   UNL     1       0.912   8.863  21.686  0.00  0.00    +0.000 C 
BRANCH  23  24
ATOM     24  N   UNL     1       1.997   9.131  22.643  0.00  0.00    +0.000 NA
ATOM     25  H   UNL     1       1.613   9.072  23.589  0.00  0.00    +0.000 HD
ATOM     26  H   UNL     1       2.329  10.086  22.521  0.00  0.00    +0.000 HD
ENDBRANCH  23  24
ENDBRANCH  21  23
ENDBRANCH  20  21
ENDBRANCH  19  20
ENDBRANCH   4  19
TORSDOF 7
ENDMDL
