MODEL 1
REMARK VINA RESULT:      -8.1      0.000      0.000
REMARK  Name = 
REMARK  2 active torsions:
REMARK  status: ('A' for Active; 'I' for Inactive)
REMARK    1  A    between atoms: C_1  and  C_2
REMARK    2  A    between atoms: C_5  and  C_6
REMARK                            x       y       z     vdW  Elec       q    Type
REMARK                         _______ _______ _______ _____ _____    ______ ____
ROOT
ATOM      1  C   UNL     1       2.828   8.644  17.837  0.00  0.00    +0.000 C 
ATOM      2  C   UNL     1       2.625   7.359  18.590  0.00  0.00    +0.000 A 
ATOM      3  C   UNL     1       1.848   7.360  19.744  0.00  0.00    +0.000 A 
ATOM      4  C   UNL     1       1.657   6.182  20.456  0.00  0.00    +0.000 A 
ATOM      5  C   UNL     1       2.229   4.968  20.037  0.00  0.00    +0.000 A 
ATOM      6  C   UNL     1       1.945   3.774  20.912  0.00  0.00    +0.000 C 
ATOM      7  C   UNL     1       3.017   4.937  18.854  0.00  0.00    +0.000 A 
ATOM      8  C   UNL     1       3.209   6.153  18.154  0.00  0.00    +0.000 A 
ATOM      9  O   UNL     1       3.939   6.260  16.995  0.00  0.00    +0.000 OA
ATOM     10  C   UNL     1       4.846   5.201  16.716  0.00  0.00    +0.000 C 
ATOM     11  C   UNL     1       4.186   3.854  16.879  0.00  0.00    +0.000 C 
ATOM     12  C   UNL     1       3.720   3.694  18.325  0.00  0.00    +0.000 C 
ATOM     13  N   UNL     1       4.826   3.327  19.197  0.00  0.00    +0.000 N 
ATOM     14  C   UNL     1       4.639   2.094  19.773  0.00  0.00    +0.000 C 
ATOM     15  O   UNL     1       5.293   1.650  20.698  0.00  0.00    +0.000 OA
ATOM     16  N   UNL     1       3.566   1.505  19.198  0.00  0.00    +0.000 N 
ATOM     17  C   UNL     1       2.912   2.384  18.387  0.00  0.00    +0.000 C 
ATOM     18  O   UNL     1       1.846   2.147  17.833  0.00  0.00    +0.000 OA
ATOM     19  H   UNL     1       5.467   3.987  19.618  0.00  0.00    +0.000 HD
ATOM     20  H   UNL     1       3.183   0.626  19.500  0.00  0.00    +0.000 HD
ENDROOT
TORSDOF 0
ENDMDL
MODEL 2
REMARK VINA RESULT:      -7.6      1.634      2.247
REMARK  Name = 
REMARK  2 active torsions:
REMARK  status: ('A' for Active; 'I' for Inactive)
REMARK    1  A    between atoms: C_1  and  C_2
REMARK    2  A    between atoms: C_5  and  C_6
REMARK                            x       y       z     vdW  Elec       q    Type
REMARK                         _______ _______ _______ _____ _____    ______ ____
ROOT
ATOM      1  C   UNL     1       5.139   6.633  16.001  0.00  0.00    +0.000 C 
ATOM      2  C   UNL     1       4.163   6.334  17.104  0.00  0.00    +0.000 A 
ATOM      3  C   UNL     1       3.534   7.386  17.762  0.00  0.00    +0.000 A 
ATOM      4  C   UNL     1       2.635   7.128  18.789  0.00  0.00    +0.000 A 
ATOM      5  C   UNL     1       2.333   5.814  19.189  0.00  0.00    +0.000 A 
ATOM      6  C   UNL     1       1.349   5.685  20.323  0.00  0.00    +0.000 C 
ATOM      7  C   UNL     1       2.954   4.720  18.526  0.00  0.00    +0.000 A 
ATOM      8  C   UNL     1       3.876   5.010  17.491  0.00  0.00    +0.000 A 
ATOM      9  O   UNL     1       4.537   4.049  16.766  0.00  0.00    +0.000 OA
ATOM     10  C   UNL     1       4.591   2.747  17.337  0.00  0.00    +0.000 C 
ATOM     11  C   UNL     1       3.232   2.300  17.816  0.00  0.00    +0.000 C 
ATOM     12  C   UNL     1       2.738   3.259  18.897  0.00  0.00    +0.000 C 
ATOM     13  N   UNL     1       3.355   2.966  20.182  0.00  0.00    +0.000 N 
ATOM     14  C   UNL     1       2.428   2.592  21.124  0.00  0.00    +0.000 C 
ATOM     15  O   UNL     1       2.644   2.505  22.319  0.00  0.00    +0.000 OA
ATOM     16  N   UNL     1       1.235   2.419  20.513  0.00  0.00    +0.000 N 
ATOM     17  C   UNL     1       1.288   2.851  19.221  0.00  0.00    +0.000 C 
ATOM     18  O   UNL     1       0.319   2.916  18.475  0.00  0.00    +0.000 OA
ATOM     19  H   UNL     1       4.260   3.313  20.475  0.00  0.00    +0.000 HD
ATOM     20  H   UNL     1       0.381   2.215  21.002  0.00  0.00    +0.000 HD
ENDROOT
TORSDOF 0
ENDMDL
MODEL 3
REMARK VINA RESULT:      -7.3      2.204      3.960
REMARK  Name = 
REMARK  2 active torsions:
REMARK  status: ('A' for Active; 'I' for Inactive)
REMARK    1  A    between atoms: C_1  and  C_2
REMARK    2  A    between atoms: C_5  and  C_6
REMARK                            x       y       z     vdW  Elec       q    Type
REMARK                         _______ _______ _______ _____ _____    ______ ____
ROOT
ATOM      1  C   UNL     1       1.297   6.161  20.666  0.00  0.00    +0.000 C 
ATOM      2  C   UNL     1       2.335   6.330  19.591  0.00  0.00    +0.000 A 
ATOM      3  C   UNL     1       2.337   7.487  18.820  0.00  0.00    +0.000 A 
ATOM      4  C   UNL     1       3.284   7.654  17.817  0.00  0.00    +0.000 A 
ATOM      5  C   UNL     1       4.259   6.676  17.557  0.00  0.00    +0.000 A 
ATOM      6  C   UNL     1       5.215   6.987  16.433  0.00  0.00    +0.000 C 
ATOM      7  C   UNL     1       4.287   5.488  18.338  0.00  0.00    +0.000 A 
ATOM      8  C   UNL     1       3.303   5.335  19.345  0.00  0.00    +0.000 A 
ATOM      9  O   UNL     1       3.222   4.244  20.175  0.00  0.00    +0.000 OA
ATOM     10  C   UNL     1       3.900   3.069  19.746  0.00  0.00    +0.000 C 
ATOM     11  C   UNL     1       5.309   3.376  19.305  0.00  0.00    +0.000 C 
ATOM     12  C   UNL     1       5.267   4.343  18.122  0.00  0.00    +0.000 C 
ATOM     13  N   UNL     1       4.965   3.644  16.883  0.00  0.00    +0.000 N 
ATOM     14  C   UNL     1       5.994   3.737  15.977  0.00  0.00    +0.000 C 
ATOM     15  O   UNL     1       5.917   3.436  14.800  0.00  0.00    +0.000 OA
ATOM     16  N   UNL     1       7.063   4.290  16.592  0.00  0.00    +0.000 N 
ATOM     17  C   UNL     1       6.725   4.747  17.830  0.00  0.00    +0.000 C 
ATOM     18  O   UNL     1       7.472   5.392  18.556  0.00  0.00    +0.000 OA
ATOM     19  H   UNL     1       4.031   3.423  16.562  0.00  0.00    +0.000 HD
ATOM     20  H   UNL     1       7.918   4.530  16.118  0.00  0.00    +0.000 HD
ENDROOT
TORSDOF 0
ENDMDL
MODEL 4
REMARK VINA RESULT:      -7.0      2.591      4.724
REMARK  Name = 
REMARK  2 active torsions:
REMARK  status: ('A' for Active; 'I' for Inactive)
REMARK    1  A    between atoms: C_1  and  C_2
REMARK    2  A    between atoms: C_5  and  C_6
REMARK                            x       y       z     vdW  Elec       q    Type
REMARK                         _______ _______ _______ _____ _____    ______ ____
ROOT
ATOM      1  C   UNL     1       0.763   3.239  18.793  0.00  0.00    +0.000 C 
ATOM      2  C   UNL     1       2.114   3.421  18.160  0.00  0.00    +0.000 A 
ATOM      3  C   UNL     1       2.769   2.319  17.620  0.00  0.00    +0.000 A 
ATOM      4  C   UNL     1       4.022   2.469  17.038  0.00  0.00    +0.000 A 
ATOM      5  C   UNL     1       4.656   3.722  16.972  0.00  0.00    +0.000 A 
ATOM      6  C   UNL     1       6.017   3.733  16.323  0.00  0.00    +0.000 C 
ATOM      7  C   UNL     1       4.004   4.867  17.506  0.00  0.00    +0.000 A 
ATOM      8  C   UNL     1       2.735   4.686  18.106  0.00  0.00    +0.000 A 
ATOM      9  O   UNL     1       1.994   5.706  18.651  0.00  0.00    +0.000 OA
ATOM     10  C   UNL     1       2.697   6.901  18.969  0.00  0.00    +0.000 C 
ATOM     11  C   UNL     1       3.571   7.347  17.824  0.00  0.00    +0.000 C 
ATOM     12  C   UNL     1       4.609   6.264  17.530  0.00  0.00    +0.000 C 
ATOM     13  N   UNL     1       5.712   6.323  18.476  0.00  0.00    +0.000 N 
ATOM     14  C   UNL     1       6.906   6.602  17.857  0.00  0.00    +0.000 C 
ATOM     15  O   UNL     1       8.003   6.494  18.374  0.00  0.00    +0.000 OA
ATOM     16  N   UNL     1       6.659   6.933  16.570  0.00  0.00    +0.000 N 
ATOM     17  C   UNL     1       5.354   6.700  16.254  0.00  0.00    +0.000 C 
ATOM     18  O   UNL     1       4.888   6.805  15.127  0.00  0.00    +0.000 OA
ATOM     19  H   UNL     1       5.709   5.885  19.389  0.00  0.00    +0.000 HD
ATOM     20  H   UNL     1       7.379   7.109  15.890  0.00  0.00    +0.000 HD
ENDROOT
TORSDOF 0
ENDMDL
MODEL 5
REMARK VINA RESULT:      -6.8      2.611      4.978
REMARK  Name = 
REMARK  2 active torsions:
REMARK  status: ('A' for Active; 'I' for Inactive)
REMARK    1  A    between atoms: C_1  and  C_2
REMARK    2  A    between atoms: C_5  and  C_6
REMARK                            x       y       z     vdW  Elec       q    Type
REMARK                         _______ _______ _______ _____ _____    ______ ____
ROOT
ATOM      1  C   UNL     1       7.934   5.312  13.521  0.00  0.00    +0.000 C 
ATOM      2  C   UNL     1       6.815   4.909  14.442  0.00  0.00    +0.000 A 
ATOM      3  C   UNL     1       5.884   3.968  14.014  0.00  0.00    +0.000 A 
ATOM      4  C   UNL     1       4.840   3.591  14.849  0.00  0.00    +0.000 A 
ATOM      5  C   UNL     1       4.695   4.137  16.137  0.00  0.00    +0.000 A 
ATOM      6  C   UNL     1       3.510   3.643  16.927  0.00  0.00    +0.000 C 
ATOM      7  C   UNL     1       5.639   5.093  16.603  0.00  0.00    +0.000 A 
ATOM      8  C   UNL     1       6.686   5.470  15.728  0.00  0.00    +0.000 A 
ATOM      9  O   UNL     1       7.667   6.374  16.056  0.00  0.00    +0.000 OA
ATOM     10  C   UNL     1       7.394   7.239  17.151  0.00  0.00    +0.000 C 
ATOM     11  C   UNL     1       6.870   6.473  18.341  0.00  0.00    +0.000 C 
ATOM     12  C   UNL     1       5.562   5.781  17.959  0.00  0.00    +0.000 C 
ATOM     13  N   UNL     1       4.446   6.714  17.991  0.00  0.00    +0.000 N 
ATOM     14  C   UNL     1       3.506   6.359  18.927  0.00  0.00    +0.000 C 
ATOM     15  O   UNL     1       2.388   6.833  19.009  0.00  0.00    +0.000 OA
ATOM     16  N   UNL     1       4.002   5.349  19.677  0.00  0.00    +0.000 N 
ATOM     17  C   UNL     1       5.171   4.887  19.150  0.00  0.00    +0.000 C 
ATOM     18  O   UNL     1       5.772   3.904  19.564  0.00  0.00    +0.000 OA
ATOM     19  H   UNL     1       4.189   7.327  17.228  0.00  0.00    +0.000 HD
ATOM     20  H   UNL     1       3.473   4.865  20.383  0.00  0.00    +0.000 HD
ENDROOT
TORSDOF 0
ENDMDL
MODEL 6
REMARK VINA RESULT:      -6.8      2.109      2.975
REMARK  Name = 
REMARK  2 active torsions:
REMARK  status: ('A' for Active; 'I' for Inactive)
REMARK    1  A    between atoms: C_1  and  C_2
REMARK    2  A    between atoms: C_5  and  C_6
REMARK                            x       y       z     vdW  Elec       q    Type
REMARK                         _______ _______ _______ _____ _____    ______ ____
ROOT
ATOM      1  C   UNL     1       0.929   7.076  20.823  0.00  0.00    +0.000 C 
ATOM      2  C   UNL     1       1.884   5.985  20.427  0.00  0.00    +0.000 A 
ATOM      3  C   UNL     1       1.888   4.789  21.138  0.00  0.00    +0.000 A 
ATOM      4  C   UNL     1       2.770   3.774  20.789  0.00  0.00    +0.000 A 
ATOM      5  C   UNL     1       3.670   3.918  19.718  0.00  0.00    +0.000 A 
ATOM      6  C   UNL     1       4.574   2.739  19.461  0.00  0.00    +0.000 C 
ATOM      7  C   UNL     1       3.679   5.125  18.967  0.00  0.00    +0.000 A 
ATOM      8  C   UNL     1       2.780   6.150  19.351  0.00  0.00    +0.000 A 
ATOM      9  O   UNL     1       2.680   7.359  18.707  0.00  0.00    +0.000 OA
ATOM     10  C   UNL     1       3.779   7.734  17.886  0.00  0.00    +0.000 C 
ATOM     11  C   UNL     1       4.195   6.608  16.974  0.00  0.00    +0.000 C 
ATOM     12  C   UNL     1       4.634   5.412  17.817  0.00  0.00    +0.000 C 
ATOM     13  N   UNL     1       5.989   5.590  18.315  0.00  0.00    +0.000 N 
ATOM     14  C   UNL     1       6.844   4.629  17.832  0.00  0.00    +0.000 C 
ATOM     15  O   UNL     1       7.966   4.417  18.256  0.00  0.00    +0.000 OA
ATOM     16  N   UNL     1       6.203   3.918  16.878  0.00  0.00    +0.000 N 
ATOM     17  C   UNL     1       4.881   4.248  16.838  0.00  0.00    +0.000 C 
ATOM     18  O   UNL     1       4.049   3.676  16.146  0.00  0.00    +0.000 OA
ATOM     19  H   UNL     1       6.228   6.100  19.156  0.00  0.00    +0.000 HD
ATOM     20  H   UNL     1       6.595   3.110  16.425  0.00  0.00    +0.000 HD
ENDROOT
TORSDOF 0
ENDMDL
MODEL 7
REMARK VINA RESULT:      -6.7      1.691      3.669
REMARK  Name = 
REMARK  2 active torsions:
REMARK  status: ('A' for Active; 'I' for Inactive)
REMARK    1  A    between atoms: C_1  and  C_2
REMARK    2  A    between atoms: C_5  and  C_6
REMARK                            x       y       z     vdW  Elec       q    Type
REMARK                         _______ _______ _______ _____ _____    ______ ____
ROOT
ATOM      1  C   UNL     1       5.582   7.366  16.850  0.00  0.00    +0.000 C 
ATOM      2  C   UNL     1       5.092   5.964  17.082  0.00  0.00    +0.000 A 
ATOM      3  C   UNL     1       5.613   4.924  16.318  0.00  0.00    +0.000 A 
ATOM      4  C   UNL     1       5.166   3.624  16.515  0.00  0.00    +0.000 A 
ATOM      5  C   UNL     1       4.190   3.320  17.480  0.00  0.00    +0.000 A 
ATOM      6  C   UNL     1       3.794   1.868  17.575  0.00  0.00    +0.000 C 
ATOM      7  C   UNL     1       3.649   4.362  18.282  0.00  0.00    +0.000 A 
ATOM      8  C   UNL     1       4.111   5.680  18.054  0.00  0.00    +0.000 A 
ATOM      9  O   UNL     1       3.680   6.775  18.762  0.00  0.00    +0.000 OA
ATOM     10  C   UNL     1       2.454   6.630  19.468  0.00  0.00    +0.000 C 
ATOM     11  C   UNL     1       2.428   5.355  20.272  0.00  0.00    +0.000 C 
ATOM     12  C   UNL     1       2.561   4.161  19.328  0.00  0.00    +0.000 C 
ATOM     13  N   UNL     1       1.292   3.854  18.686  0.00  0.00    +0.000 N 
ATOM     14  C   UNL     1       0.836   2.602  19.021  0.00  0.00    +0.000 C 
ATOM     15  O   UNL     1      -0.074   2.019  18.462  0.00  0.00    +0.000 OA
ATOM     16  N   UNL     1       1.616   2.107  20.007  0.00  0.00    +0.000 N 
ATOM     17  C   UNL     1       2.699   2.909  20.215  0.00  0.00    +0.000 C 
ATOM     18  O   UNL     1       3.623   2.637  20.970  0.00  0.00    +0.000 OA
ATOM     19  H   UNL     1       0.948   4.308  17.849  0.00  0.00    +0.000 HD
ATOM     20  H   UNL     1       1.529   1.174  20.373  0.00  0.00    +0.000 HD
ENDROOT
TORSDOF 0
ENDMDL
MODEL 8
REMARK VINA RESULT:      -6.7      1.626      3.315
REMARK  Name = 
REMARK  2 active torsions:
REMARK  status: ('A' for Active; 'I' for Inactive)
REMARK    1  A    between atoms: C_1  and  C_2
REMARK    2  A    between atoms: C_5  and  C_6
REMARK                            x       y       z     vdW  Elec       q    Type
REMARK                         _______ _______ _______ _____ _____    ______ ____
ROOT
ATOM      1  C   UNL     1       1.286   9.030  19.760  0.00  0.00    +0.000 C 
ATOM      2  C   UNL     1       2.137   8.044  19.008  0.00  0.00    +0.000 A 
ATOM      3  C   UNL     1       2.747   8.434  17.820  0.00  0.00    +0.000 A 
ATOM      4  C   UNL     1       3.530   7.532  17.110  0.00  0.00    +0.000 A 
ATOM      5  C   UNL     1       3.732   6.217  17.565  0.00  0.00    +0.000 A 
ATOM      6  C   UNL     1       4.596   5.347  16.688  0.00  0.00    +0.000 C 
ATOM      7  C   UNL     1       3.130   5.796  18.783  0.00  0.00    +0.000 A 
ATOM      8  C   UNL     1       2.325   6.729  19.481  0.00  0.00    +0.000 A 
ATOM      9  O   UNL     1       1.695   6.455  20.670  0.00  0.00    +0.000 OA
ATOM     10  C   UNL     1       1.529   5.082  20.999  0.00  0.00    +0.000 C 
ATOM     11  C   UNL     1       2.813   4.312  20.817  0.00  0.00    +0.000 C 
ATOM     12  C   UNL     1       3.243   4.388  19.352  0.00  0.00    +0.000 C 
ATOM     13  N   UNL     1       2.492   3.448  18.535  0.00  0.00    +0.000 N 
ATOM     14  C   UNL     1       3.306   2.502  17.961  0.00  0.00    +0.000 C 
ATOM     15  O   UNL     1       2.973   1.743  17.070  0.00  0.00    +0.000 OA
ATOM     16  N   UNL     1       4.544   2.616  18.492  0.00  0.00    +0.000 N 
ATOM     17  C   UNL     1       4.635   3.734  19.266  0.00  0.00    +0.000 C 
ATOM     18  O   UNL     1       5.674   4.139  19.773  0.00  0.00    +0.000 OA
ATOM     19  H   UNL     1       1.580   3.635  18.138  0.00  0.00    +0.000 HD
ATOM     20  H   UNL     1       5.337   2.082  18.181  0.00  0.00    +0.000 HD
ENDROOT
TORSDOF 0
ENDMDL
MODEL 9
REMARK VINA RESULT:      -6.6      2.047      3.491
REMARK  Name = 
REMARK  2 active torsions:
REMARK  status: ('A' for Active; 'I' for Inactive)
REMARK    1  A    between atoms: C_1  and  C_2
REMARK    2  A    between atoms: C_5  and  C_6
REMARK                            x       y       z     vdW  Elec       q    Type
REMARK                         _______ _______ _______ _____ _____    ______ ____
ROOT
ATOM      1  C   UNL     1       6.802   4.661  15.209  0.00  0.00    +0.000 C 
ATOM      2  C   UNL     1       5.684   5.141  16.093  0.00  0.00    +0.000 A 
ATOM      3  C   UNL     1       5.481   6.507  16.255  0.00  0.00    +0.000 A 
ATOM      4  C   UNL     1       4.458   6.967  17.074  0.00  0.00    +0.000 A 
ATOM      5  C   UNL     1       3.604   6.079  17.753  0.00  0.00    +0.000 A 
ATOM      6  C   UNL     1       2.545   6.719  18.615  0.00  0.00    +0.000 C 
ATOM      7  C   UNL     1       3.782   4.677  17.595  0.00  0.00    +0.000 A 
ATOM      8  C   UNL     1       4.840   4.234  16.765  0.00  0.00    +0.000 A 
ATOM      9  O   UNL     1       5.116   2.911  16.521  0.00  0.00    +0.000 OA
ATOM     10  C   UNL     1       4.572   1.969  17.436  0.00  0.00    +0.000 C 
ATOM     11  C   UNL     1       3.109   2.233  17.694  0.00  0.00    +0.000 C 
ATOM     12  C   UNL     1       2.948   3.622  18.309  0.00  0.00    +0.000 C 
ATOM     13  N   UNL     1       3.259   3.607  19.730  0.00  0.00    +0.000 N 
ATOM     14  C   UNL     1       2.171   3.946  20.497  0.00  0.00    +0.000 C 
ATOM     15  O   UNL     1       2.211   4.220  21.682  0.00  0.00    +0.000 OA
ATOM     16  N   UNL     1       1.080   4.001  19.701  0.00  0.00    +0.000 N 
ATOM     17  C   UNL     1       1.435   3.897  18.389  0.00  0.00    +0.000 C 
ATOM     18  O   UNL     1       0.658   4.031  17.452  0.00  0.00    +0.000 OA
ATOM     19  H   UNL     1       4.191   3.691  20.114  0.00  0.00    +0.000 HD
ATOM     20  H   UNL     1       0.173   4.301  20.015  0.00  0.00    +0.000 HD
ENDROOT
TORSDOF 0
ENDMDL
