MODEL 1
REMARK VINA RESULT:      -8.3      0.000      0.000
REMARK  Name = 
REMARK  5 active torsions:
REMARK  status: ('A' for Active; 'I' for Inactive)
REMARK    1  A    between atoms: C_1  and  O_2
REMARK    2  A    between atoms: O_2  and  C_3
REMARK    3  A    between atoms: C_7  and  N_8
REMARK    4  A    between atoms: N_8  and  C_9
REMARK    5  A    between atoms: C_17  and  O_18
REMARK                            x       y       z     vdW  Elec       q    Type
REMARK                         _______ _______ _______ _____ _____    ______ ____
ROOT
ATOM      1  C   UNL     1       6.119   5.423  16.800  0.00  0.00    +0.000 C 
ATOM      2  C   UNL     1       5.143   6.282  16.487  0.00  0.00    +0.000 C 
ATOM      3  C   UNL     1       4.130   6.674  17.487  0.00  0.00    +0.000 C 
ATOM      4  O   UNL     1       3.513   7.725  17.394  0.00  0.00    +0.000 OA
ATOM      5  C   UNL     1       3.834   5.687  18.539  0.00  0.00    +0.000 A 
ATOM      6  C   UNL     1       2.599   5.726  19.186  0.00  0.00    +0.000 A 
ATOM      7  C   UNL     1       2.199   4.635  19.949  0.00  0.00    +0.000 A 
ATOM      8  C   UNL     1       3.026   3.513  20.048  0.00  0.00    +0.000 A 
ATOM      9  C   UNL     1       4.293   3.518  19.455  0.00  0.00    +0.000 A 
ATOM     10  C   UNL     1       4.725   4.635  18.743  0.00  0.00    +0.000 A 
ATOM     11  C   UNL     1       6.071   4.753  18.140  0.00  0.00    +0.000 C 
ATOM     12  O   UNL     1       7.098   4.374  18.699  0.00  0.00    +0.000 OA
ENDROOT
BRANCH   1  13
ATOM     13  N   UNL     1       7.241   5.195  16.004  0.00  0.00    +0.000 N 
ATOM     14  H   UNL     1       7.756   4.413  16.427  0.00  0.00    +0.000 HD
BRANCH  13  19
ATOM     15  C   UNL     1       6.117   3.593  12.800  0.00  0.00    +0.000 A 
ATOM     16  C   UNL     1       6.934   4.269  11.892  0.00  0.00    +0.000 A 
ATOM     17  C   UNL     1       7.818   5.250  12.331  0.00  0.00    +0.000 A 
ATOM     18  C   UNL     1       7.901   5.541  13.692  0.00  0.00    +0.000 A 
ATOM     19  C   UNL     1       7.125   4.840  14.625  0.00  0.00    +0.000 A 
ATOM     20  C   UNL     1       6.196   3.900  14.161  0.00  0.00    +0.000 A 
BRANCH  15  22
ATOM     21  C   UNL     1       4.288   3.118  11.355  0.00  0.00    +0.000 C 
ATOM     22  O   UNL     1       5.296   2.649  12.243  0.00  0.00    +0.000 OA
ENDBRANCH  15  22
ENDBRANCH  13  19
ENDBRANCH   1  13
BRANCH   9  23
ATOM     23  O   UNL     1       5.057   2.390  19.483  0.00  0.00    +0.000 OA
ATOM     24  H   UNL     1       4.928   1.880  18.668  0.00  0.00    +0.000 HD
ENDBRANCH   9  23
TORSDOF 4
ENDMDL
MODEL 2
REMARK VINA RESULT:      -7.9      3.316      5.126
REMARK  Name = 
REMARK  5 active torsions:
REMARK  status: ('A' for Active; 'I' for Inactive)
REMARK    1  A    between atoms: C_1  and  O_2
REMARK    2  A    between atoms: O_2  and  C_3
REMARK    3  A    between atoms: C_7  and  N_8
REMARK    4  A    between atoms: N_8  and  C_9
REMARK    5  A    between atoms: C_17  and  O_18
REMARK                            x       y       z     vdW  Elec       q    Type
REMARK                         _______ _______ _______ _____ _____    ______ ____
ROOT
ATOM      1  C   UNL     1       4.353   4.888  17.081  0.00  0.00    +0.000 C 
ATOM      2  C   UNL     1       4.088   3.582  16.957  0.00  0.00    +0.000 C 
ATOM      3  C   UNL     1       2.789   3.028  17.385  0.00  0.00    +0.000 C 
ATOM      4  O   UNL     1       2.354   1.984  16.920  0.00  0.00    +0.000 OA
ATOM      5  C   UNL     1       2.098   3.746  18.470  0.00  0.00    +0.000 A 
ATOM      6  C   UNL     1       1.180   3.062  19.266  0.00  0.00    +0.000 A 
ATOM      7  C   UNL     1       0.759   3.636  20.461  0.00  0.00    +0.000 A 
ATOM      8  C   UNL     1       1.267   4.877  20.855  0.00  0.00    +0.000 A 
ATOM      9  C   UNL     1       2.129   5.584  20.011  0.00  0.00    +0.000 A 
ATOM     10  C   UNL     1       2.504   5.042  18.783  0.00  0.00    +0.000 A 
ATOM     11  C   UNL     1       3.358   5.746  17.802  0.00  0.00    +0.000 C 
ATOM     12  O   UNL     1       3.248   6.944  17.547  0.00  0.00    +0.000 OA
ENDROOT
BRANCH   1  13
ATOM     13  N   UNL     1       5.440   5.522  16.483  0.00  0.00    +0.000 N 
ATOM     14  H   UNL     1       5.063   6.275  15.895  0.00  0.00    +0.000 HD
BRANCH  13  19
ATOM     15  C   UNL     1       7.824   8.070  17.871  0.00  0.00    +0.000 A 
ATOM     16  C   UNL     1       8.429   7.313  18.875  0.00  0.00    +0.000 A 
ATOM     17  C   UNL     1       8.037   5.997  19.101  0.00  0.00    +0.000 A 
ATOM     18  C   UNL     1       7.048   5.426  18.302  0.00  0.00    +0.000 A 
ATOM     19  C   UNL     1       6.462   6.153  17.257  0.00  0.00    +0.000 A 
ATOM     20  C   UNL     1       6.822   7.496  17.082  0.00  0.00    +0.000 A 
BRANCH  15  22
ATOM     21  C   UNL     1       8.998   9.884  18.863  0.00  0.00    +0.000 C 
ATOM     22  O   UNL     1       8.301   9.348  17.746  0.00  0.00    +0.000 OA
ENDBRANCH  15  22
ENDBRANCH  13  19
ENDBRANCH   1  13
BRANCH   9  23
ATOM     23  O   UNL     1       2.687   6.751  20.439  0.00  0.00    +0.000 OA
ATOM     24  H   UNL     1       3.654   6.706  20.364  0.00  0.00    +0.000 HD
ENDBRANCH   9  23
TORSDOF 4
ENDMDL
MODEL 3
REMARK VINA RESULT:      -7.7      3.167      7.240
REMARK  Name = 
REMARK  5 active torsions:
REMARK  status: ('A' for Active; 'I' for Inactive)
REMARK    1  A    between atoms: C_1  and  O_2
REMARK    2  A    between atoms: O_2  and  C_3
REMARK    3  A    between atoms: C_7  and  N_8
REMARK    4  A    between atoms: N_8  and  C_9
REMARK    5  A    between atoms: C_17  and  O_18
REMARK                            x       y       z     vdW  Elec       q    Type
REMARK                         _______ _______ _______ _____ _____    ______ ____
ROOT
ATOM      1  C   UNL     1       3.412   5.541  18.922  0.00  0.00    +0.000 C 
ATOM      2  C   UNL     1       2.621   4.838  18.104  0.00  0.00    +0.000 C 
ATOM      3  C   UNL     1       3.187   3.847  17.169  0.00  0.00    +0.000 C 
ATOM      4  O   UNL     1       2.518   2.920  16.737  0.00  0.00    +0.000 OA
ATOM      5  C   UNL     1       4.565   4.094  16.711  0.00  0.00    +0.000 A 
ATOM      6  C   UNL     1       4.990   3.550  15.499  0.00  0.00    +0.000 A 
ATOM      7  C   UNL     1       6.164   4.020  14.920  0.00  0.00    +0.000 A 
ATOM      8  C   UNL     1       6.893   5.034  15.548  0.00  0.00    +0.000 A 
ATOM      9  C   UNL     1       6.495   5.516  16.798  0.00  0.00    +0.000 A 
ATOM     10  C   UNL     1       5.354   5.003  17.413  0.00  0.00    +0.000 A 
ATOM     11  C   UNL     1       4.896   5.407  18.760  0.00  0.00    +0.000 C 
ATOM     12  O   UNL     1       5.658   5.584  19.709  0.00  0.00    +0.000 OA
ENDROOT
BRANCH   1  13
ATOM     13  N   UNL     1       2.945   6.304  19.991  0.00  0.00    +0.000 N 
ATOM     14  H   UNL     1       3.770   6.630  20.511  0.00  0.00    +0.000 HD
BRANCH  13  19
ATOM     15  C   UNL     1       0.665   9.231  20.566  0.00  0.00    +0.000 A 
ATOM     16  C   UNL     1       0.721   9.832  19.307  0.00  0.00    +0.000 A 
ATOM     17  C   UNL     1       1.516   9.292  18.301  0.00  0.00    +0.000 A 
ATOM     18  C   UNL     1       2.243   8.128  18.549  0.00  0.00    +0.000 A 
ATOM     19  C   UNL     1       2.163   7.483  19.790  0.00  0.00    +0.000 A 
ATOM     20  C   UNL     1       1.408   8.073  20.812  0.00  0.00    +0.000 A 
BRANCH  15  22
ATOM     21  C   UNL     1      -0.028   9.468  22.829  0.00  0.00    +0.000 C 
ATOM     22  O   UNL     1      -0.156   9.856  21.467  0.00  0.00    +0.000 OA
ENDBRANCH  15  22
ENDBRANCH  13  19
ENDBRANCH   1  13
BRANCH   9  23
ATOM     23  O   UNL     1       7.161   6.562  17.363  0.00  0.00    +0.000 OA
ATOM     24  H   UNL     1       8.004   6.258  17.736  0.00  0.00    +0.000 HD
ENDBRANCH   9  23
TORSDOF 4
ENDMDL
MODEL 4
REMARK VINA RESULT:      -7.5      1.751      2.704
REMARK  Name = 
REMARK  5 active torsions:
REMARK  status: ('A' for Active; 'I' for Inactive)
REMARK    1  A    between atoms: C_1  and  O_2
REMARK    2  A    between atoms: O_2  and  C_3
REMARK    3  A    between atoms: C_7  and  N_8
REMARK    4  A    between atoms: N_8  and  C_9
REMARK    5  A    between atoms: C_17  and  O_18
REMARK                            x       y       z     vdW  Elec       q    Type
REMARK                         _______ _______ _______ _____ _____    ______ ____
ROOT
ATOM      1  C   UNL     1       4.643   5.636  18.480  0.00  0.00    +0.000 C 
ATOM      2  C   UNL     1       3.639   6.498  18.674  0.00  0.00    +0.000 C 
ATOM      3  C   UNL     1       2.587   6.226  19.673  0.00  0.00    +0.000 C 
ATOM      4  O   UNL     1       1.929   7.128  20.171  0.00  0.00    +0.000 OA
ATOM      5  C   UNL     1       2.309   4.808  19.958  0.00  0.00    +0.000 A 
ATOM      6  C   UNL     1       1.058   4.444  20.457  0.00  0.00    +0.000 A 
ATOM      7  C   UNL     1       0.686   3.104  20.441  0.00  0.00    +0.000 A 
ATOM      8  C   UNL     1       1.557   2.145  19.916  0.00  0.00    +0.000 A 
ATOM      9  C   UNL     1       2.835   2.515  19.488  0.00  0.00    +0.000 A 
ATOM     10  C   UNL     1       3.237   3.848  19.562  0.00  0.00    +0.000 A 
ATOM     11  C   UNL     1       4.591   4.318  19.193  0.00  0.00    +0.000 C 
ATOM     12  O   UNL     1       5.620   3.708  19.479  0.00  0.00    +0.000 OA
ENDROOT
BRANCH   1  13
ATOM     13  N   UNL     1       5.791   5.928  17.746  0.00  0.00    +0.000 N 
ATOM     14  H   UNL     1       6.592   5.592  18.295  0.00  0.00    +0.000 HD
BRANCH  13  19
ATOM     15  C   UNL     1       7.287   5.173  14.386  0.00  0.00    +0.000 A 
ATOM     16  C   UNL     1       6.368   4.233  13.918  0.00  0.00    +0.000 A 
ATOM     17  C   UNL     1       5.292   3.842  14.710  0.00  0.00    +0.000 A 
ATOM     18  C   UNL     1       5.122   4.413  15.970  0.00  0.00    +0.000 A 
ATOM     19  C   UNL     1       6.006   5.393  16.439  0.00  0.00    +0.000 A 
ATOM     20  C   UNL     1       7.118   5.731  15.657  0.00  0.00    +0.000 A 
BRANCH  15  22
ATOM     21  C   UNL     1       7.940   5.610  12.142  0.00  0.00    +0.000 C 
ATOM     22  O   UNL     1       8.297   5.476  13.512  0.00  0.00    +0.000 OA
ENDBRANCH  15  22
ENDBRANCH  13  19
ENDBRANCH   1  13
BRANCH   9  23
ATOM     23  O   UNL     1       3.645   1.591  18.899  0.00  0.00    +0.000 OA
ATOM     24  H   UNL     1       4.552   1.933  18.839  0.00  0.00    +0.000 HD
ENDBRANCH   9  23
TORSDOF 4
ENDMDL
MODEL 5
REMARK VINA RESULT:      -7.4      1.548      2.358
REMARK  Name = 
REMARK  5 active torsions:
REMARK  status: ('A' for Active; 'I' for Inactive)
REMARK    1  A    between atoms: C_1  and  O_2
REMARK    2  A    between atoms: O_2  and  C_3
REMARK    3  A    between atoms: C_7  and  N_8
REMARK    4  A    between atoms: N_8  and  C_9
REMARK    5  A    between atoms: C_17  and  O_18
REMARK                            x       y       z     vdW  Elec       q    Type
REMARK                         _______ _______ _______ _____ _____    ______ ____
ROOT
ATOM      1  C   UNL     1       4.250   6.104  18.378  0.00  0.00    +0.000 C 
ATOM      2  C   UNL     1       3.121   6.742  18.707  0.00  0.00    +0.000 C 
ATOM      3  C   UNL     1       2.282   6.268  19.825  0.00  0.00    +0.000 C 
ATOM      4  O   UNL     1       1.519   7.020  20.415  0.00  0.00    +0.000 OA
ATOM      5  C   UNL     1       2.342   4.827  20.122  0.00  0.00    +0.000 A 
ATOM      6  C   UNL     1       1.267   4.217  20.768  0.00  0.00    +0.000 A 
ATOM      7  C   UNL     1       1.182   2.829  20.780  0.00  0.00    +0.000 A 
ATOM      8  C   UNL     1       2.161   2.066  20.136  0.00  0.00    +0.000 A 
ATOM      9  C   UNL     1       3.271   2.689  19.558  0.00  0.00    +0.000 A 
ATOM     10  C   UNL     1       3.393   4.076  19.600  0.00  0.00    +0.000 A 
ATOM     11  C   UNL     1       4.562   4.813  19.072  0.00  0.00    +0.000 C 
ATOM     12  O   UNL     1       5.723   4.434  19.219  0.00  0.00    +0.000 OA
ENDROOT
BRANCH   1  13
ATOM     13  N   UNL     1       5.212   6.621  17.511  0.00  0.00    +0.000 N 
ATOM     14  H   UNL     1       6.022   6.886  18.084  0.00  0.00    +0.000 HD
BRANCH  13  19
ATOM     15  C   UNL     1       5.579   4.553  14.399  0.00  0.00    +0.000 A 
ATOM     16  C   UNL     1       6.964   4.381  14.384  0.00  0.00    +0.000 A 
ATOM     17  C   UNL     1       7.758   4.960  15.370  0.00  0.00    +0.000 A 
ATOM     18  C   UNL     1       7.159   5.697  16.391  0.00  0.00    +0.000 A 
ATOM     19  C   UNL     1       5.767   5.840  16.451  0.00  0.00    +0.000 A 
ATOM     20  C   UNL     1       4.986   5.304  15.418  0.00  0.00    +0.000 A 
BRANCH  15  22
ATOM     21  C   UNL     1       5.705   3.354  12.349  0.00  0.00    +0.000 C 
ATOM     22  O   UNL     1       4.911   3.931  13.378  0.00  0.00    +0.000 OA
ENDBRANCH  15  22
ENDBRANCH  13  19
ENDBRANCH   1  13
BRANCH   9  23
ATOM     23  O   UNL     1       4.175   1.946  18.860  0.00  0.00    +0.000 OA
ATOM     24  H   UNL     1       4.946   1.750  19.416  0.00  0.00    +0.000 HD
ENDBRANCH   9  23
TORSDOF 4
ENDMDL
MODEL 6
REMARK VINA RESULT:      -7.3      2.478      3.556
REMARK  Name = 
REMARK  5 active torsions:
REMARK  status: ('A' for Active; 'I' for Inactive)
REMARK    1  A    between atoms: C_1  and  O_2
REMARK    2  A    between atoms: O_2  and  C_3
REMARK    3  A    between atoms: C_7  and  N_8
REMARK    4  A    between atoms: N_8  and  C_9
REMARK    5  A    between atoms: C_17  and  O_18
REMARK                            x       y       z     vdW  Elec       q    Type
REMARK                         _______ _______ _______ _____ _____    ______ ____
ROOT
ATOM      1  C   UNL     1       4.121   3.043  17.440  0.00  0.00    +0.000 C 
ATOM      2  C   UNL     1       2.880   3.250  16.987  0.00  0.00    +0.000 C 
ATOM      3  C   UNL     1       1.835   3.810  17.866  0.00  0.00    +0.000 C 
ATOM      4  O   UNL     1       0.862   4.394  17.412  0.00  0.00    +0.000 OA
ATOM      5  C   UNL     1       1.979   3.539  19.307  0.00  0.00    +0.000 A 
ATOM      6  C   UNL     1       0.849   3.564  20.123  0.00  0.00    +0.000 A 
ATOM      7  C   UNL     1       0.924   3.020  21.402  0.00  0.00    +0.000 A 
ATOM      8  C   UNL     1       2.119   2.447  21.845  0.00  0.00    +0.000 A 
ATOM      9  C   UNL     1       3.264   2.496  21.044  0.00  0.00    +0.000 A 
ATOM     10  C   UNL     1       3.210   3.098  19.788  0.00  0.00    +0.000 A 
ATOM     11  C   UNL     1       4.385   3.252  18.901  0.00  0.00    +0.000 C 
ATOM     12  O   UNL     1       5.501   3.571  19.307  0.00  0.00    +0.000 OA
ENDROOT
BRANCH   1  13
ATOM     13  N   UNL     1       5.212   2.756  16.622  0.00  0.00    +0.000 N 
ATOM     14  H   UNL     1       4.873   2.136  15.875  0.00  0.00    +0.000 HD
BRANCH  13  19
ATOM     15  C   UNL     1       7.254   5.819  15.882  0.00  0.00    +0.000 A 
ATOM     16  C   UNL     1       7.365   5.706  14.495  0.00  0.00    +0.000 A 
ATOM     17  C   UNL     1       6.797   4.626  13.826  0.00  0.00    +0.000 A 
ATOM     18  C   UNL     1       6.093   3.663  14.548  0.00  0.00    +0.000 A 
ATOM     19  C   UNL     1       5.928   3.783  15.934  0.00  0.00    +0.000 A 
ATOM     20  C   UNL     1       6.558   4.842  16.601  0.00  0.00    +0.000 A 
BRANCH  15  22
ATOM     21  C   UNL     1       7.592   7.195  17.792  0.00  0.00    +0.000 C 
ATOM     22  O   UNL     1       7.852   6.927  16.420  0.00  0.00    +0.000 OA
ENDBRANCH  15  22
ENDBRANCH  13  19
ENDBRANCH   1  13
BRANCH   9  23
ATOM     23  O   UNL     1       4.400   1.861  21.447  0.00  0.00    +0.000 OA
ATOM     24  H   UNL     1       4.482   1.906  22.413  0.00  0.00    +0.000 HD
ENDBRANCH   9  23
TORSDOF 4
ENDMDL
MODEL 7
REMARK VINA RESULT:      -7.3      5.173      7.842
REMARK  Name = 
REMARK  5 active torsions:
REMARK  status: ('A' for Active; 'I' for Inactive)
REMARK    1  A    between atoms: C_1  and  O_2
REMARK    2  A    between atoms: O_2  and  C_3
REMARK    3  A    between atoms: C_7  and  N_8
REMARK    4  A    between atoms: N_8  and  C_9
REMARK    5  A    between atoms: C_17  and  O_18
REMARK                            x       y       z     vdW  Elec       q    Type
REMARK                         _______ _______ _______ _____ _____    ______ ____
ROOT
ATOM      1  C   UNL     1       1.817   8.158  20.031  0.00  0.00    +0.000 C 
ATOM      2  C   UNL     1       1.243   8.233  21.237  0.00  0.00    +0.000 C 
ATOM      3  C   UNL     1       0.108   9.145  21.481  0.00  0.00    +0.000 C 
ATOM      4  O   UNL     1      -0.688   8.947  22.387  0.00  0.00    +0.000 OA
ATOM      5  C   UNL     1       0.050  10.354  20.641  0.00  0.00    +0.000 A 
ATOM      6  C   UNL     1      -0.632  11.477  21.107  0.00  0.00    +0.000 A 
ATOM      7  C   UNL     1      -0.439  12.700  20.472  0.00  0.00    +0.000 A 
ATOM      8  C   UNL     1       0.441  12.790  19.390  0.00  0.00    +0.000 A 
ATOM      9  C   UNL     1       1.060  11.642  18.888  0.00  0.00    +0.000 A 
ATOM     10  C   UNL     1       0.820  10.404  19.481  0.00  0.00    +0.000 A 
ATOM     11  C   UNL     1       1.380   9.130  18.978  0.00  0.00    +0.000 C 
ATOM     12  O   UNL     1       1.452   8.849  17.783  0.00  0.00    +0.000 OA
ENDROOT
BRANCH   1  13
ATOM     13  N   UNL     1       2.715   7.160  19.657  0.00  0.00    +0.000 N 
ATOM     14  H   UNL     1       3.366   7.031  20.441  0.00  0.00    +0.000 HD
BRANCH  13  19
ATOM     15  C   UNL     1       1.353   3.671  19.930  0.00  0.00    +0.000 A 
ATOM     16  C   UNL     1       1.388   3.292  18.588  0.00  0.00    +0.000 A 
ATOM     17  C   UNL     1       1.829   4.183  17.613  0.00  0.00    +0.000 A 
ATOM     18  C   UNL     1       2.261   5.454  17.988  0.00  0.00    +0.000 A 
ATOM     19  C   UNL     1       2.279   5.838  19.335  0.00  0.00    +0.000 A 
ATOM     20  C   UNL     1       1.774   4.953  20.298  0.00  0.00    +0.000 A 
BRANCH  15  22
ATOM     21  C   UNL     1       1.707   2.437  21.932  0.00  0.00    +0.000 C 
ATOM     22  O   UNL     1       0.903   2.705  20.790  0.00  0.00    +0.000 OA
ENDBRANCH  15  22
ENDBRANCH  13  19
ENDBRANCH   1  13
BRANCH   9  23
ATOM     23  O   UNL     1       1.982  11.752  17.890  0.00  0.00    +0.000 OA
ATOM     24  H   UNL     1       2.393  12.631  17.912  0.00  0.00    +0.000 HD
ENDBRANCH   9  23
TORSDOF 4
ENDMDL
MODEL 8
REMARK VINA RESULT:      -7.3      1.083      1.339
REMARK  Name = 
REMARK  5 active torsions:
REMARK  status: ('A' for Active; 'I' for Inactive)
REMARK    1  A    between atoms: C_1  and  O_2
REMARK    2  A    between atoms: O_2  and  C_3
REMARK    3  A    between atoms: C_7  and  N_8
REMARK    4  A    between atoms: N_8  and  C_9
REMARK    5  A    between atoms: C_17  and  O_18
REMARK                            x       y       z     vdW  Elec       q    Type
REMARK                         _______ _______ _______ _____ _____    ______ ____
ROOT
ATOM      1  C   UNL     1       5.112   4.574  17.295  0.00  0.00    +0.000 C 
ATOM      2  C   UNL     1       4.571   5.684  16.780  0.00  0.00    +0.000 C 
ATOM      3  C   UNL     1       3.918   6.682  17.649  0.00  0.00    +0.000 C 
ATOM      4  O   UNL     1       3.801   7.850  17.306  0.00  0.00    +0.000 OA
ATOM      5  C   UNL     1       3.329   6.174  18.900  0.00  0.00    +0.000 A 
ATOM      6  C   UNL     1       2.294   6.886  19.506  0.00  0.00    +0.000 A 
ATOM      7  C   UNL     1       1.539   6.270  20.500  0.00  0.00    +0.000 A 
ATOM      8  C   UNL     1       1.816   4.950  20.867  0.00  0.00    +0.000 A 
ATOM      9  C   UNL     1       2.903   4.276  20.303  0.00  0.00    +0.000 A 
ATOM     10  C   UNL     1       3.702   4.911  19.354  0.00  0.00    +0.000 A 
ATOM     11  C   UNL     1       4.907   4.298  18.754  0.00  0.00    +0.000 C 
ATOM     12  O   UNL     1       5.723   3.640  19.398  0.00  0.00    +0.000 OA
ENDROOT
BRANCH   1  13
ATOM     13  N   UNL     1       5.951   3.716  16.587  0.00  0.00    +0.000 N 
ATOM     14  H   UNL     1       5.495   2.795  16.571  0.00  0.00    +0.000 HD
BRANCH  13  19
ATOM     15  C   UNL     1       6.040   3.610  12.835  0.00  0.00    +0.000 A 
ATOM     16  C   UNL     1       7.024   4.569  12.589  0.00  0.00    +0.000 A 
ATOM     17  C   UNL     1       7.624   5.252  13.644  0.00  0.00    +0.000 A 
ATOM     18  C   UNL     1       7.254   4.956  14.955  0.00  0.00    +0.000 A 
ATOM     19  C   UNL     1       6.304   3.962  15.225  0.00  0.00    +0.000 A 
ATOM     20  C   UNL     1       5.664   3.328  14.152  0.00  0.00    +0.000 A 
BRANCH  15  22
ATOM     21  C   UNL     1       4.170   3.274  11.406  0.00  0.00    +0.000 C 
ATOM     22  O   UNL     1       5.532   3.007  11.716  0.00  0.00    +0.000 OA
ENDBRANCH  15  22
ENDBRANCH  13  19
ENDBRANCH   1  13
BRANCH   9  23
ATOM     23  O   UNL     1       3.113   2.964  20.603  0.00  0.00    +0.000 OA
ATOM     24  H   UNL     1       2.658   2.733  21.428  0.00  0.00    +0.000 HD
ENDBRANCH   9  23
TORSDOF 4
ENDMDL
MODEL 9
REMARK VINA RESULT:      -7.3      2.907      6.872
REMARK  Name = 
REMARK  5 active torsions:
REMARK  status: ('A' for Active; 'I' for Inactive)
REMARK    1  A    between atoms: C_1  and  O_2
REMARK    2  A    between atoms: O_2  and  C_3
REMARK    3  A    between atoms: C_7  and  N_8
REMARK    4  A    between atoms: N_8  and  C_9
REMARK    5  A    between atoms: C_17  and  O_18
REMARK                            x       y       z     vdW  Elec       q    Type
REMARK                         _______ _______ _______ _____ _____    ______ ____
ROOT
ATOM      1  C   UNL     1       3.388   5.403  18.991  0.00  0.00    +0.000 C 
ATOM      2  C   UNL     1       2.610   4.721  18.142  0.00  0.00    +0.000 C 
ATOM      3  C   UNL     1       3.195   3.780  17.167  0.00  0.00    +0.000 C 
ATOM      4  O   UNL     1       2.541   2.860  16.695  0.00  0.00    +0.000 OA
ATOM      5  C   UNL     1       4.568   4.070  16.721  0.00  0.00    +0.000 A 
ATOM      6  C   UNL     1       5.003   3.586  15.488  0.00  0.00    +0.000 A 
ATOM      7  C   UNL     1       6.169   4.099  14.931  0.00  0.00    +0.000 A 
ATOM      8  C   UNL     1       6.880   5.098  15.602  0.00  0.00    +0.000 A 
ATOM      9  C   UNL     1       6.473   5.520  16.871  0.00  0.00    +0.000 A 
ATOM     10  C   UNL     1       5.341   4.962  17.462  0.00  0.00    +0.000 A 
ATOM     11  C   UNL     1       4.874   5.301  18.825  0.00  0.00    +0.000 C 
ATOM     12  O   UNL     1       5.633   5.451  19.781  0.00  0.00    +0.000 OA
ENDROOT
BRANCH   1  13
ATOM     13  N   UNL     1       2.908   6.112  20.090  0.00  0.00    +0.000 N 
ATOM     14  H   UNL     1       3.720   6.345  20.676  0.00  0.00    +0.000 HD
BRANCH  13  19
ATOM     15  C   UNL     1       1.594   9.336  18.683  0.00  0.00    +0.000 A 
ATOM     16  C   UNL     1       0.747   9.725  19.722  0.00  0.00    +0.000 A 
ATOM     17  C   UNL     1       0.598   8.924  20.851  0.00  0.00    +0.000 A 
ATOM     18  C   UNL     1       1.319   7.735  20.950  0.00  0.00    +0.000 A 
ATOM     19  C   UNL     1       2.211   7.350  19.941  0.00  0.00    +0.000 A 
ATOM     20  C   UNL     1       2.303   8.135  18.784  0.00  0.00    +0.000 A 
BRANCH  15  22
ATOM     21  C   UNL     1       2.272  11.469  17.881  0.00  0.00    +0.000 C 
ATOM     22  O   UNL     1       1.657  10.211  17.632  0.00  0.00    +0.000 OA
ENDBRANCH  15  22
ENDBRANCH  13  19
ENDBRANCH   1  13
BRANCH   9  23
ATOM     23  O   UNL     1       7.120   6.553  17.480  0.00  0.00    +0.000 OA
ATOM     24  H   UNL     1       7.082   6.448  18.445  0.00  0.00    +0.000 HD
ENDBRANCH   9  23
TORSDOF 4
ENDMDL
