MODEL 1
REMARK VINA RESULT:      -8.6      0.000      0.000
REMARK  Name = 
REMARK  8 active torsions:
REMARK  status: ('A' for Active; 'I' for Inactive)
REMARK    1  A    between atoms: C_1  and  C_2
REMARK    2  A    between atoms: C_2  and  C_12
REMARK    3  A    between atoms: N_3  and  O_4
REMARK    4  A    between atoms: O_4  and  C_5
REMARK    5  A    between atoms: C_5  and  C_6
REMARK    6  A    between atoms: C_6  and  N_7
REMARK    7  A    between atoms: C_15  and  N_16
REMARK    8  A    between atoms: N_16  and  C_17
REMARK                            x       y       z     vdW  Elec       q    Type
REMARK                         _______ _______ _______ _____ _____    ______ ____
ROOT
ATOM      1  C   UNL     1       0.554  10.017  19.000  0.00  0.00    +0.000 A 
ATOM      2  C   UNL     1       1.242   9.430  17.929  0.00  0.00    +0.000 A 
ATOM      3  C   UNL     1       2.065   8.310  18.132  0.00  0.00    +0.000 A 
ATOM      4  C   UNL     1       2.210   7.761  19.409  0.00  0.00    +0.000 A 
ATOM      5  C   UNL     1       1.445   8.305  20.449  0.00  0.00    +0.000 A 
ATOM      6  C   UNL     1       0.668   9.446  20.267  0.00  0.00    +0.000 A 
ENDROOT
BRANCH   1   8
ATOM      7  C   UNL     1      -1.751  11.019  18.429  0.00  0.00    +0.000 C 
ATOM      8  C   UNL     1      -0.288  11.237  18.783  0.00  0.00    +0.000 C 
ATOM      9  N   UNL     1       0.259  12.409  18.923  0.00  0.00    +0.000 NA
BRANCH   9  10
ATOM     10  O   UNL     1      -0.655  13.445  18.686  0.00  0.00    +0.000 OA
BRANCH  10  11
ATOM     11  C   UNL     1      -0.741  14.272  19.849  0.00  0.00    +0.000 C 
BRANCH  11  12
ATOM     12  C   UNL     1      -2.088  14.069  20.554  0.00  0.00    +0.000 C 
BRANCH  12  13
ATOM     13  N   UNL     1      -1.941  13.801  21.998  0.00  0.00    +0.000 NA
ATOM     14  C   UNL     1      -0.707  13.059  22.301  0.00  0.00    +0.000 C 
ATOM     15  C   UNL     1      -1.144  11.646  22.638  0.00  0.00    +0.000 C 
ATOM     16  C   UNL     1      -2.472  11.874  23.325  0.00  0.00    +0.000 C 
ATOM     17  C   UNL     1      -3.073  13.017  22.527  0.00  0.00    +0.000 C 
ENDBRANCH  12  13
ENDBRANCH  11  12
ENDBRANCH  10  11
ENDBRANCH   9  10
ENDBRANCH   1   8
BRANCH   4  18
ATOM     18  N   UNL     1       3.134   6.723  19.666  0.00  0.00    +0.000 N 
ATOM     19  H   UNL     1       3.264   6.500  20.647  0.00  0.00    +0.000 HD
BRANCH  18  20
ATOM     20  C   UNL     1       3.429   5.618  18.813  0.00  0.00    +0.000 A 
ATOM     21  C   UNL     1       2.636   4.430  18.871  0.00  0.00    +0.000 A 
ATOM     22  C   UNL     1       1.600   4.222  19.812  0.00  0.00    +0.000 A 
ATOM     23  C   UNL     1       0.849   3.045  19.821  0.00  0.00    +0.000 A 
ATOM     24  C   UNL     1       1.087   2.071  18.860  0.00  0.00    +0.000 A 
ATOM     25  C   UNL     1       2.128   2.251  17.950  0.00  0.00    +0.000 A 
ATOM     26  C   UNL     1       2.945   3.358  17.983  0.00  0.00    +0.000 A 
ATOM     27  N   UNL     1       4.009   3.328  17.181  0.00  0.00    +0.000 NA
ATOM     28  C   UNL     1       4.800   4.404  17.258  0.00  0.00    +0.000 A 
ATOM     29  O   UNL     1       6.035   4.452  16.682  0.00  0.00    +0.000 OA
ATOM     30  C   UNL     1       6.540   5.685  16.932  0.00  0.00    +0.000 A 
ATOM     31  C   UNL     1       5.597   6.464  17.557  0.00  0.00    +0.000 A 
ATOM     32  C   UNL     1       4.548   5.580  17.946  0.00  0.00    +0.000 A 
ENDBRANCH  18  20
ENDBRANCH   4  18
TORSDOF 7
ENDMDL
MODEL 2
REMARK VINA RESULT:      -8.6      2.446      4.097
REMARK  Name = 
REMARK  8 active torsions:
REMARK  status: ('A' for Active; 'I' for Inactive)
REMARK    1  A    between atoms: C_1  and  C_2
REMARK    2  A    between atoms: C_2  and  C_12
REMARK    3  A    between atoms: N_3  and  O_4
REMARK    4  A    between atoms: O_4  and  C_5
REMARK    5  A    between atoms: C_5  and  C_6
REMARK    6  A    between atoms: C_6  and  N_7
REMARK    7  A    between atoms: C_15  and  N_16
REMARK    8  A    between atoms: N_16  and  C_17
REMARK                            x       y       z     vdW  Elec       q    Type
REMARK                         _______ _______ _______ _____ _____    ______ ____
ROOT
ATOM      1  C   UNL     1       0.264   9.812  18.924  0.00  0.00    +0.000 A 
ATOM      2  C   UNL     1       0.424   9.321  20.228  0.00  0.00    +0.000 A 
ATOM      3  C   UNL     1       1.371   8.322  20.508  0.00  0.00    +0.000 A 
ATOM      4  C   UNL     1       2.171   7.800  19.488  0.00  0.00    +0.000 A 
ATOM      5  C   UNL     1       2.061   8.366  18.211  0.00  0.00    +0.000 A 
ATOM      6  C   UNL     1       1.090   9.319  17.914  0.00  0.00    +0.000 A 
ENDROOT
BRANCH   1   8
ATOM      7  C   UNL     1      -0.731  12.134  19.436  0.00  0.00    +0.000 C 
ATOM      8  C   UNL     1      -0.776  10.848  18.626  0.00  0.00    +0.000 C 
ATOM      9  N   UNL     1      -1.645  10.609  17.687  0.00  0.00    +0.000 NA
BRANCH   9  10
ATOM     10  O   UNL     1      -2.549  11.670  17.529  0.00  0.00    +0.000 OA
BRANCH  10  11
ATOM     11  C   UNL     1      -3.595  11.269  16.643  0.00  0.00    +0.000 C 
BRANCH  11  12
ATOM     12  C   UNL     1      -4.961  11.696  17.197  0.00  0.00    +0.000 C 
BRANCH  12  13
ATOM     13  N   UNL     1      -5.169  11.265  18.593  0.00  0.00    +0.000 NA
ATOM     14  C   UNL     1      -6.455  10.576  18.774  0.00  0.00    +0.000 C 
ATOM     15  C   UNL     1      -7.350  11.551  19.515  0.00  0.00    +0.000 C 
ATOM     16  C   UNL     1      -6.368  12.273  20.410  0.00  0.00    +0.000 C 
ATOM     17  C   UNL     1      -5.141  12.407  19.527  0.00  0.00    +0.000 C 
ENDBRANCH  12  13
ENDBRANCH  11  12
ENDBRANCH  10  11
ENDBRANCH   9  10
ENDBRANCH   1   8
BRANCH   4  18
ATOM     18  N   UNL     1       3.032   6.703  19.714  0.00  0.00    +0.000 N 
ATOM     19  H   UNL     1       3.284   6.551  20.686  0.00  0.00    +0.000 HD
BRANCH  18  20
ATOM     20  C   UNL     1       3.109   5.508  18.939  0.00  0.00    +0.000 A 
ATOM     21  C   UNL     1       4.001   5.426  17.826  0.00  0.00    +0.000 A 
ATOM     22  C   UNL     1       4.775   6.513  17.357  0.00  0.00    +0.000 A 
ATOM     23  C   UNL     1       5.638   6.378  16.268  0.00  0.00    +0.000 A 
ATOM     24  C   UNL     1       5.781   5.141  15.654  0.00  0.00    +0.000 A 
ATOM     25  C   UNL     1       4.998   4.070  16.086  0.00  0.00    +0.000 A 
ATOM     26  C   UNL     1       4.069   4.204  17.093  0.00  0.00    +0.000 A 
ATOM     27  N   UNL     1       3.263   3.162  17.291  0.00  0.00    +0.000 NA
ATOM     28  C   UNL     1       2.351   3.333  18.255  0.00  0.00    +0.000 A 
ATOM     29  O   UNL     1       1.312   2.471  18.446  0.00  0.00    +0.000 OA
ATOM     30  C   UNL     1       0.610   2.930  19.512  0.00  0.00    +0.000 A 
ATOM     31  C   UNL     1       1.253   4.003  20.075  0.00  0.00    +0.000 A 
ATOM     32  C   UNL     1       2.267   4.389  19.149  0.00  0.00    +0.000 A 
ENDBRANCH  18  20
ENDBRANCH   4  18
TORSDOF 7
ENDMDL
MODEL 3
REMARK VINA RESULT:      -8.5      1.127      2.885
REMARK  Name = 
REMARK  8 active torsions:
REMARK  status: ('A' for Active; 'I' for Inactive)
REMARK    1  A    between atoms: C_1  and  C_2
REMARK    2  A    between atoms: C_2  and  C_12
REMARK    3  A    between atoms: N_3  and  O_4
REMARK    4  A    between atoms: O_4  and  C_5
REMARK    5  A    between atoms: C_5  and  C_6
REMARK    6  A    between atoms: C_6  and  N_7
REMARK    7  A    between atoms: C_15  and  N_16
REMARK    8  A    between atoms: N_16  and  C_17
REMARK                            x       y       z     vdW  Elec       q    Type
REMARK                         _______ _______ _______ _____ _____    ______ ____
ROOT
ATOM      1  C   UNL     1       0.530   9.999  19.123  0.00  0.00    +0.000 A 
ATOM      2  C   UNL     1       1.182   9.417  18.027  0.00  0.00    +0.000 A 
ATOM      3  C   UNL     1       1.985   8.276  18.193  0.00  0.00    +0.000 A 
ATOM      4  C   UNL     1       2.148   7.703  19.457  0.00  0.00    +0.000 A 
ATOM      5  C   UNL     1       1.418   8.244  20.523  0.00  0.00    +0.000 A 
ATOM      6  C   UNL     1       0.661   9.404  20.378  0.00  0.00    +0.000 A 
ENDROOT
BRANCH   1   8
ATOM      7  C   UNL     1      -1.772  11.058  18.655  0.00  0.00    +0.000 C 
ATOM      8  C   UNL     1      -0.291  11.239  18.946  0.00  0.00    +0.000 C 
ATOM      9  N   UNL     1       0.291  12.397  19.067  0.00  0.00    +0.000 NA
BRANCH   9  10
ATOM     10  O   UNL     1      -0.608  13.457  18.872  0.00  0.00    +0.000 OA
BRANCH  10  11
ATOM     11  C   UNL     1      -0.572  14.320  20.011  0.00  0.00    +0.000 C 
BRANCH  11  12
ATOM     12  C   UNL     1      -1.951  14.383  20.680  0.00  0.00    +0.000 C 
BRANCH  12  13
ATOM     13  N   UNL     1      -1.915  13.981  22.099  0.00  0.00    +0.000 NA
ATOM     14  C   UNL     1      -0.687  13.244  22.435  0.00  0.00    +0.000 C 
ATOM     15  C   UNL     1      -1.104  11.795  22.599  0.00  0.00    +0.000 C 
ATOM     16  C   UNL     1      -2.490  11.922  23.188  0.00  0.00    +0.000 C 
ATOM     17  C   UNL     1      -3.061  13.121  22.453  0.00  0.00    +0.000 C 
ENDBRANCH  12  13
ENDBRANCH  11  12
ENDBRANCH  10  11
ENDBRANCH   9  10
ENDBRANCH   1   8
BRANCH   4  18
ATOM     18  N   UNL     1       3.054   6.641  19.675  0.00  0.00    +0.000 N 
ATOM     19  H   UNL     1       3.354   6.527  20.638  0.00  0.00    +0.000 HD
BRANCH  18  20
ATOM     20  C   UNL     1       3.136   5.427  18.931  0.00  0.00    +0.000 A 
ATOM     21  C   UNL     1       4.031   5.318  17.822  0.00  0.00    +0.000 A 
ATOM     22  C   UNL     1       4.804   6.395  17.327  0.00  0.00    +0.000 A 
ATOM     23  C   UNL     1       5.670   6.233  16.245  0.00  0.00    +0.000 A 
ATOM     24  C   UNL     1       5.818   4.981  15.664  0.00  0.00    +0.000 A 
ATOM     25  C   UNL     1       5.036   3.920  16.121  0.00  0.00    +0.000 A 
ATOM     26  C   UNL     1       4.104   4.078  17.122  0.00  0.00    +0.000 A 
ATOM     27  N   UNL     1       3.300   3.039  17.345  0.00  0.00    +0.000 NA
ATOM     28  C   UNL     1       2.385   3.233  18.301  0.00  0.00    +0.000 A 
ATOM     29  O   UNL     1       1.347   2.374  18.512  0.00  0.00    +0.000 OA
ATOM     30  C   UNL     1       0.641   2.858  19.563  0.00  0.00    +0.000 A 
ATOM     31  C   UNL     1       1.280   3.948  20.100  0.00  0.00    +0.000 A 
ATOM     32  C   UNL     1       2.296   4.311  19.167  0.00  0.00    +0.000 A 
ENDBRANCH  18  20
ENDBRANCH   4  18
TORSDOF 7
ENDMDL
MODEL 4
REMARK VINA RESULT:      -8.5      1.826      3.151
REMARK  Name = 
REMARK  8 active torsions:
REMARK  status: ('A' for Active; 'I' for Inactive)
REMARK    1  A    between atoms: C_1  and  C_2
REMARK    2  A    between atoms: C_2  and  C_12
REMARK    3  A    between atoms: N_3  and  O_4
REMARK    4  A    between atoms: O_4  and  C_5
REMARK    5  A    between atoms: C_5  and  C_6
REMARK    6  A    between atoms: C_6  and  N_7
REMARK    7  A    between atoms: C_15  and  N_16
REMARK    8  A    between atoms: N_16  and  C_17
REMARK                            x       y       z     vdW  Elec       q    Type
REMARK                         _______ _______ _______ _____ _____    ______ ____
ROOT
ATOM      1  C   UNL     1       0.896   9.434  19.768  0.00  0.00    +0.000 A 
ATOM      2  C   UNL     1       1.484   8.302  20.350  0.00  0.00    +0.000 A 
ATOM      3  C   UNL     1       2.321   7.461  19.597  0.00  0.00    +0.000 A 
ATOM      4  C   UNL     1       2.581   7.740  18.253  0.00  0.00    +0.000 A 
ATOM      5  C   UNL     1       2.059   8.923  17.714  0.00  0.00    +0.000 A 
ATOM      6  C   UNL     1       1.187   9.734  18.437  0.00  0.00    +0.000 A 
ENDROOT
BRANCH   1   8
ATOM      7  C   UNL     1      -0.267   9.918  22.016  0.00  0.00    +0.000 C 
ATOM      8  C   UNL     1      -0.028  10.302  20.564  0.00  0.00    +0.000 C 
ATOM      9  N   UNL     1      -0.562  11.341  19.989  0.00  0.00    +0.000 NA
BRANCH   9  10
ATOM     10  O   UNL     1      -1.400  12.049  20.863  0.00  0.00    +0.000 OA
BRANCH  10  11
ATOM     11  C   UNL     1      -2.672  12.241  20.241  0.00  0.00    +0.000 C 
BRANCH  11  12
ATOM     12  C   UNL     1      -2.545  12.142  18.716  0.00  0.00    +0.000 C 
BRANCH  12  13
ATOM     13  N   UNL     1      -3.419  11.103  18.137  0.00  0.00    +0.000 NA
ATOM     14  C   UNL     1      -2.660   9.920  17.705  0.00  0.00    +0.000 C 
ATOM     15  C   UNL     1      -2.636   9.972  16.189  0.00  0.00    +0.000 C 
ATOM     16  C   UNL     1      -3.983  10.577  15.865  0.00  0.00    +0.000 C 
ATOM     17  C   UNL     1      -4.166  11.605  16.968  0.00  0.00    +0.000 C 
ENDBRANCH  12  13
ENDBRANCH  11  12
ENDBRANCH  10  11
ENDBRANCH   9  10
ENDBRANCH   1   8
BRANCH   4  18
ATOM     18  N   UNL     1       3.307   6.841  17.440  0.00  0.00    +0.000 N 
ATOM     19  H   UNL     1       3.724   7.255  16.612  0.00  0.00    +0.000 HD
BRANCH  18  20
ATOM     20  C   UNL     1       4.002   5.673  17.873  0.00  0.00    +0.000 A 
ATOM     21  C   UNL     1       3.285   4.471  18.161  0.00  0.00    +0.000 A 
ATOM     22  C   UNL     1       1.873   4.374  18.139  0.00  0.00    +0.000 A 
ATOM     23  C   UNL     1       1.221   3.172  18.421  0.00  0.00    +0.000 A 
ATOM     24  C   UNL     1       1.967   2.031  18.684  0.00  0.00    +0.000 A 
ATOM     25  C   UNL     1       3.358   2.123  18.742  0.00  0.00    +0.000 A 
ATOM     26  C   UNL     1       4.019   3.317  18.565  0.00  0.00    +0.000 A 
ATOM     27  N   UNL     1       5.327   3.309  18.820  0.00  0.00    +0.000 NA
ATOM     28  C   UNL     1       5.936   4.490  18.669  0.00  0.00    +0.000 A 
ATOM     29  O   UNL     1       7.211   4.720  19.093  0.00  0.00    +0.000 OA
ATOM     30  C   UNL     1       7.513   5.999  18.759  0.00  0.00    +0.000 A 
ATOM     31  C   UNL     1       6.494   6.549  18.023  0.00  0.00    +0.000 A 
ATOM     32  C   UNL     1       5.393   5.648  18.134  0.00  0.00    +0.000 A 
ENDBRANCH  18  20
ENDBRANCH   4  18
TORSDOF 7
ENDMDL
MODEL 5
REMARK VINA RESULT:      -8.5      2.043      4.129
REMARK  Name = 
REMARK  8 active torsions:
REMARK  status: ('A' for Active; 'I' for Inactive)
REMARK    1  A    between atoms: C_1  and  C_2
REMARK    2  A    between atoms: C_2  and  C_12
REMARK    3  A    between atoms: N_3  and  O_4
REMARK    4  A    between atoms: O_4  and  C_5
REMARK    5  A    between atoms: C_5  and  C_6
REMARK    6  A    between atoms: C_6  and  N_7
REMARK    7  A    between atoms: C_15  and  N_16
REMARK    8  A    between atoms: N_16  and  C_17
REMARK                            x       y       z     vdW  Elec       q    Type
REMARK                         _______ _______ _______ _____ _____    ______ ____
ROOT
ATOM      1  C   UNL     1       0.593   9.831  19.815  0.00  0.00    +0.000 A 
ATOM      2  C   UNL     1       1.271   9.433  18.654  0.00  0.00    +0.000 A 
ATOM      3  C   UNL     1       2.060   8.271  18.645  0.00  0.00    +0.000 A 
ATOM      4  C   UNL     1       2.182   7.490  19.798  0.00  0.00    +0.000 A 
ATOM      5  C   UNL     1       1.426   7.852  20.920  0.00  0.00    +0.000 A 
ATOM      6  C   UNL     1       0.683   9.030  20.953  0.00  0.00    +0.000 A 
ENDROOT
BRANCH   1   8
ATOM      7  C   UNL     1       0.545  12.404  19.684  0.00  0.00    +0.000 C 
ATOM      8  C   UNL     1      -0.213  11.093  19.828  0.00  0.00    +0.000 C 
ATOM      9  N   UNL     1      -1.506  11.009  19.942  0.00  0.00    +0.000 NA
BRANCH   9  10
ATOM     10  O   UNL     1      -2.115  12.273  19.940  0.00  0.00    +0.000 OA
BRANCH  10  11
ATOM     11  C   UNL     1      -2.874  12.428  18.739  0.00  0.00    +0.000 C 
BRANCH  11  12
ATOM     12  C   UNL     1      -4.132  11.552  18.783  0.00  0.00    +0.000 C 
BRANCH  12  13
ATOM     13  N   UNL     1      -4.269  10.691  17.592  0.00  0.00    +0.000 NA
ATOM     14  C   UNL     1      -3.320   9.567  17.608  0.00  0.00    +0.000 C 
ATOM     15  C   UNL     1      -2.263   9.901  16.572  0.00  0.00    +0.000 C 
ATOM     16  C   UNL     1      -3.063  10.632  15.518  0.00  0.00    +0.000 C 
ATOM     17  C   UNL     1      -4.045  11.445  16.343  0.00  0.00    +0.000 C 
ENDBRANCH  12  13
ENDBRANCH  11  12
ENDBRANCH  10  11
ENDBRANCH   9  10
ENDBRANCH   1   8
BRANCH   4  18
ATOM     18  N   UNL     1       3.073   6.396  19.857  0.00  0.00    +0.000 N 
ATOM     19  H   UNL     1       3.380   6.145  20.792  0.00  0.00    +0.000 HD
BRANCH  18  20
ATOM     20  C   UNL     1       3.129   5.295  18.952  0.00  0.00    +0.000 A 
ATOM     21  C   UNL     1       4.025   5.319  17.839  0.00  0.00    +0.000 A 
ATOM     22  C   UNL     1       4.824   6.436  17.498  0.00  0.00    +0.000 A 
ATOM     23  C   UNL     1       5.689   6.406  16.403  0.00  0.00    +0.000 A 
ATOM     24  C   UNL     1       5.809   5.243  15.654  0.00  0.00    +0.000 A 
ATOM     25  C   UNL     1       5.002   4.148  15.960  0.00  0.00    +0.000 A 
ATOM     26  C   UNL     1       4.071   4.187  16.973  0.00  0.00    +0.000 A 
ATOM     27  N   UNL     1       3.241   3.147  17.050  0.00  0.00    +0.000 NA
ATOM     28  C   UNL     1       2.328   3.228  18.024  0.00  0.00    +0.000 A 
ATOM     29  O   UNL     1       1.271   2.372  18.114  0.00  0.00    +0.000 OA
ATOM     30  C   UNL     1       0.573   2.723  19.223  0.00  0.00    +0.000 A 
ATOM     31  C   UNL     1       1.236   3.712  19.905  0.00  0.00    +0.000 A 
ATOM     32  C   UNL     1       2.263   4.177  19.032  0.00  0.00    +0.000 A 
ENDBRANCH  18  20
ENDBRANCH   4  18
TORSDOF 7
ENDMDL
MODEL 6
REMARK VINA RESULT:      -8.5      1.625      3.434
REMARK  Name = 
REMARK  8 active torsions:
REMARK  status: ('A' for Active; 'I' for Inactive)
REMARK    1  A    between atoms: C_1  and  C_2
REMARK    2  A    between atoms: C_2  and  C_12
REMARK    3  A    between atoms: N_3  and  O_4
REMARK    4  A    between atoms: O_4  and  C_5
REMARK    5  A    between atoms: C_5  and  C_6
REMARK    6  A    between atoms: C_6  and  N_7
REMARK    7  A    between atoms: C_15  and  N_16
REMARK    8  A    between atoms: N_16  and  C_17
REMARK                            x       y       z     vdW  Elec       q    Type
REMARK                         _______ _______ _______ _____ _____    ______ ____
ROOT
ATOM      1  C   UNL     1       0.074   9.817  19.311  0.00  0.00    +0.000 A 
ATOM      2  C   UNL     1       0.300   9.258  20.577  0.00  0.00    +0.000 A 
ATOM      3  C   UNL     1       1.297   8.287  20.765  0.00  0.00    +0.000 A 
ATOM      4  C   UNL     1       2.082   7.861  19.689  0.00  0.00    +0.000 A 
ATOM      5  C   UNL     1       1.903   8.496  18.453  0.00  0.00    +0.000 A 
ATOM      6  C   UNL     1       0.883   9.421  18.247  0.00  0.00    +0.000 A 
ENDROOT
BRANCH   1   8
ATOM      7  C   UNL     1      -1.999  10.567  17.976  0.00  0.00    +0.000 C 
ATOM      8  C   UNL     1      -1.019  10.821  19.111  0.00  0.00    +0.000 C 
ATOM      9  N   UNL     1      -1.088  11.841  19.917  0.00  0.00    +0.000 NA
BRANCH   9  10
ATOM     10  O   UNL     1      -2.161  12.687  19.599  0.00  0.00    +0.000 OA
BRANCH  10  11
ATOM     11  C   UNL     1      -2.730  13.199  20.805  0.00  0.00    +0.000 C 
BRANCH  11  12
ATOM     12  C   UNL     1      -4.206  12.797  20.915  0.00  0.00    +0.000 C 
BRANCH  12  13
ATOM     13  N   UNL     1      -4.602  12.449  22.294  0.00  0.00    +0.000 NA
ATOM     14  C   UNL     1      -5.606  13.379  22.833  0.00  0.00    +0.000 C 
ATOM     15  C   UNL     1      -4.873  14.242  23.842  0.00  0.00    +0.000 C 
ATOM     16  C   UNL     1      -3.864  13.276  24.422  0.00  0.00    +0.000 C 
ATOM     17  C   UNL     1      -3.448  12.458  23.213  0.00  0.00    +0.000 C 
ENDBRANCH  12  13
ENDBRANCH  11  12
ENDBRANCH  10  11
ENDBRANCH   9  10
ENDBRANCH   1   8
BRANCH   4  18
ATOM     18  N   UNL     1       2.996   6.792  19.820  0.00  0.00    +0.000 N 
ATOM     19  H   UNL     1       3.334   6.633  20.764  0.00  0.00    +0.000 HD
BRANCH  18  20
ATOM     20  C   UNL     1       3.048   5.614  19.018  0.00  0.00    +0.000 A 
ATOM     21  C   UNL     1       3.904   5.556  17.875  0.00  0.00    +0.000 A 
ATOM     22  C   UNL     1       4.662   6.653  17.405  0.00  0.00    +0.000 A 
ATOM     23  C   UNL     1       5.490   6.542  16.286  0.00  0.00    +0.000 A 
ATOM     24  C   UNL     1       5.613   5.318  15.642  0.00  0.00    +0.000 A 
ATOM     25  C   UNL     1       4.843   4.238  16.075  0.00  0.00    +0.000 A 
ATOM     26  C   UNL     1       3.948   4.350  17.114  0.00  0.00    +0.000 A 
ATOM     27  N   UNL     1       3.148   3.304  17.316  0.00  0.00    +0.000 NA
ATOM     28  C   UNL     1       2.267   3.454  18.312  0.00  0.00    +0.000 A 
ATOM     29  O   UNL     1       1.235   2.587  18.518  0.00  0.00    +0.000 OA
ATOM     30  C   UNL     1       0.568   3.023  19.615  0.00  0.00    +0.000 A 
ATOM     31  C   UNL     1       1.229   4.084  20.180  0.00  0.00    +0.000 A 
ATOM     32  C   UNL     1       2.213   4.490  19.231  0.00  0.00    +0.000 A 
ENDBRANCH  18  20
ENDBRANCH   4  18
TORSDOF 7
ENDMDL
MODEL 7
REMARK VINA RESULT:      -8.5      2.738      4.360
REMARK  Name = 
REMARK  8 active torsions:
REMARK  status: ('A' for Active; 'I' for Inactive)
REMARK    1  A    between atoms: C_1  and  C_2
REMARK    2  A    between atoms: C_2  and  C_12
REMARK    3  A    between atoms: N_3  and  O_4
REMARK    4  A    between atoms: O_4  and  C_5
REMARK    5  A    between atoms: C_5  and  C_6
REMARK    6  A    between atoms: C_6  and  N_7
REMARK    7  A    between atoms: C_15  and  N_16
REMARK    8  A    between atoms: N_16  and  C_17
REMARK                            x       y       z     vdW  Elec       q    Type
REMARK                         _______ _______ _______ _____ _____    ______ ____
ROOT
ATOM      1  C   UNL     1       0.159   9.723  19.471  0.00  0.00    +0.000 A 
ATOM      2  C   UNL     1       0.376   9.099  20.708  0.00  0.00    +0.000 A 
ATOM      3  C   UNL     1       1.360   8.105  20.847  0.00  0.00    +0.000 A 
ATOM      4  C   UNL     1       2.139   7.723  19.752  0.00  0.00    +0.000 A 
ATOM      5  C   UNL     1       1.971   8.421  18.549  0.00  0.00    +0.000 A 
ATOM      6  C   UNL     1       0.964   9.370  18.389  0.00  0.00    +0.000 A 
ENDROOT
BRANCH   1   8
ATOM      7  C   UNL     1      -0.973  11.862  20.358  0.00  0.00    +0.000 C 
ATOM      8  C   UNL     1      -0.919  10.751  19.320  0.00  0.00    +0.000 C 
ATOM      9  N   UNL     1      -1.736  10.658  18.311  0.00  0.00    +0.000 NA
BRANCH   9  10
ATOM     10  O   UNL     1      -2.686  11.690  18.310  0.00  0.00    +0.000 OA
BRANCH  10  11
ATOM     11  C   UNL     1      -3.988  11.132  18.123  0.00  0.00    +0.000 C 
BRANCH  11  12
ATOM     12  C   UNL     1      -4.679  11.777  16.915  0.00  0.00    +0.000 C 
BRANCH  12  13
ATOM     13  N   UNL     1      -6.132  11.948  17.114  0.00  0.00    +0.000 NA
ATOM     14  C   UNL     1      -6.531  13.364  17.088  0.00  0.00    +0.000 C 
ATOM     15  C   UNL     1      -6.843  13.734  18.526  0.00  0.00    +0.000 C 
ATOM     16  C   UNL     1      -7.426  12.450  19.071  0.00  0.00    +0.000 C 
ATOM     17  C   UNL     1      -6.578  11.383  18.402  0.00  0.00    +0.000 C 
ENDBRANCH  12  13
ENDBRANCH  11  12
ENDBRANCH  10  11
ENDBRANCH   9  10
ENDBRANCH   1   8
BRANCH   4  18
ATOM     18  N   UNL     1       3.039   6.636  19.830  0.00  0.00    +0.000 N 
ATOM     19  H   UNL     1       3.369   6.422  20.766  0.00  0.00    +0.000 HD
BRANCH  18  20
ATOM     20  C   UNL     1       3.079   5.502  18.966  0.00  0.00    +0.000 A 
ATOM     21  C   UNL     1       3.961   5.482  17.842  0.00  0.00    +0.000 A 
ATOM     22  C   UNL     1       4.760   6.582  17.450  0.00  0.00    +0.000 A 
ATOM     23  C   UNL     1       5.611   6.508  16.347  0.00  0.00    +0.000 A 
ATOM     24  C   UNL     1       5.718   5.318  15.639  0.00  0.00    +0.000 A 
ATOM     25  C   UNL     1       4.910   4.238  15.995  0.00  0.00    +0.000 A 
ATOM     26  C   UNL     1       3.992   4.318  17.018  0.00  0.00    +0.000 A 
ATOM     27  N   UNL     1       3.160   3.285  17.143  0.00  0.00    +0.000 NA
ATOM     28  C   UNL     1       2.260   3.406  18.125  0.00  0.00    +0.000 A 
ATOM     29  O   UNL     1       1.200   2.558  18.260  0.00  0.00    +0.000 OA
ATOM     30  C   UNL     1       0.517   2.952  19.363  0.00  0.00    +0.000 A 
ATOM     31  C   UNL     1       1.192   3.963  20.000  0.00  0.00    +0.000 A 
ATOM     32  C   UNL     1       2.210   4.392  19.098  0.00  0.00    +0.000 A 
ENDBRANCH  18  20
ENDBRANCH   4  18
TORSDOF 7
ENDMDL
MODEL 8
REMARK VINA RESULT:      -8.4      1.347      1.905
REMARK  Name = 
REMARK  8 active torsions:
REMARK  status: ('A' for Active; 'I' for Inactive)
REMARK    1  A    between atoms: C_1  and  C_2
REMARK    2  A    between atoms: C_2  and  C_12
REMARK    3  A    between atoms: N_3  and  O_4
REMARK    4  A    between atoms: O_4  and  C_5
REMARK    5  A    between atoms: C_5  and  C_6
REMARK    6  A    between atoms: C_6  and  N_7
REMARK    7  A    between atoms: C_15  and  N_16
REMARK    8  A    between atoms: N_16  and  C_17
REMARK                            x       y       z     vdW  Elec       q    Type
REMARK                         _______ _______ _______ _____ _____    ______ ____
ROOT
ATOM      1  C   UNL     1      -0.110  10.029  19.233  0.00  0.00    +0.000 A 
ATOM      2  C   UNL     1       0.066   9.423  20.484  0.00  0.00    +0.000 A 
ATOM      3  C   UNL     1       1.071   8.462  20.681  0.00  0.00    +0.000 A 
ATOM      4  C   UNL     1       1.915   8.095  19.629  0.00  0.00    +0.000 A 
ATOM      5  C   UNL     1       1.783   8.776  18.412  0.00  0.00    +0.000 A 
ATOM      6  C   UNL     1       0.756   9.692  18.194  0.00  0.00    +0.000 A 
ENDROOT
BRANCH   1   8
ATOM      7  C   UNL     1      -1.939  10.979  17.685  0.00  0.00    +0.000 C 
ATOM      8  C   UNL     1      -1.211  11.022  19.019  0.00  0.00    +0.000 C 
ATOM      9  N   UNL     1      -1.502  11.850  19.980  0.00  0.00    +0.000 NA
BRANCH   9  10
ATOM     10  O   UNL     1      -2.550  12.713  19.627  0.00  0.00    +0.000 OA
BRANCH  10  11
ATOM     11  C   UNL     1      -2.853  13.564  20.734  0.00  0.00    +0.000 C 
BRANCH  11  12
ATOM     12  C   UNL     1      -3.242  12.730  21.962  0.00  0.00    +0.000 C 
BRANCH  12  13
ATOM     13  N   UNL     1      -4.122  13.463  22.893  0.00  0.00    +0.000 NA
ATOM     14  C   UNL     1      -3.773  13.210  24.299  0.00  0.00    +0.000 C 
ATOM     15  C   UNL     1      -4.862  12.305  24.842  0.00  0.00    +0.000 C 
ATOM     16  C   UNL     1      -6.085  12.788  24.096  0.00  0.00    +0.000 C 
ATOM     17  C   UNL     1      -5.539  13.092  22.712  0.00  0.00    +0.000 C 
ENDBRANCH  12  13
ENDBRANCH  11  12
ENDBRANCH  10  11
ENDBRANCH   9  10
ENDBRANCH   1   8
BRANCH   4  18
ATOM     18  N   UNL     1       2.842   7.037  19.762  0.00  0.00    +0.000 N 
ATOM     19  H   UNL     1       3.072   6.788  20.719  0.00  0.00    +0.000 HD
BRANCH  18  20
ATOM     20  C   UNL     1       3.027   5.950  18.857  0.00  0.00    +0.000 A 
ATOM     21  C   UNL     1       2.324   4.721  19.053  0.00  0.00    +0.000 A 
ATOM     22  C   UNL     1       1.499   4.456  20.172  0.00  0.00    +0.000 A 
ATOM     23  C   UNL     1       0.828   3.241  20.312  0.00  0.00    +0.000 A 
ATOM     24  C   UNL     1       0.929   2.281  19.313  0.00  0.00    +0.000 A 
ATOM     25  C   UNL     1       1.766   2.517  18.222  0.00  0.00    +0.000 A 
ATOM     26  C   UNL     1       2.514   3.667  18.111  0.00  0.00    +0.000 A 
ATOM     27  N   UNL     1       3.405   3.695  17.120  0.00  0.00    +0.000 NA
ATOM     28  C   UNL     1       4.138   4.812  17.056  0.00  0.00    +0.000 A 
ATOM     29  O   UNL     1       5.235   4.927  16.255  0.00  0.00    +0.000 OA
ATOM     30  C   UNL     1       5.713   6.185  16.417  0.00  0.00    +0.000 A 
ATOM     31  C   UNL     1       4.867   6.911  17.218  0.00  0.00    +0.000 A 
ATOM     32  C   UNL     1       3.960   5.973  17.792  0.00  0.00    +0.000 A 
ENDBRANCH  18  20
ENDBRANCH   4  18
TORSDOF 7
ENDMDL
MODEL 9
REMARK VINA RESULT:      -8.4      1.881      2.461
REMARK  Name = 
REMARK  8 active torsions:
REMARK  status: ('A' for Active; 'I' for Inactive)
REMARK    1  A    between atoms: C_1  and  C_2
REMARK    2  A    between atoms: C_2  and  C_12
REMARK    3  A    between atoms: N_3  and  O_4
REMARK    4  A    between atoms: O_4  and  C_5
REMARK    5  A    between atoms: C_5  and  C_6
REMARK    6  A    between atoms: C_6  and  N_7
REMARK    7  A    between atoms: C_15  and  N_16
REMARK    8  A    between atoms: N_16  and  C_17
REMARK                            x       y       z     vdW  Elec       q    Type
REMARK                         _______ _______ _______ _____ _____    ______ ____
ROOT
ATOM      1  C   UNL     1      -0.144  10.063  19.330  0.00  0.00    +0.000 A 
ATOM      2  C   UNL     1       0.093   9.482  20.584  0.00  0.00    +0.000 A 
ATOM      3  C   UNL     1       1.107   8.525  20.752  0.00  0.00    +0.000 A 
ATOM      4  C   UNL     1       1.899   8.136  19.668  0.00  0.00    +0.000 A 
ATOM      5  C   UNL     1       1.708   8.792  18.445  0.00  0.00    +0.000 A 
ATOM      6  C   UNL     1       0.672   9.704  18.258  0.00  0.00    +0.000 A 
ENDROOT
BRANCH   1   8
ATOM      7  C   UNL     1      -1.864  11.169  17.761  0.00  0.00    +0.000 C 
ATOM      8  C   UNL     1      -1.255  11.052  19.150  0.00  0.00    +0.000 C 
ATOM      9  N   UNL     1      -1.653  11.740  20.180  0.00  0.00    +0.000 NA
BRANCH   9  10
ATOM     10  O   UNL     1      -2.695  12.620  19.850  0.00  0.00    +0.000 OA
BRANCH  10  11
ATOM     11  C   UNL     1      -3.029  13.405  20.996  0.00  0.00    +0.000 C 
BRANCH  11  12
ATOM     12  C   UNL     1      -4.543  13.645  21.059  0.00  0.00    +0.000 C 
BRANCH  12  13
ATOM     13  N   UNL     1      -5.280  12.494  21.616  0.00  0.00    +0.000 NA
ATOM     14  C   UNL     1      -6.241  11.933  20.654  0.00  0.00    +0.000 C 
ATOM     15  C   UNL     1      -7.613  12.353  21.144  0.00  0.00    +0.000 C 
ATOM     16  C   UNL     1      -7.440  12.330  22.646  0.00  0.00    +0.000 C 
ATOM     17  C   UNL     1      -6.030  12.861  22.832  0.00  0.00    +0.000 C 
ENDBRANCH  12  13
ENDBRANCH  11  12
ENDBRANCH  10  11
ENDBRANCH   9  10
ENDBRANCH   1   8
BRANCH   4  18
ATOM     18  N   UNL     1       2.832   7.081  19.777  0.00  0.00    +0.000 N 
ATOM     19  H   UNL     1       3.097   6.841  20.727  0.00  0.00    +0.000 HD
BRANCH  18  20
ATOM     20  C   UNL     1       2.985   5.985  18.877  0.00  0.00    +0.000 A 
ATOM     21  C   UNL     1       2.280   4.762  19.102  0.00  0.00    +0.000 A 
ATOM     22  C   UNL     1       1.485   4.512  20.245  0.00  0.00    +0.000 A 
ATOM     23  C   UNL     1       0.810   3.302  20.414  0.00  0.00    +0.000 A 
ATOM     24  C   UNL     1       0.878   2.334  19.421  0.00  0.00    +0.000 A 
ATOM     25  C   UNL     1       1.687   2.555  18.306  0.00  0.00    +0.000 A 
ATOM     26  C   UNL     1       2.438   3.699  18.164  0.00  0.00    +0.000 A 
ATOM     27  N   UNL     1       3.302   3.713  17.149  0.00  0.00    +0.000 NA
ATOM     28  C   UNL     1       4.040   4.825  17.056  0.00  0.00    +0.000 A 
ATOM     29  O   UNL     1       5.116   4.926  16.225  0.00  0.00    +0.000 OA
ATOM     30  C   UNL     1       5.605   6.183  16.364  0.00  0.00    +0.000 A 
ATOM     31  C   UNL     1       4.787   6.921  17.181  0.00  0.00    +0.000 A 
ATOM     32  C   UNL     1       3.889   5.993  17.787  0.00  0.00    +0.000 A 
ENDBRANCH  18  20
ENDBRANCH   4  18
TORSDOF 7
ENDMDL
