MODEL 1
REMARK VINA RESULT:      -7.4      0.000      0.000
REMARK  Name = 
REMARK  5 active torsions:
REMARK  status: ('A' for Active; 'I' for Inactive)
REMARK    1  A    between atoms: C_1  and  N_2
REMARK    2  A    between atoms: C_6  and  C_8
REMARK    3  A    between atoms: C_8  and  C_9
REMARK    4  A    between atoms: C_9  and  C_10
REMARK    5  A    between atoms: C_13  and  C_14
REMARK                            x       y       z     vdW  Elec       q    Type
REMARK                         _______ _______ _______ _____ _____    ______ ____
ROOT
ATOM      1  C   UNL     1       6.981   5.137  17.684  0.00  0.00    +0.000 C 
ENDROOT
BRANCH   1   2
ATOM      2  C   UNL     1       6.774   4.716  16.234  0.00  0.00    +0.000 A 
ATOM      3  N   UNL     1       7.600   5.303  15.316  0.00  0.00    +0.000 NA
ATOM      4  C   UNL     1       7.472   4.968  14.013  0.00  0.00    +0.000 A 
ATOM      5  C   UNL     1       6.552   4.054  13.541  0.00  0.00    +0.000 A 
ATOM      6  C   UNL     1       5.705   3.456  14.482  0.00  0.00    +0.000 A 
ATOM      7  C   UNL     1       5.811   3.786  15.838  0.00  0.00    +0.000 A 
ATOM      8 CL   UNL     1       4.739   3.012  16.940  0.00  0.00    +0.000 Cl
BRANCH   5   9
ATOM      9  C   UNL     1       6.468   3.724  12.084  0.00  0.00    +0.000 C 
ATOM     10  F   UNL     1       6.947   2.487  11.778  0.00  0.00    +0.000 F 
ATOM     11  F   UNL     1       5.190   3.755  11.619  0.00  0.00    +0.000 F 
ATOM     12  F   UNL     1       7.170   4.597  11.312  0.00  0.00    +0.000 F 
ENDBRANCH   5   9
ENDBRANCH   1   2
BRANCH   1  13
ATOM     13  C   UNL     1       6.214   6.427  18.000  0.00  0.00    +0.000 C 
BRANCH  13  19
ATOM     14  C   UNL     1       1.175   2.985  19.861  0.00  0.00    +0.000 C 
ATOM     15  N   UNL     1       1.856   4.246  19.583  0.00  0.00    +0.000 NA
ATOM     16  C   UNL     1       1.708   4.631  18.163  0.00  0.00    +0.000 C 
ATOM     17  C   UNL     1       2.418   5.966  17.843  0.00  0.00    +0.000 C 
ATOM     18  N   UNL     1       3.824   5.934  18.258  0.00  0.00    +0.000 N 
ATOM     19  C   UNL     1       4.800   6.537  17.464  0.00  0.00    +0.000 C 
ATOM     20  O   UNL     1       4.554   7.084  16.394  0.00  0.00    +0.000 OA
ATOM     21  C   UNL     1       4.028   5.467  19.638  0.00  0.00    +0.000 C 
ATOM     22  C   UNL     1       3.292   4.145  19.913  0.00  0.00    +0.000 C 
ENDBRANCH  13  19
ENDBRANCH   1  13
TORSDOF 4
ENDMDL
MODEL 2
REMARK VINA RESULT:      -6.9      5.850      7.783
REMARK  Name = 
REMARK  5 active torsions:
REMARK  status: ('A' for Active; 'I' for Inactive)
REMARK    1  A    between atoms: C_1  and  N_2
REMARK    2  A    between atoms: C_6  and  C_8
REMARK    3  A    between atoms: C_8  and  C_9
REMARK    4  A    between atoms: C_9  and  C_10
REMARK    5  A    between atoms: C_13  and  C_14
REMARK                            x       y       z     vdW  Elec       q    Type
REMARK                         _______ _______ _______ _____ _____    ______ ____
ROOT
ATOM      1  C   UNL     1       1.857   7.984  20.714  0.00  0.00    +0.000 C 
ENDROOT
BRANCH   1   2
ATOM      2  C   UNL     1       1.873   6.601  20.075  0.00  0.00    +0.000 A 
ATOM      3  N   UNL     1       1.335   5.589  20.822  0.00  0.00    +0.000 NA
ATOM      4  C   UNL     1       1.312   4.339  20.309  0.00  0.00    +0.000 A 
ATOM      5  C   UNL     1       1.798   4.011  19.060  0.00  0.00    +0.000 A 
ATOM      6  C   UNL     1       2.351   5.046  18.298  0.00  0.00    +0.000 A 
ATOM      7  C   UNL     1       2.393   6.351  18.803  0.00  0.00    +0.000 A 
ATOM      8 CL   UNL     1       3.086   7.576  17.813  0.00  0.00    +0.000 Cl
BRANCH   5   9
ATOM      9  C   UNL     1       1.735   2.605  18.551  0.00  0.00    +0.000 C 
ATOM     10  F   UNL     1       0.475   2.094  18.519  0.00  0.00    +0.000 F 
ATOM     11  F   UNL     1       2.216   2.492  17.283  0.00  0.00    +0.000 F 
ATOM     12  F   UNL     1       2.467   1.744  19.309  0.00  0.00    +0.000 F 
ENDBRANCH   5   9
ENDBRANCH   1   2
BRANCH   1  13
ATOM     13  C   UNL     1       0.517   8.257  21.408  0.00  0.00    +0.000 C 
BRANCH  13  19
ATOM     14  C   UNL     1      -0.174  13.966  18.646  0.00  0.00    +0.000 C 
ATOM     15  N   UNL     1      -0.574  12.917  19.579  0.00  0.00    +0.000 NA
ATOM     16  C   UNL     1       0.118  13.065  20.878  0.00  0.00    +0.000 C 
ATOM     17  C   UNL     1      -0.292  11.967  21.885  0.00  0.00    +0.000 C 
ATOM     18  N   UNL     1      -0.110  10.628  21.317  0.00  0.00    +0.000 N 
ATOM     19  C   UNL     1       0.367   9.588  22.117  0.00  0.00    +0.000 C 
ATOM     20  O   UNL     1       0.680   9.735  23.294  0.00  0.00    +0.000 OA
ATOM     21  C   UNL     1      -0.703  10.461  19.982  0.00  0.00    +0.000 C 
ATOM     22  C   UNL     1      -0.279  11.583  19.019  0.00  0.00    +0.000 C 
ENDBRANCH  13  19
ENDBRANCH   1  13
TORSDOF 4
ENDMDL
MODEL 3
REMARK VINA RESULT:      -6.8      4.368      5.364
REMARK  Name = 
REMARK  5 active torsions:
REMARK  status: ('A' for Active; 'I' for Inactive)
REMARK    1  A    between atoms: C_1  and  N_2
REMARK    2  A    between atoms: C_6  and  C_8
REMARK    3  A    between atoms: C_8  and  C_9
REMARK    4  A    between atoms: C_9  and  C_10
REMARK    5  A    between atoms: C_13  and  C_14
REMARK                            x       y       z     vdW  Elec       q    Type
REMARK                         _______ _______ _______ _____ _____    ______ ____
ROOT
ATOM      1  C   UNL     1       2.152   5.231  20.074  0.00  0.00    +0.000 C 
ENDROOT
BRANCH   1   2
ATOM      2  C   UNL     1       3.377   5.050  19.187  0.00  0.00    +0.000 A 
ATOM      3  N   UNL     1       4.556   5.529  19.688  0.00  0.00    +0.000 NA
ATOM      4  C   UNL     1       5.682   5.394  18.953  0.00  0.00    +0.000 A 
ATOM      5  C   UNL     1       5.722   4.790  17.712  0.00  0.00    +0.000 A 
ATOM      6  C   UNL     1       4.515   4.303  17.199  0.00  0.00    +0.000 A 
ATOM      7  C   UNL     1       3.331   4.432  17.935  0.00  0.00    +0.000 A 
ATOM      8 CL   UNL     1       1.882   3.811  17.245  0.00  0.00    +0.000 Cl
BRANCH   5   9
ATOM      9  C   UNL     1       7.007   4.668  16.954  0.00  0.00    +0.000 C 
ATOM     10  F   UNL     1       8.041   4.202  17.705  0.00  0.00    +0.000 F 
ATOM     11  F   UNL     1       6.903   3.820  15.895  0.00  0.00    +0.000 F 
ATOM     12  F   UNL     1       7.424   5.858  16.442  0.00  0.00    +0.000 F 
ENDBRANCH   5   9
ENDBRANCH   1   2
BRANCH   1  13
ATOM     13  C   UNL     1       2.197   6.575  20.811  0.00  0.00    +0.000 C 
BRANCH  13  19
ATOM     14  C   UNL     1      -1.391  11.391  22.966  0.00  0.00    +0.000 C 
ATOM     15  N   UNL     1      -0.196  10.844  22.326  0.00  0.00    +0.000 NA
ATOM     16  C   UNL     1      -0.401  10.675  20.871  0.00  0.00    +0.000 C 
ATOM     17  C   UNL     1       0.851  10.100  20.170  0.00  0.00    +0.000 C 
ATOM     18  N   UNL     1       1.297   8.858  20.809  0.00  0.00    +0.000 N 
ATOM     19  C   UNL     1       1.776   7.804  20.030  0.00  0.00    +0.000 C 
ATOM     20  O   UNL     1       1.824   7.841  18.805  0.00  0.00    +0.000 OA
ATOM     21  C   UNL     1       1.425   8.953  22.272  0.00  0.00    +0.000 C 
ATOM     22  C   UNL     1       0.163   9.542  22.923  0.00  0.00    +0.000 C 
ENDBRANCH  13  19
ENDBRANCH   1  13
TORSDOF 4
ENDMDL
MODEL 4
REMARK VINA RESULT:      -6.8      1.855      2.515
REMARK  Name = 
REMARK  5 active torsions:
REMARK  status: ('A' for Active; 'I' for Inactive)
REMARK    1  A    between atoms: C_1  and  N_2
REMARK    2  A    between atoms: C_6  and  C_8
REMARK    3  A    between atoms: C_8  and  C_9
REMARK    4  A    between atoms: C_9  and  C_10
REMARK    5  A    between atoms: C_13  and  C_14
REMARK                            x       y       z     vdW  Elec       q    Type
REMARK                         _______ _______ _______ _____ _____    ______ ____
ROOT
ATOM      1  C   UNL     1       6.903   5.281  17.561  0.00  0.00    +0.000 C 
ENDROOT
BRANCH   1   2
ATOM      2  C   UNL     1       6.709   4.811  16.125  0.00  0.00    +0.000 A 
ATOM      3  N   UNL     1       7.607   5.290  15.211  0.00  0.00    +0.000 NA
ATOM      4  C   UNL     1       7.494   4.906  13.921  0.00  0.00    +0.000 A 
ATOM      5  C   UNL     1       6.521   4.045  13.457  0.00  0.00    +0.000 A 
ATOM      6  C   UNL     1       5.600   3.558  14.392  0.00  0.00    +0.000 A 
ATOM      7  C   UNL     1       5.689   3.941  15.736  0.00  0.00    +0.000 A 
ATOM      8 CL   UNL     1       4.525   3.304  16.833  0.00  0.00    +0.000 Cl
BRANCH   5   9
ATOM      9  C   UNL     1       6.457   3.655  12.014  0.00  0.00    +0.000 C 
ATOM     10  F   UNL     1       7.005   2.437  11.754  0.00  0.00    +0.000 F 
ATOM     11  F   UNL     1       5.180   3.596  11.549  0.00  0.00    +0.000 F 
ATOM     12  F   UNL     1       7.110   4.536  11.208  0.00  0.00    +0.000 F 
ENDBRANCH   5   9
ENDBRANCH   1   2
BRANCH   1  13
ATOM     13  C   UNL     1       5.896   6.381  17.923  0.00  0.00    +0.000 C 
BRANCH  13  19
ATOM     14  C   UNL     1       0.694   9.824  19.258  0.00  0.00    +0.000 C 
ATOM     15  N   UNL     1       1.372   8.589  18.872  0.00  0.00    +0.000 NA
ATOM     16  C   UNL     1       1.780   7.810  20.061  0.00  0.00    +0.000 C 
ATOM     17  C   UNL     1       2.497   6.496  19.679  0.00  0.00    +0.000 C 
ATOM     18  N   UNL     1       3.624   6.747  18.775  0.00  0.00    +0.000 N 
ATOM     19  C   UNL     1       4.807   6.020  18.914  0.00  0.00    +0.000 C 
ATOM     20  O   UNL     1       4.980   5.177  19.788  0.00  0.00    +0.000 OA
ATOM     21  C   UNL     1       3.286   7.597  17.623  0.00  0.00    +0.000 C 
ATOM     22  C   UNL     1       2.562   8.885  18.050  0.00  0.00    +0.000 C 
ENDBRANCH  13  19
ENDBRANCH   1  13
TORSDOF 4
ENDMDL
MODEL 5
REMARK VINA RESULT:      -6.8      5.495      6.945
REMARK  Name = 
REMARK  5 active torsions:
REMARK  status: ('A' for Active; 'I' for Inactive)
REMARK    1  A    between atoms: C_1  and  N_2
REMARK    2  A    between atoms: C_6  and  C_8
REMARK    3  A    between atoms: C_8  and  C_9
REMARK    4  A    between atoms: C_9  and  C_10
REMARK    5  A    between atoms: C_13  and  C_14
REMARK                            x       y       z     vdW  Elec       q    Type
REMARK                         _______ _______ _______ _____ _____    ______ ____
ROOT
ATOM      1  C   UNL     1       2.915   8.019  17.833  0.00  0.00    +0.000 C 
ENDROOT
BRANCH   1   2
ATOM      2  C   UNL     1       3.018   6.625  18.439  0.00  0.00    +0.000 A 
ATOM      3  N   UNL     1       2.271   6.402  19.563  0.00  0.00    +0.000 NA
ATOM      4  C   UNL     1       2.313   5.184  20.145  0.00  0.00    +0.000 A 
ATOM      5  C   UNL     1       3.068   4.131  19.671  0.00  0.00    +0.000 A 
ATOM      6  C   UNL     1       3.835   4.360  18.523  0.00  0.00    +0.000 A 
ATOM      7  C   UNL     1       3.815   5.613  17.900  0.00  0.00    +0.000 A 
ATOM      8 CL   UNL     1       4.782   5.826  16.491  0.00  0.00    +0.000 Cl
BRANCH   5   9
ATOM      9  C   UNL     1       3.063   2.803  20.362  0.00  0.00    +0.000 C 
ATOM     10  F   UNL     1       4.271   2.177  20.347  0.00  0.00    +0.000 F 
ATOM     11  F   UNL     1       2.711   2.904  21.673  0.00  0.00    +0.000 F 
ATOM     12  F   UNL     1       2.183   1.929  19.803  0.00  0.00    +0.000 F 
ENDBRANCH   5   9
ENDBRANCH   1   2
BRANCH   1  13
ATOM     13  C   UNL     1       1.588   8.688  18.210  0.00  0.00    +0.000 C 
BRANCH  13  19
ATOM     14  C   UNL     1      -1.454  11.411  23.113  0.00  0.00    +0.000 C 
ATOM     15  N   UNL     1      -0.259  11.118  22.325  0.00  0.00    +0.000 NA
ATOM     16  C   UNL     1      -0.088  12.098  21.231  0.00  0.00    +0.000 C 
ATOM     17  C   UNL     1       1.172  11.811  20.384  0.00  0.00    +0.000 C 
ATOM     18  N   UNL     1       1.179  10.431  19.889  0.00  0.00    +0.000 N 
ATOM     19  C   UNL     1       1.640  10.152  18.602  0.00  0.00    +0.000 C 
ATOM     20  O   UNL     1       2.026  11.018  17.823  0.00  0.00    +0.000 OA
ATOM     21  C   UNL     1       0.920   9.423  20.930  0.00  0.00    +0.000 C 
ATOM     22  C   UNL     1      -0.334   9.758  21.755  0.00  0.00    +0.000 C 
ENDBRANCH  13  19
ENDBRANCH   1  13
TORSDOF 4
ENDMDL
MODEL 6
REMARK VINA RESULT:      -6.7      3.929      4.624
REMARK  Name = 
REMARK  5 active torsions:
REMARK  status: ('A' for Active; 'I' for Inactive)
REMARK    1  A    between atoms: C_1  and  N_2
REMARK    2  A    between atoms: C_6  and  C_8
REMARK    3  A    between atoms: C_8  and  C_9
REMARK    4  A    between atoms: C_9  and  C_10
REMARK    5  A    between atoms: C_13  and  C_14
REMARK                            x       y       z     vdW  Elec       q    Type
REMARK                         _______ _______ _______ _____ _____    ______ ____
ROOT
ATOM      1  C   UNL     1       3.047   6.832  18.981  0.00  0.00    +0.000 C 
ENDROOT
BRANCH   1   2
ATOM      2  C   UNL     1       3.745   6.112  17.834  0.00  0.00    +0.000 A 
ATOM      3  N   UNL     1       4.512   6.892  17.014  0.00  0.00    +0.000 NA
ATOM      4  C   UNL     1       5.163   6.313  15.981  0.00  0.00    +0.000 A 
ATOM      5  C   UNL     1       5.110   4.963  15.699  0.00  0.00    +0.000 A 
ATOM      6  C   UNL     1       4.323   4.166  16.537  0.00  0.00    +0.000 A 
ATOM      7  C   UNL     1       3.632   4.738  17.612  0.00  0.00    +0.000 A 
ATOM      8 CL   UNL     1       2.683   3.699  18.604  0.00  0.00    +0.000 Cl
BRANCH   5   9
ATOM      9  C   UNL     1       5.863   4.385  14.542  0.00  0.00    +0.000 C 
ATOM     10  F   UNL     1       6.506   3.223  14.837  0.00  0.00    +0.000 F 
ATOM     11  F   UNL     1       5.052   4.105  13.485  0.00  0.00    +0.000 F 
ATOM     12  F   UNL     1       6.818   5.231  14.068  0.00  0.00    +0.000 F 
ENDBRANCH   5   9
ENDBRANCH   1   2
BRANCH   1  13
ATOM     13  C   UNL     1       1.732   7.469  18.514  0.00  0.00    +0.000 C 
BRANCH  13  19
ATOM     14  C   UNL     1      -1.174  10.944  23.006  0.00  0.00    +0.000 C 
ATOM     15  N   UNL     1      -0.027  10.594  22.173  0.00  0.00    +0.000 NA
ATOM     16  C   UNL     1      -0.072  11.305  20.877  0.00  0.00    +0.000 C 
ATOM     17  C   UNL     1       1.135  10.955  19.977  0.00  0.00    +0.000 C 
ATOM     18  N   UNL     1       1.265   9.505  19.802  0.00  0.00    +0.000 N 
ATOM     19  C   UNL     1       1.642   8.981  18.565  0.00  0.00    +0.000 C 
ATOM     20  O   UNL     1       1.850   9.677  17.576  0.00  0.00    +0.000 OA
ATOM     21  C   UNL     1       1.222   8.745  21.061  0.00  0.00    +0.000 C 
ATOM     22  C   UNL     1       0.014   9.138  21.929  0.00  0.00    +0.000 C 
ENDBRANCH  13  19
ENDBRANCH   1  13
TORSDOF 4
ENDMDL
MODEL 7
REMARK VINA RESULT:      -6.7      5.225      6.446
REMARK  Name = 
REMARK  5 active torsions:
REMARK  status: ('A' for Active; 'I' for Inactive)
REMARK    1  A    between atoms: C_1  and  N_2
REMARK    2  A    between atoms: C_6  and  C_8
REMARK    3  A    between atoms: C_8  and  C_9
REMARK    4  A    between atoms: C_9  and  C_10
REMARK    5  A    between atoms: C_13  and  C_14
REMARK                            x       y       z     vdW  Elec       q    Type
REMARK                         _______ _______ _______ _____ _____    ______ ____
ROOT
ATOM      1  C   UNL     1       2.814   7.787  17.904  0.00  0.00    +0.000 C 
ENDROOT
BRANCH   1   2
ATOM      2  C   UNL     1       3.050   6.292  18.077  0.00  0.00    +0.000 A 
ATOM      3  N   UNL     1       2.260   5.663  19.001  0.00  0.00    +0.000 NA
ATOM      4  C   UNL     1       2.415   4.336  19.198  0.00  0.00    +0.000 A 
ATOM      5  C   UNL     1       3.328   3.558  18.514  0.00  0.00    +0.000 A 
ATOM      6  C   UNL     1       4.137   4.203  17.572  0.00  0.00    +0.000 A 
ATOM      7  C   UNL     1       4.003   5.578  17.348  0.00  0.00    +0.000 A 
ATOM      8 CL   UNL     1       5.030   6.307  16.175  0.00  0.00    +0.000 Cl
BRANCH   5   9
ATOM      9  C   UNL     1       3.443   2.089  18.778  0.00  0.00    +0.000 C 
ATOM     10  F   UNL     1       2.295   1.530  19.249  0.00  0.00    +0.000 F 
ATOM     11  F   UNL     1       3.769   1.387  17.659  0.00  0.00    +0.000 F 
ATOM     12  F   UNL     1       4.403   1.799  19.697  0.00  0.00    +0.000 F 
ENDBRANCH   5   9
ENDBRANCH   1   2
BRANCH   1  13
ATOM     13  C   UNL     1       1.798   8.308  18.928  0.00  0.00    +0.000 C 
BRANCH  13  19
ATOM     14  C   UNL     1      -1.697  11.474  23.226  0.00  0.00    +0.000 C 
ATOM     15  N   UNL     1      -0.465  11.224  22.481  0.00  0.00    +0.000 NA
ATOM     16  C   UNL     1      -0.460  11.957  21.197  0.00  0.00    +0.000 C 
ATOM     17  C   UNL     1       0.836  11.712  20.391  0.00  0.00    +0.000 C 
ATOM     18  N   UNL     1       1.085  10.279  20.205  0.00  0.00    +0.000 N 
ATOM     19  C   UNL     1       1.594   9.809  18.994  0.00  0.00    +0.000 C 
ATOM     20  O   UNL     1       1.828  10.538  18.035  0.00  0.00    +0.000 OA
ATOM     21  C   UNL     1       0.998   9.493  21.446  0.00  0.00    +0.000 C 
ATOM     22  C   UNL     1      -0.299   9.780  22.220  0.00  0.00    +0.000 C 
ENDBRANCH  13  19
ENDBRANCH   1  13
TORSDOF 4
ENDMDL
MODEL 8
REMARK VINA RESULT:      -6.7      4.257      5.086
REMARK  Name = 
REMARK  5 active torsions:
REMARK  status: ('A' for Active; 'I' for Inactive)
REMARK    1  A    between atoms: C_1  and  N_2
REMARK    2  A    between atoms: C_6  and  C_8
REMARK    3  A    between atoms: C_8  and  C_9
REMARK    4  A    between atoms: C_9  and  C_10
REMARK    5  A    between atoms: C_13  and  C_14
REMARK                            x       y       z     vdW  Elec       q    Type
REMARK                         _______ _______ _______ _____ _____    ______ ____
ROOT
ATOM      1  C   UNL     1       1.881   6.362  18.357  0.00  0.00    +0.000 C 
ENDROOT
BRANCH   1   2
ATOM      2  C   UNL     1       3.163   5.813  17.743  0.00  0.00    +0.000 A 
ATOM      3  N   UNL     1       4.151   6.726  17.502  0.00  0.00    +0.000 NA
ATOM      4  C   UNL     1       5.316   6.302  16.964  0.00  0.00    +0.000 A 
ATOM      5  C   UNL     1       5.580   4.987  16.642  0.00  0.00    +0.000 A 
ATOM      6  C   UNL     1       4.567   4.053  16.886  0.00  0.00    +0.000 A 
ATOM      7  C   UNL     1       3.347   4.463  17.439  0.00  0.00    +0.000 A 
ATOM      8 CL   UNL     1       2.145   3.262  17.714  0.00  0.00    +0.000 Cl
BRANCH   5   9
ATOM      9  C   UNL     1       6.896   4.584  16.054  0.00  0.00    +0.000 C 
ATOM     10  F   UNL     1       6.807   3.548  15.177  0.00  0.00    +0.000 F 
ATOM     11  F   UNL     1       7.490   5.600  15.371  0.00  0.00    +0.000 F 
ATOM     12  F   UNL     1       7.792   4.194  17.001  0.00  0.00    +0.000 F 
ENDBRANCH   5   9
ENDBRANCH   1   2
BRANCH   1  13
ATOM     13  C   UNL     1       2.188   7.426  19.417  0.00  0.00    +0.000 C 
BRANCH  13  19
ATOM     14  C   UNL     1      -1.430  11.068  23.206  0.00  0.00    +0.000 C 
ATOM     15  N   UNL     1      -0.244  10.816  22.392  0.00  0.00    +0.000 NA
ATOM     16  C   UNL     1      -0.485  11.166  20.975  0.00  0.00    +0.000 C 
ATOM     17  C   UNL     1       0.757  10.912  20.092  0.00  0.00    +0.000 C 
ATOM     18  N   UNL     1       1.244   9.537  20.241  0.00  0.00    +0.000 N 
ATOM     19  C   UNL     1       1.722   8.840  19.130  0.00  0.00    +0.000 C 
ATOM     20  O   UNL     1       1.734   9.309  17.996  0.00  0.00    +0.000 OA
ATOM     21  C   UNL     1       1.412   9.112  21.640  0.00  0.00    +0.000 C 
ATOM     22  C   UNL     1       0.158   9.398  22.482  0.00  0.00    +0.000 C 
ENDBRANCH  13  19
ENDBRANCH   1  13
TORSDOF 4
ENDMDL
MODEL 9
REMARK VINA RESULT:      -6.7      5.473      7.243
REMARK  Name = 
REMARK  5 active torsions:
REMARK  status: ('A' for Active; 'I' for Inactive)
REMARK    1  A    between atoms: C_1  and  N_2
REMARK    2  A    between atoms: C_6  and  C_8
REMARK    3  A    between atoms: C_8  and  C_9
REMARK    4  A    between atoms: C_9  and  C_10
REMARK    5  A    between atoms: C_13  and  C_14
REMARK                            x       y       z     vdW  Elec       q    Type
REMARK                         _______ _______ _______ _____ _____    ______ ____
ROOT
ATOM      1  C   UNL     1       2.162   7.778  19.935  0.00  0.00    +0.000 C 
ENDROOT
BRANCH   1   2
ATOM      2  C   UNL     1       2.324   6.318  19.528  0.00  0.00    +0.000 A 
ATOM      3  N   UNL     1       1.661   5.404  20.299  0.00  0.00    +0.000 NA
ATOM      4  C   UNL     1       1.758   4.093  19.987  0.00  0.00    +0.000 A 
ATOM      5  C   UNL     1       2.489   3.608  18.922  0.00  0.00    +0.000 A 
ATOM      6  C   UNL     1       3.170   4.544  18.136  0.00  0.00    +0.000 A 
ATOM      7  C   UNL     1       3.092   5.909  18.436  0.00  0.00    +0.000 A 
ATOM      8 CL   UNL     1       3.954   7.006  17.427  0.00  0.00    +0.000 Cl
BRANCH   5   9
ATOM      9  C   UNL     1       2.549   2.142  18.630  0.00  0.00    +0.000 C 
ATOM     10  F   UNL     1       3.741   1.570  18.951  0.00  0.00    +0.000 F 
ATOM     11  F   UNL     1       1.603   1.439  19.310  0.00  0.00    +0.000 F 
ATOM     12  F   UNL     1       2.347   1.866  17.312  0.00  0.00    +0.000 F 
ENDBRANCH   5   9
ENDBRANCH   1   2
BRANCH   1  13
ATOM     13  C   UNL     1       1.117   7.929  21.046  0.00  0.00    +0.000 C 
BRANCH  13  19
ATOM     14  C   UNL     1      -0.480  13.469  18.313  0.00  0.00    +0.000 C 
ATOM     15  N   UNL     1      -0.616  12.438  19.340  0.00  0.00    +0.000 NA
ATOM     16  C   UNL     1       0.313  12.680  20.464  0.00  0.00    +0.000 C 
ATOM     17  C   UNL     1       0.186  11.605  21.567  0.00  0.00    +0.000 C 
ATOM     18  N   UNL     1       0.334  10.255  21.014  0.00  0.00    +0.000 N 
ATOM     19  C   UNL     1       1.028   9.279  21.731  0.00  0.00    +0.000 C 
ATOM     20  O   UNL     1       1.563   9.492  22.814  0.00  0.00    +0.000 OA
ATOM     21  C   UNL     1      -0.505   9.998  19.834  0.00  0.00    +0.000 C 
ATOM     22  C   UNL     1      -0.357  11.101  18.772  0.00  0.00    +0.000 C 
ENDBRANCH  13  19
ENDBRANCH   1  13
TORSDOF 4
ENDMDL
