MODEL 1
REMARK VINA RESULT:      -8.7      0.000      0.000
REMARK  Name = 
REMARK  6 active torsions:
REMARK  status: ('A' for Active; 'I' for Inactive)
REMARK    1  A    between atoms: C_2  and  C_3
REMARK    2  A    between atoms: C_2  and  C_22
REMARK    3  A    between atoms: C_4  and  C_5
REMARK    4  A    between atoms: C_11  and  O_12
REMARK    5  A    between atoms: O_12  and  C_13
REMARK    6  A    between atoms: C_13  and  C_14
REMARK                            x       y       z     vdW  Elec       q    Type
REMARK                         _______ _______ _______ _____ _____    ______ ____
ROOT
ATOM      1  C   UNL     1       3.687   3.508  17.568  0.00  0.00    +0.000 A 
ATOM      2  C   UNL     1       3.441   2.161  17.408  0.00  0.00    +0.000 A 
ATOM      3  N   UNL     1       2.568   1.767  18.389  0.00  0.00    +0.000 N 
ATOM      4  C   UNL     1       2.220   2.841  19.176  0.00  0.00    +0.000 A 
ATOM      5  C   UNL     1       1.363   2.914  20.279  0.00  0.00    +0.000 A 
ATOM      6  C   UNL     1       1.171   4.170  20.863  0.00  0.00    +0.000 A 
ATOM      7  C   UNL     1       1.806   5.304  20.361  0.00  0.00    +0.000 A 
ATOM      8  C   UNL     1       2.708   5.196  19.298  0.00  0.00    +0.000 A 
ATOM      9  C   UNL     1       2.904   3.949  18.675  0.00  0.00    +0.000 A 
ATOM     10  H   UNL     1       2.221   0.827  18.519  0.00  0.00    +0.000 HD
ENDROOT
BRANCH   1  12
ATOM     11  C   UNL     1       5.878   4.144  16.652  0.00  0.00    +0.000 C 
ATOM     12  C   UNL     1       4.555   4.317  16.772  0.00  0.00    +0.000 C 
BRANCH  11  14
ATOM     13  O   UNL     1       7.289   6.023  16.264  0.00  0.00    +0.000 OA
ATOM     14  C   UNL     1       6.691   5.056  15.810  0.00  0.00    +0.000 C 
BRANCH  14  15
ATOM     15  C   UNL     1       6.795   4.706  14.374  0.00  0.00    +0.000 A 
ATOM     16  C   UNL     1       7.698   5.409  13.579  0.00  0.00    +0.000 A 
ATOM     17  C   UNL     1       7.791   5.056  12.246  0.00  0.00    +0.000 A 
ATOM     18  N   UNL     1       7.052   4.078  11.675  0.00  0.00    +0.000 NA
ATOM     19  C   UNL     1       6.169   3.432  12.464  0.00  0.00    +0.000 A 
ATOM     20  C   UNL     1       6.001   3.706  13.809  0.00  0.00    +0.000 A 
ENDBRANCH  14  15
ENDBRANCH  11  14
ENDBRANCH   1  12
BRANCH   7  21
ATOM     21  O   UNL     1       1.487   6.488  20.972  0.00  0.00    +0.000 OA
BRANCH  21  22
ATOM     22  C   UNL     1       1.803   7.656  20.210  0.00  0.00    +0.000 C 
BRANCH  22  23
ATOM     23  C   UNL     1       1.046   8.811  20.802  0.00  0.00    +0.000 A 
ATOM     24  C   UNL     1       0.690   8.816  22.155  0.00  0.00    +0.000 A 
ATOM     25  C   UNL     1      -0.055   9.870  22.682  0.00  0.00    +0.000 A 
ATOM     26  C   UNL     1      -0.450  10.922  21.859  0.00  0.00    +0.000 A 
ATOM     27  C   UNL     1      -0.098  10.929  20.508  0.00  0.00    +0.000 A 
ATOM     28  C   UNL     1       0.646   9.877  19.981  0.00  0.00    +0.000 A 
ENDBRANCH  22  23
ENDBRANCH  21  22
ENDBRANCH   7  21
TORSDOF 6
ENDMDL
MODEL 2
REMARK VINA RESULT:      -8.6      3.040      7.960
REMARK  Name = 
REMARK  6 active torsions:
REMARK  status: ('A' for Active; 'I' for Inactive)
REMARK    1  A    between atoms: C_2  and  C_3
REMARK    2  A    between atoms: C_2  and  C_22
REMARK    3  A    between atoms: C_4  and  C_5
REMARK    4  A    between atoms: C_11  and  O_12
REMARK    5  A    between atoms: O_12  and  C_13
REMARK    6  A    between atoms: C_13  and  C_14
REMARK                            x       y       z     vdW  Elec       q    Type
REMARK                         _______ _______ _______ _____ _____    ______ ____
ROOT
ATOM      1  C   UNL     1       2.325   6.270  19.509  0.00  0.00    +0.000 A 
ATOM      2  C   UNL     1       1.850   5.547  20.582  0.00  0.00    +0.000 A 
ATOM      3  N   UNL     1       2.191   4.232  20.394  0.00  0.00    +0.000 N 
ATOM      4  C   UNL     1       2.901   4.086  19.225  0.00  0.00    +0.000 A 
ATOM      5  C   UNL     1       3.451   2.942  18.637  0.00  0.00    +0.000 A 
ATOM      6  C   UNL     1       4.165   3.110  17.446  0.00  0.00    +0.000 A 
ATOM      7  C   UNL     1       4.324   4.370  16.872  0.00  0.00    +0.000 A 
ATOM      8  C   UNL     1       3.712   5.489  17.442  0.00  0.00    +0.000 A 
ATOM      9  C   UNL     1       3.007   5.355  18.653  0.00  0.00    +0.000 A 
ATOM     10  H   UNL     1       1.961   3.475  21.022  0.00  0.00    +0.000 HD
ENDROOT
BRANCH   1  12
ATOM     11  C   UNL     1       1.633   8.235  18.202  0.00  0.00    +0.000 C 
ATOM     12  C   UNL     1       2.174   7.674  19.292  0.00  0.00    +0.000 C 
BRANCH  11  14
ATOM     13  O   UNL     1       2.457  10.398  17.641  0.00  0.00    +0.000 OA
ATOM     14  C   UNL     1       1.540   9.710  18.073  0.00  0.00    +0.000 C 
BRANCH  14  15
ATOM     15  C   UNL     1       0.242  10.321  18.442  0.00  0.00    +0.000 A 
ATOM     16  C   UNL     1       0.209  11.228  19.501  0.00  0.00    +0.000 A 
ATOM     17  C   UNL     1      -1.009  11.798  19.820  0.00  0.00    +0.000 A 
ATOM     18  N   UNL     1      -2.162  11.519  19.170  0.00  0.00    +0.000 NA
ATOM     19  C   UNL     1      -2.102  10.619  18.168  0.00  0.00    +0.000 A 
ATOM     20  C   UNL     1      -0.935   9.995  17.767  0.00  0.00    +0.000 A 
ENDBRANCH  14  15
ENDBRANCH  11  14
ENDBRANCH   1  12
BRANCH   7  21
ATOM     21  O   UNL     1       5.100   4.418  15.744  0.00  0.00    +0.000 OA
BRANCH  21  22
ATOM     22  C   UNL     1       6.488   4.147  15.964  0.00  0.00    +0.000 C 
BRANCH  22  23
ATOM     23  C   UNL     1       7.013   5.181  16.920  0.00  0.00    +0.000 A 
ATOM     24  C   UNL     1       7.064   6.531  16.557  0.00  0.00    +0.000 A 
ATOM     25  C   UNL     1       7.599   7.474  17.433  0.00  0.00    +0.000 A 
ATOM     26  C   UNL     1       8.089   7.072  18.674  0.00  0.00    +0.000 A 
ATOM     27  C   UNL     1       8.040   5.728  19.047  0.00  0.00    +0.000 A 
ATOM     28  C   UNL     1       7.505   4.785  18.173  0.00  0.00    +0.000 A 
ENDBRANCH  22  23
ENDBRANCH  21  22
ENDBRANCH   7  21
TORSDOF 6
ENDMDL
MODEL 3
REMARK VINA RESULT:      -8.6      0.412      1.001
REMARK  Name = 
REMARK  6 active torsions:
REMARK  status: ('A' for Active; 'I' for Inactive)
REMARK    1  A    between atoms: C_2  and  C_3
REMARK    2  A    between atoms: C_2  and  C_22
REMARK    3  A    between atoms: C_4  and  C_5
REMARK    4  A    between atoms: C_11  and  O_12
REMARK    5  A    between atoms: O_12  and  C_13
REMARK    6  A    between atoms: C_13  and  C_14
REMARK                            x       y       z     vdW  Elec       q    Type
REMARK                         _______ _______ _______ _____ _____    ______ ____
ROOT
ATOM      1  C   UNL     1       3.854   3.160  17.866  0.00  0.00    +0.000 A 
ATOM      2  C   UNL     1       3.415   1.870  17.655  0.00  0.00    +0.000 A 
ATOM      3  N   UNL     1       2.346   1.644  18.483  0.00  0.00    +0.000 N 
ATOM      4  C   UNL     1       2.063   2.773  19.216  0.00  0.00    +0.000 A 
ATOM      5  C   UNL     1       1.068   3.006  20.172  0.00  0.00    +0.000 A 
ATOM      6  C   UNL     1       1.000   4.286  20.731  0.00  0.00    +0.000 A 
ATOM      7  C   UNL     1       1.886   5.290  20.346  0.00  0.00    +0.000 A 
ATOM      8  C   UNL     1       2.912   5.016  19.437  0.00  0.00    +0.000 A 
ATOM      9  C   UNL     1       2.992   3.744  18.840  0.00  0.00    +0.000 A 
ATOM     10  H   UNL     1       1.831   0.776  18.547  0.00  0.00    +0.000 HD
ENDROOT
BRANCH   1  12
ATOM     11  C   UNL     1       4.866   4.814  16.354  0.00  0.00    +0.000 C 
ATOM     12  C   UNL     1       4.959   3.800  17.224  0.00  0.00    +0.000 C 
BRANCH  11  14
ATOM     13  O   UNL     1       6.793   6.212  16.302  0.00  0.00    +0.000 OA
ATOM     14  C   UNL     1       6.082   5.395  15.732  0.00  0.00    +0.000 C 
BRANCH  14  15
ATOM     15  C   UNL     1       6.435   4.889  14.385  0.00  0.00    +0.000 A 
ATOM     16  C   UNL     1       5.637   3.900  13.814  0.00  0.00    +0.000 A 
ATOM     17  C   UNL     1       5.975   3.453  12.550  0.00  0.00    +0.000 A 
ATOM     18  N   UNL     1       7.035   3.914  11.849  0.00  0.00    +0.000 NA
ATOM     19  C   UNL     1       7.803   4.852  12.439  0.00  0.00    +0.000 A 
ATOM     20  C   UNL     1       7.550   5.369  13.696  0.00  0.00    +0.000 A 
ENDBRANCH  14  15
ENDBRANCH  11  14
ENDBRANCH   1  12
BRANCH   7  21
ATOM     21  O   UNL     1       1.678   6.519  20.912  0.00  0.00    +0.000 OA
BRANCH  21  22
ATOM     22  C   UNL     1       1.870   7.624  20.024  0.00  0.00    +0.000 C 
BRANCH  22  23
ATOM     23  C   UNL     1       1.091   8.790  20.563  0.00  0.00    +0.000 A 
ATOM     24  C   UNL     1       0.772   8.871  21.923  0.00  0.00    +0.000 A 
ATOM     25  C   UNL     1       0.007   9.933  22.403  0.00  0.00    +0.000 A 
ATOM     26  C   UNL     1      -0.447  10.916  21.526  0.00  0.00    +0.000 A 
ATOM     27  C   UNL     1      -0.132  10.847  20.168  0.00  0.00    +0.000 A 
ATOM     28  C   UNL     1       0.633   9.787  19.688  0.00  0.00    +0.000 A 
ENDBRANCH  22  23
ENDBRANCH  21  22
ENDBRANCH   7  21
TORSDOF 6
ENDMDL
MODEL 4
REMARK VINA RESULT:      -8.6      0.203      1.313
REMARK  Name = 
REMARK  6 active torsions:
REMARK  status: ('A' for Active; 'I' for Inactive)
REMARK    1  A    between atoms: C_2  and  C_3
REMARK    2  A    between atoms: C_2  and  C_22
REMARK    3  A    between atoms: C_4  and  C_5
REMARK    4  A    between atoms: C_11  and  O_12
REMARK    5  A    between atoms: O_12  and  C_13
REMARK    6  A    between atoms: C_13  and  C_14
REMARK                            x       y       z     vdW  Elec       q    Type
REMARK                         _______ _______ _______ _____ _____    ______ ____
ROOT
ATOM      1  C   UNL     1       3.857   3.423  17.620  0.00  0.00    +0.000 A 
ATOM      2  C   UNL     1       3.731   2.055  17.503  0.00  0.00    +0.000 A 
ATOM      3  N   UNL     1       2.890   1.619  18.495  0.00  0.00    +0.000 N 
ATOM      4  C   UNL     1       2.445   2.683  19.244  0.00  0.00    +0.000 A 
ATOM      5  C   UNL     1       1.578   2.717  20.342  0.00  0.00    +0.000 A 
ATOM      6  C   UNL     1       1.273   3.970  20.883  0.00  0.00    +0.000 A 
ATOM      7  C   UNL     1       1.810   5.139  20.345  0.00  0.00    +0.000 A 
ATOM      8  C   UNL     1       2.724   5.075  19.289  0.00  0.00    +0.000 A 
ATOM      9  C   UNL     1       3.032   3.831  18.709  0.00  0.00    +0.000 A 
ATOM     10  H   UNL     1       2.627   0.657  18.655  0.00  0.00    +0.000 HD
ENDROOT
BRANCH   1  12
ATOM     11  C   UNL     1       5.980   4.167  16.627  0.00  0.00    +0.000 C 
ATOM     12  C   UNL     1       4.656   4.278  16.800  0.00  0.00    +0.000 C 
BRANCH  11  14
ATOM     13  O   UNL     1       7.240   6.142  16.197  0.00  0.00    +0.000 OA
ATOM     14  C   UNL     1       6.716   5.124  15.763  0.00  0.00    +0.000 C 
BRANCH  14  15
ATOM     15  C   UNL     1       6.840   4.756  14.333  0.00  0.00    +0.000 A 
ATOM     16  C   UNL     1       6.071   3.700  13.847  0.00  0.00    +0.000 A 
ATOM     17  C   UNL     1       6.190   3.384  12.507  0.00  0.00    +0.000 A 
ATOM     18  N   UNL     1       7.012   4.033  11.652  0.00  0.00    +0.000 NA
ATOM     19  C   UNL     1       7.762   5.033  12.158  0.00  0.00    +0.000 A 
ATOM     20  C   UNL     1       7.715   5.432  13.481  0.00  0.00    +0.000 A 
ENDBRANCH  14  15
ENDBRANCH  11  14
ENDBRANCH   1  12
BRANCH   7  21
ATOM     21  O   UNL     1       1.384   6.309  20.915  0.00  0.00    +0.000 OA
BRANCH  21  22
ATOM     22  C   UNL     1       1.935   7.492  20.330  0.00  0.00    +0.000 C 
BRANCH  22  23
ATOM     23  C   UNL     1       1.100   8.659  20.775  0.00  0.00    +0.000 A 
ATOM     24  C   UNL     1       0.630   9.598  19.850  0.00  0.00    +0.000 A 
ATOM     25  C   UNL     1      -0.102  10.702  20.281  0.00  0.00    +0.000 A 
ATOM     26  C   UNL     1      -0.364  10.877  21.638  0.00  0.00    +0.000 A 
ATOM     27  C   UNL     1       0.098   9.946  22.569  0.00  0.00    +0.000 A 
ATOM     28  C   UNL     1       0.828   8.841  22.140  0.00  0.00    +0.000 A 
ENDBRANCH  22  23
ENDBRANCH  21  22
ENDBRANCH   7  21
TORSDOF 6
ENDMDL
MODEL 5
REMARK VINA RESULT:      -8.5      2.739      8.017
REMARK  Name = 
REMARK  6 active torsions:
REMARK  status: ('A' for Active; 'I' for Inactive)
REMARK    1  A    between atoms: C_2  and  C_3
REMARK    2  A    between atoms: C_2  and  C_22
REMARK    3  A    between atoms: C_4  and  C_5
REMARK    4  A    between atoms: C_11  and  O_12
REMARK    5  A    between atoms: O_12  and  C_13
REMARK    6  A    between atoms: C_13  and  C_14
REMARK                            x       y       z     vdW  Elec       q    Type
REMARK                         _______ _______ _______ _____ _____    ______ ____
ROOT
ATOM      1  C   UNL     1       2.123   5.589  20.144  0.00  0.00    +0.000 A 
ATOM      2  C   UNL     1       1.592   4.537  20.858  0.00  0.00    +0.000 A 
ATOM      3  N   UNL     1       1.864   3.379  20.176  0.00  0.00    +0.000 N 
ATOM      4  C   UNL     1       2.586   3.654  19.038  0.00  0.00    +0.000 A 
ATOM      5  C   UNL     1       3.083   2.795  18.052  0.00  0.00    +0.000 A 
ATOM      6  C   UNL     1       3.825   3.368  17.014  0.00  0.00    +0.000 A 
ATOM      7  C   UNL     1       4.062   4.741  16.968  0.00  0.00    +0.000 A 
ATOM      8  C   UNL     1       3.501   5.587  17.929  0.00  0.00    +0.000 A 
ATOM      9  C   UNL     1       2.769   5.037  18.998  0.00  0.00    +0.000 A 
ATOM     10  H   UNL     1       1.583   2.452  20.465  0.00  0.00    +0.000 HD
ENDROOT
BRANCH   1  12
ATOM     11  C   UNL     1       1.060   7.548  21.181  0.00  0.00    +0.000 C 
ATOM     12  C   UNL     1       2.051   6.974  20.486  0.00  0.00    +0.000 C 
BRANCH  11  14
ATOM     13  O   UNL     1       1.720   9.494  22.386  0.00  0.00    +0.000 OA
ATOM     14  C   UNL     1       1.077   9.005  21.466  0.00  0.00    +0.000 C 
BRANCH  14  15
ATOM     15  C   UNL     1       0.312   9.865  20.534  0.00  0.00    +0.000 A 
ATOM     16  C   UNL     1      -0.536  10.836  21.065  0.00  0.00    +0.000 A 
ATOM     17  C   UNL     1      -1.229  11.639  20.179  0.00  0.00    +0.000 A 
ATOM     18  N   UNL     1      -1.135  11.527  18.834  0.00  0.00    +0.000 NA
ATOM     19  C   UNL     1      -0.327  10.562  18.351  0.00  0.00    +0.000 A 
ATOM     20  C   UNL     1       0.412   9.710  19.150  0.00  0.00    +0.000 A 
ENDBRANCH  14  15
ENDBRANCH  11  14
ENDBRANCH   1  12
BRANCH   7  21
ATOM     21  O   UNL     1       4.859   5.175  15.942  0.00  0.00    +0.000 OA
BRANCH  21  22
ATOM     22  C   UNL     1       6.208   4.704  15.996  0.00  0.00    +0.000 C 
BRANCH  22  23
ATOM     23  C   UNL     1       6.953   5.549  16.990  0.00  0.00    +0.000 A 
ATOM     24  C   UNL     1       7.449   4.992  18.174  0.00  0.00    +0.000 A 
ATOM     25  C   UNL     1       8.095   5.796  19.111  0.00  0.00    +0.000 A 
ATOM     26  C   UNL     1       8.245   7.161  18.872  0.00  0.00    +0.000 A 
ATOM     27  C   UNL     1       7.756   7.726  17.694  0.00  0.00    +0.000 A 
ATOM     28  C   UNL     1       7.111   6.924  16.756  0.00  0.00    +0.000 A 
ENDBRANCH  22  23
ENDBRANCH  21  22
ENDBRANCH   7  21
TORSDOF 6
ENDMDL
MODEL 6
REMARK VINA RESULT:      -8.5      2.806      8.502
REMARK  Name = 
REMARK  6 active torsions:
REMARK  status: ('A' for Active; 'I' for Inactive)
REMARK    1  A    between atoms: C_2  and  C_3
REMARK    2  A    between atoms: C_2  and  C_22
REMARK    3  A    between atoms: C_4  and  C_5
REMARK    4  A    between atoms: C_11  and  O_12
REMARK    5  A    between atoms: O_12  and  C_13
REMARK    6  A    between atoms: C_13  and  C_14
REMARK                            x       y       z     vdW  Elec       q    Type
REMARK                         _______ _______ _______ _____ _____    ______ ____
ROOT
ATOM      1  C   UNL     1       2.048   5.522  19.763  0.00  0.00    +0.000 A 
ATOM      2  C   UNL     1       1.792   4.741  20.869  0.00  0.00    +0.000 A 
ATOM      3  N   UNL     1       2.384   3.519  20.673  0.00  0.00    +0.000 N 
ATOM      4  C   UNL     1       3.043   3.497  19.465  0.00  0.00    +0.000 A 
ATOM      5  C   UNL     1       3.781   2.477  18.856  0.00  0.00    +0.000 A 
ATOM      6  C   UNL     1       4.378   2.761  17.624  0.00  0.00    +0.000 A 
ATOM      7  C   UNL     1       4.244   4.015  17.029  0.00  0.00    +0.000 A 
ATOM      8  C   UNL     1       3.447   4.998  17.625  0.00  0.00    +0.000 A 
ATOM      9  C   UNL     1       2.854   4.748  18.877  0.00  0.00    +0.000 A 
ATOM     10  H   UNL     1       2.350   2.744  21.320  0.00  0.00    +0.000 HD
ENDROOT
BRANCH   1  12
ATOM     11  C   UNL     1       1.788   7.887  20.384  0.00  0.00    +0.000 C 
ATOM     12  C   UNL     1       1.600   6.861  19.543  0.00  0.00    +0.000 C 
BRANCH  11  14
ATOM     13  O   UNL     1       1.368   9.745  18.954  0.00  0.00    +0.000 OA
ATOM     14  C   UNL     1       1.263   9.238  20.063  0.00  0.00    +0.000 C 
BRANCH  14  15
ATOM     15  C   UNL     1       0.541   9.937  21.152  0.00  0.00    +0.000 A 
ATOM     16  C   UNL     1       0.159   9.206  22.276  0.00  0.00    +0.000 A 
ATOM     17  C   UNL     1      -0.499   9.880  23.287  0.00  0.00    +0.000 A 
ATOM     18  N   UNL     1      -0.798  11.198  23.240  0.00  0.00    +0.000 NA
ATOM     19  C   UNL     1      -0.439  11.872  22.128  0.00  0.00    +0.000 A 
ATOM     20  C   UNL     1       0.227  11.294  21.063  0.00  0.00    +0.000 A 
ENDBRANCH  14  15
ENDBRANCH  11  14
ENDBRANCH   1  12
BRANCH   7  21
ATOM     21  O   UNL     1       4.929   4.196  15.858  0.00  0.00    +0.000 OA
BRANCH  21  22
ATOM     22  C   UNL     1       6.343   4.003  15.958  0.00  0.00    +0.000 C 
BRANCH  22  23
ATOM     23  C   UNL     1       6.887   5.051  16.887  0.00  0.00    +0.000 A 
ATOM     24  C   UNL     1       6.860   6.405  16.532  0.00  0.00    +0.000 A 
ATOM     25  C   UNL     1       7.412   7.363  17.380  0.00  0.00    +0.000 A 
ATOM     26  C   UNL     1       7.997   6.974  18.584  0.00  0.00    +0.000 A 
ATOM     27  C   UNL     1       8.026   5.627  18.948  0.00  0.00    +0.000 A 
ATOM     28  C   UNL     1       7.474   4.669  18.103  0.00  0.00    +0.000 A 
ENDBRANCH  22  23
ENDBRANCH  21  22
ENDBRANCH   7  21
TORSDOF 6
ENDMDL
MODEL 7
REMARK VINA RESULT:      -8.4      2.466      8.928
REMARK  Name = 
REMARK  6 active torsions:
REMARK  status: ('A' for Active; 'I' for Inactive)
REMARK    1  A    between atoms: C_2  and  C_3
REMARK    2  A    between atoms: C_2  and  C_22
REMARK    3  A    between atoms: C_4  and  C_5
REMARK    4  A    between atoms: C_11  and  O_12
REMARK    5  A    between atoms: O_12  and  C_13
REMARK    6  A    between atoms: C_13  and  C_14
REMARK                            x       y       z     vdW  Elec       q    Type
REMARK                         _______ _______ _______ _____ _____    ______ ____
ROOT
ATOM      1  C   UNL     1       1.989   5.871  20.063  0.00  0.00    +0.000 A 
ATOM      2  C   UNL     1       1.252   4.825  20.576  0.00  0.00    +0.000 A 
ATOM      3  N   UNL     1       1.493   3.717  19.805  0.00  0.00    +0.000 N 
ATOM      4  C   UNL     1       2.394   4.015  18.810  0.00  0.00    +0.000 A 
ATOM      5  C   UNL     1       2.932   3.204  17.803  0.00  0.00    +0.000 A 
ATOM      6  C   UNL     1       3.871   3.783  16.944  0.00  0.00    +0.000 A 
ATOM      7  C   UNL     1       4.258   5.114  17.089  0.00  0.00    +0.000 A 
ATOM      8  C   UNL     1       3.659   5.922  18.060  0.00  0.00    +0.000 A 
ATOM      9  C   UNL     1       2.729   5.362  18.955  0.00  0.00    +0.000 A 
ATOM     10  H   UNL     1       1.076   2.807  19.946  0.00  0.00    +0.000 HD
ENDROOT
BRANCH   1  12
ATOM     11  C   UNL     1       0.987   7.852  21.120  0.00  0.00    +0.000 C 
ATOM     12  C   UNL     1       2.018   7.214  20.550  0.00  0.00    +0.000 C 
BRANCH  11  14
ATOM     13  O   UNL     1       1.696   9.566  22.613  0.00  0.00    +0.000 OA
ATOM     14  C   UNL     1       1.122   9.257  21.577  0.00  0.00    +0.000 C 
BRANCH  14  15
ATOM     15  C   UNL     1       0.570  10.296  20.677  0.00  0.00    +0.000 A 
ATOM     16  C   UNL     1       0.963  11.620  20.865  0.00  0.00    +0.000 A 
ATOM     17  C   UNL     1       0.449  12.571  20.004  0.00  0.00    +0.000 A 
ATOM     18  N   UNL     1      -0.415  12.289  19.003  0.00  0.00    +0.000 NA
ATOM     19  C   UNL     1      -0.797  11.003  18.862  0.00  0.00    +0.000 A 
ATOM     20  C   UNL     1      -0.339   9.976  19.667  0.00  0.00    +0.000 A 
ENDBRANCH  14  15
ENDBRANCH  11  14
ENDBRANCH   1  12
BRANCH   7  21
ATOM     21  O   UNL     1       5.234   5.549  16.232  0.00  0.00    +0.000 OA
BRANCH  21  22
ATOM     22  C   UNL     1       6.307   4.623  16.033  0.00  0.00    +0.000 C 
BRANCH  22  23
ATOM     23  C   UNL     1       6.552   4.512  14.555  0.00  0.00    +0.000 A 
ATOM     24  C   UNL     1       5.834   3.598  13.776  0.00  0.00    +0.000 A 
ATOM     25  C   UNL     1       6.105   3.470  12.416  0.00  0.00    +0.000 A 
ATOM     26  C   UNL     1       7.097   4.251  11.826  0.00  0.00    +0.000 A 
ATOM     27  C   UNL     1       7.817   5.168  12.593  0.00  0.00    +0.000 A 
ATOM     28  C   UNL     1       7.547   5.298  13.952  0.00  0.00    +0.000 A 
ENDBRANCH  22  23
ENDBRANCH  21  22
ENDBRANCH   7  21
TORSDOF 6
ENDMDL
MODEL 8
REMARK VINA RESULT:      -8.4      2.037      2.729
REMARK  Name = 
REMARK  6 active torsions:
REMARK  status: ('A' for Active; 'I' for Inactive)
REMARK    1  A    between atoms: C_2  and  C_3
REMARK    2  A    between atoms: C_2  and  C_22
REMARK    3  A    between atoms: C_4  and  C_5
REMARK    4  A    between atoms: C_11  and  O_12
REMARK    5  A    between atoms: O_12  and  C_13
REMARK    6  A    between atoms: C_13  and  C_14
REMARK                            x       y       z     vdW  Elec       q    Type
REMARK                         _______ _______ _______ _____ _____    ______ ____
ROOT
ATOM      1  C   UNL     1       3.773   3.256  17.915  0.00  0.00    +0.000 A 
ATOM      2  C   UNL     1       3.317   2.014  17.526  0.00  0.00    +0.000 A 
ATOM      3  N   UNL     1       2.157   1.754  18.209  0.00  0.00    +0.000 N 
ATOM      4  C   UNL     1       1.833   2.815  19.022  0.00  0.00    +0.000 A 
ATOM      5  C   UNL     1       0.749   2.995  19.887  0.00  0.00    +0.000 A 
ATOM      6  C   UNL     1       0.662   4.214  20.566  0.00  0.00    +0.000 A 
ATOM      7  C   UNL     1       1.618   5.212  20.384  0.00  0.00    +0.000 A 
ATOM      8  C   UNL     1       2.728   4.985  19.564  0.00  0.00    +0.000 A 
ATOM      9  C   UNL     1       2.830   3.777  18.850  0.00  0.00    +0.000 A 
ATOM     10  H   UNL     1       1.609   0.908  18.127  0.00  0.00    +0.000 HD
ENDROOT
BRANCH   1  12
ATOM     11  C   UNL     1       5.335   4.036  16.184  0.00  0.00    +0.000 C 
ATOM     12  C   UNL     1       4.962   3.907  17.464  0.00  0.00    +0.000 C 
BRANCH  11  14
ATOM     13  O   UNL     1       7.134   4.601  14.730  0.00  0.00    +0.000 OA
ATOM     14  C   UNL     1       6.603   4.718  15.827  0.00  0.00    +0.000 C 
BRANCH  14  15
ATOM     15  C   UNL     1       7.180   5.612  16.858  0.00  0.00    +0.000 A 
ATOM     16  C   UNL     1       7.253   6.979  16.591  0.00  0.00    +0.000 A 
ATOM     17  C   UNL     1       7.779   7.797  17.573  0.00  0.00    +0.000 A 
ATOM     18  N   UNL     1       8.233   7.345  18.764  0.00  0.00    +0.000 NA
ATOM     19  C   UNL     1       8.173   6.016  18.982  0.00  0.00    +0.000 A 
ATOM     20  C   UNL     1       7.662   5.112  18.069  0.00  0.00    +0.000 A 
ENDBRANCH  14  15
ENDBRANCH  11  14
ENDBRANCH   1  12
BRANCH   7  21
ATOM     21  O   UNL     1       1.390   6.386  21.050  0.00  0.00    +0.000 OA
BRANCH  21  22
ATOM     22  C   UNL     1       1.821   7.559  20.354  0.00  0.00    +0.000 C 
BRANCH  22  23
ATOM     23  C   UNL     1       1.015   8.721  20.864  0.00  0.00    +0.000 A 
ATOM     24  C   UNL     1       0.742   8.857  22.230  0.00  0.00    +0.000 A 
ATOM     25  C   UNL     1      -0.047   9.912  22.685  0.00  0.00    +0.000 A 
ATOM     26  C   UNL     1      -0.570  10.832  21.780  0.00  0.00    +0.000 A 
ATOM     27  C   UNL     1      -0.302  10.706  20.416  0.00  0.00    +0.000 A 
ATOM     28  C   UNL     1       0.487   9.654  19.959  0.00  0.00    +0.000 A 
ENDBRANCH  22  23
ENDBRANCH  21  22
ENDBRANCH   7  21
TORSDOF 6
ENDMDL
MODEL 9
REMARK VINA RESULT:      -8.3      0.913      1.744
REMARK  Name = 
REMARK  6 active torsions:
REMARK  status: ('A' for Active; 'I' for Inactive)
REMARK    1  A    between atoms: C_2  and  C_3
REMARK    2  A    between atoms: C_2  and  C_22
REMARK    3  A    between atoms: C_4  and  C_5
REMARK    4  A    between atoms: C_11  and  O_12
REMARK    5  A    between atoms: O_12  and  C_13
REMARK    6  A    between atoms: C_13  and  C_14
REMARK                            x       y       z     vdW  Elec       q    Type
REMARK                         _______ _______ _______ _____ _____    ______ ____
ROOT
ATOM      1  C   UNL     1       3.970   4.451  17.923  0.00  0.00    +0.000 A 
ATOM      2  C   UNL     1       3.763   3.104  18.130  0.00  0.00    +0.000 A 
ATOM      3  N   UNL     1       2.866   2.964  19.158  0.00  0.00    +0.000 N 
ATOM      4  C   UNL     1       2.464   4.200  19.611  0.00  0.00    +0.000 A 
ATOM      5  C   UNL     1       1.568   4.543  20.629  0.00  0.00    +0.000 A 
ATOM      6  C   UNL     1       1.324   5.903  20.842  0.00  0.00    +0.000 A 
ATOM      7  C   UNL     1       1.949   6.878  20.066  0.00  0.00    +0.000 A 
ATOM      8  C   UNL     1       2.890   6.514  19.098  0.00  0.00    +0.000 A 
ATOM      9  C   UNL     1       3.138   5.152  18.845  0.00  0.00    +0.000 A 
ATOM     10  H   UNL     1       2.537   2.084  19.530  0.00  0.00    +0.000 HD
ENDROOT
BRANCH   1  12
ATOM     11  C   UNL     1       6.078   4.605  16.667  0.00  0.00    +0.000 C 
ATOM     12  C   UNL     1       4.845   5.041  16.960  0.00  0.00    +0.000 C 
BRANCH  11  14
ATOM     13  O   UNL     1       7.646   6.244  15.941  0.00  0.00    +0.000 OA
ATOM     14  C   UNL     1       6.912   5.306  15.659  0.00  0.00    +0.000 C 
BRANCH  14  15
ATOM     15  C   UNL     1       6.860   4.770  14.278  0.00  0.00    +0.000 A 
ATOM     16  C   UNL     1       5.904   3.803  13.973  0.00  0.00    +0.000 A 
ATOM     17  C   UNL     1       5.862   3.329  12.676  0.00  0.00    +0.000 A 
ATOM     18  N   UNL     1       6.698   3.743  11.697  0.00  0.00    +0.000 NA
ATOM     19  C   UNL     1       7.628   4.661  12.029  0.00  0.00    +0.000 A 
ATOM     20  C   UNL     1       7.753   5.202  13.296  0.00  0.00    +0.000 A 
ENDBRANCH  14  15
ENDBRANCH  11  14
ENDBRANCH   1  12
BRANCH   7  21
ATOM     21  O   UNL     1       1.580   8.172  20.321  0.00  0.00    +0.000 OA
BRANCH  21  22
ATOM     22  C   UNL     1       1.445   8.489  21.710  0.00  0.00    +0.000 C 
BRANCH  22  23
ATOM     23  C   UNL     1       0.414   9.575  21.836  0.00  0.00    +0.000 A 
ATOM     24  C   UNL     1       0.143  10.433  20.765  0.00  0.00    +0.000 A 
ATOM     25  C   UNL     1      -0.779  11.467  20.910  0.00  0.00    +0.000 A 
ATOM     26  C   UNL     1      -1.433  11.652  22.126  0.00  0.00    +0.000 A 
ATOM     27  C   UNL     1      -1.172  10.800  23.201  0.00  0.00    +0.000 A 
ATOM     28  C   UNL     1      -0.252   9.766  23.057  0.00  0.00    +0.000 A 
ENDBRANCH  22  23
ENDBRANCH  21  22
ENDBRANCH   7  21
TORSDOF 6
ENDMDL
