MODEL 1
REMARK VINA RESULT:      -7.1      0.000      0.000
REMARK  Name = 
REMARK  13 active torsions:
REMARK  status: ('A' for Active; 'I' for Inactive)
REMARK    1  A    between atoms: C_1  and  C_2
REMARK    2  A    between atoms: C_2  and  C_3
REMARK    3  A    between atoms: C_3  and  C_4
REMARK    4  A    between atoms: C_4  and  C_5
REMARK    5  A    between atoms: C_9  and  C_10
REMARK    6  A    between atoms: C_13  and  N_14
REMARK    7  A    between atoms: C_15  and  C_17
REMARK    8  A    between atoms: N_19  and  C_20
REMARK    9  A    between atoms: C_20  and  C_21
REMARK   10  A    between atoms: C_20  and  C_22
REMARK   11  A    between atoms: C_20  and  C_23
REMARK   12  A    between atoms: C_25  and  O_26
REMARK   13  A    between atoms: O_26  and  C_27
REMARK                            x       y       z     vdW  Elec       q    Type
REMARK                         _______ _______ _______ _____ _____    ______ ____
ROOT
ATOM      1  C   UNL     1       0.082  10.070  19.360  0.00  0.00    +0.000 A 
ATOM      2  C   UNL     1       0.672  10.045  18.089  0.00  0.00    +0.000 A 
ATOM      3  C   UNL     1       1.679   9.137  17.778  0.00  0.00    +0.000 A 
ATOM      4  C   UNL     1       2.114   8.214  18.723  0.00  0.00    +0.000 A 
ATOM      5  C   UNL     1       1.497   8.188  19.979  0.00  0.00    +0.000 A 
ATOM      6  C   UNL     1       0.506   9.124  20.317  0.00  0.00    +0.000 A 
ENDROOT
BRANCH   1  11
ATOM      7  C   UNL     1      -2.187  11.401  19.142  0.00  0.00    +0.000 A 
ATOM      8  N   UNL     1      -2.645  12.550  19.761  0.00  0.00    +0.000 NA
ATOM      9  C   UNL     1      -1.652  12.898  20.542  0.00  0.00    +0.000 A 
ATOM     10  O   UNL     1      -0.577  12.069  20.512  0.00  0.00    +0.000 OA
ATOM     11  C   UNL     1      -0.925  11.090  19.611  0.00  0.00    +0.000 A 
BRANCH   7  12
ATOM     12  C   UNL     1      -2.990  10.716  18.098  0.00  0.00    +0.000 C 
BRANCH  12  13
ATOM     13  C   UNL     1      -2.534  11.073  16.687  0.00  0.00    +0.000 C 
BRANCH  13  15
ATOM     14  C   UNL     1      -3.404  10.179  14.523  0.00  0.00    +0.000 C 
ATOM     15  C   UNL     1      -2.590   9.861  15.763  0.00  0.00    +0.000 C 
ENDBRANCH  13  15
ENDBRANCH  12  13
ENDBRANCH   7  12
ENDBRANCH   1  11
BRANCH   4  16
ATOM     16  N   UNL     1       3.174   7.325  18.488  0.00  0.00    +0.000 N 
ATOM     17  C   UNL     1       3.059   6.007  18.091  0.00  0.00    +0.000 C 
ATOM     18  O   UNL     1       2.052   5.335  17.924  0.00  0.00    +0.000 OA
ATOM     19  H   UNL     1       4.129   7.673  18.538  0.00  0.00    +0.000 HD
BRANCH  17  20
ATOM     20  C   UNL     1       4.414   5.344  17.814  0.00  0.00    +0.000 C 
ATOM     21  O   UNL     1       4.495   4.126  17.756  0.00  0.00    +0.000 OA
ATOM     22  N   UNL     1       5.421   6.269  17.665  0.00  0.00    +0.000 N 
ATOM     23  H   UNL     1       5.121   7.239  17.754  0.00  0.00    +0.000 HD
BRANCH  22  24
ATOM     24  C   UNL     1       6.822   5.975  17.376  0.00  0.00    +0.000 C 
ATOM     25  C   UNL     1       6.955   5.327  15.992  0.00  0.00    +0.000 C 
ATOM     26  C   UNL     1       7.603   7.302  17.383  0.00  0.00    +0.000 C 
ATOM     27  C   UNL     1       7.411   5.056  18.455  0.00  0.00    +0.000 C 
ENDBRANCH  22  24
ENDBRANCH  17  20
ENDBRANCH   4  16
BRANCH   6  28
ATOM     28  O   UNL     1      -0.078   9.167  21.560  0.00  0.00    +0.000 OA
ATOM     29  C   UNL     1       0.796   9.361  22.670  0.00  0.00    +0.000 C 
ENDBRANCH   6  28
TORSDOF 8
ENDMDL
MODEL 2
REMARK VINA RESULT:      -7.0      2.875      8.435
REMARK  Name = 
REMARK  13 active torsions:
REMARK  status: ('A' for Active; 'I' for Inactive)
REMARK    1  A    between atoms: C_1  and  C_2
REMARK    2  A    between atoms: C_2  and  C_3
REMARK    3  A    between atoms: C_3  and  C_4
REMARK    4  A    between atoms: C_4  and  C_5
REMARK    5  A    between atoms: C_9  and  C_10
REMARK    6  A    between atoms: C_13  and  N_14
REMARK    7  A    between atoms: C_15  and  C_17
REMARK    8  A    between atoms: N_19  and  C_20
REMARK    9  A    between atoms: C_20  and  C_21
REMARK   10  A    between atoms: C_20  and  C_22
REMARK   11  A    between atoms: C_20  and  C_23
REMARK   12  A    between atoms: C_25  and  O_26
REMARK   13  A    between atoms: O_26  and  C_27
REMARK                            x       y       z     vdW  Elec       q    Type
REMARK                         _______ _______ _______ _____ _____    ______ ____
ROOT
ATOM      1  C   UNL     1       3.091   6.597  18.389  0.00  0.00    +0.000 A 
ATOM      2  C   UNL     1       2.716   7.829  17.837  0.00  0.00    +0.000 A 
ATOM      3  C   UNL     1       1.926   8.728  18.547  0.00  0.00    +0.000 A 
ATOM      4  C   UNL     1       1.502   8.429  19.837  0.00  0.00    +0.000 A 
ATOM      5  C   UNL     1       1.914   7.229  20.425  0.00  0.00    +0.000 A 
ATOM      6  C   UNL     1       2.680   6.296  19.705  0.00  0.00    +0.000 A 
ENDROOT
BRANCH   1  11
ATOM      7  C   UNL     1       3.737   4.424  17.038  0.00  0.00    +0.000 A 
ATOM      8  N   UNL     1       4.868   4.088  16.317  0.00  0.00    +0.000 NA
ATOM      9  C   UNL     1       5.641   5.140  16.446  0.00  0.00    +0.000 A 
ATOM     10  O   UNL     1       5.113   6.156  17.176  0.00  0.00    +0.000 OA
ATOM     11  C   UNL     1       3.873   5.698  17.553  0.00  0.00    +0.000 A 
BRANCH   7  12
ATOM     12  C   UNL     1       2.624   3.458  17.217  0.00  0.00    +0.000 C 
BRANCH  12  13
ATOM     13  C   UNL     1       3.035   2.245  18.045  0.00  0.00    +0.000 C 
BRANCH  13  15
ATOM     14  C   UNL     1       0.671   2.647  18.745  0.00  0.00    +0.000 C 
ATOM     15  C   UNL     1       1.886   1.755  18.919  0.00  0.00    +0.000 C 
ENDBRANCH  13  15
ENDBRANCH  12  13
ENDBRANCH   7  12
ENDBRANCH   1  11
BRANCH   4  16
ATOM     16  N   UNL     1       0.647   9.265  20.571  0.00  0.00    +0.000 N 
ATOM     17  C   UNL     1       0.860   9.726  21.855  0.00  0.00    +0.000 C 
ATOM     18  O   UNL     1       1.772   9.467  22.627  0.00  0.00    +0.000 OA
ATOM     19  H   UNL     1      -0.183   9.642  20.116  0.00  0.00    +0.000 HD
BRANCH  17  20
ATOM     20  C   UNL     1      -0.216  10.712  22.326  0.00  0.00    +0.000 C 
ATOM     21  O   UNL     1      -0.842  10.487  23.351  0.00  0.00    +0.000 OA
ATOM     22  N   UNL     1      -0.344  11.783  21.473  0.00  0.00    +0.000 N 
ATOM     23  H   UNL     1       0.287  11.765  20.673  0.00  0.00    +0.000 HD
BRANCH  22  24
ATOM     24  C   UNL     1      -1.260  12.907  21.637  0.00  0.00    +0.000 C 
ATOM     25  C   UNL     1      -1.002  13.615  22.973  0.00  0.00    +0.000 C 
ATOM     26  C   UNL     1      -1.011  13.903  20.489  0.00  0.00    +0.000 C 
ATOM     27  C   UNL     1      -2.716  12.428  21.559  0.00  0.00    +0.000 C 
ENDBRANCH  22  24
ENDBRANCH  17  20
ENDBRANCH   4  16
BRANCH   6  28
ATOM     28  O   UNL     1       3.051   5.082  20.229  0.00  0.00    +0.000 OA
ATOM     29  C   UNL     1       2.225   4.553  21.263  0.00  0.00    +0.000 C 
ENDBRANCH   6  28
TORSDOF 8
ENDMDL
MODEL 3
REMARK VINA RESULT:      -6.9      2.665      8.733
REMARK  Name = 
REMARK  13 active torsions:
REMARK  status: ('A' for Active; 'I' for Inactive)
REMARK    1  A    between atoms: C_1  and  C_2
REMARK    2  A    between atoms: C_2  and  C_3
REMARK    3  A    between atoms: C_3  and  C_4
REMARK    4  A    between atoms: C_4  and  C_5
REMARK    5  A    between atoms: C_9  and  C_10
REMARK    6  A    between atoms: C_13  and  N_14
REMARK    7  A    between atoms: C_15  and  C_17
REMARK    8  A    between atoms: N_19  and  C_20
REMARK    9  A    between atoms: C_20  and  C_21
REMARK   10  A    between atoms: C_20  and  C_22
REMARK   11  A    between atoms: C_20  and  C_23
REMARK   12  A    between atoms: C_25  and  O_26
REMARK   13  A    between atoms: O_26  and  C_27
REMARK                            x       y       z     vdW  Elec       q    Type
REMARK                         _______ _______ _______ _____ _____    ______ ____
ROOT
ATOM      1  C   UNL     1       2.845   6.688  18.535  0.00  0.00    +0.000 A 
ATOM      2  C   UNL     1       2.521   7.914  17.939  0.00  0.00    +0.000 A 
ATOM      3  C   UNL     1       1.756   8.863  18.611  0.00  0.00    +0.000 A 
ATOM      4  C   UNL     1       1.307   8.620  19.905  0.00  0.00    +0.000 A 
ATOM      5  C   UNL     1       1.669   7.425  20.535  0.00  0.00    +0.000 A 
ATOM      6  C   UNL     1       2.408   6.444  19.854  0.00  0.00    +0.000 A 
ENDROOT
BRANCH   1  11
ATOM      7  C   UNL     1       4.791   5.727  17.033  0.00  0.00    +0.000 A 
ATOM      8  N   UNL     1       4.969   4.495  16.431  0.00  0.00    +0.000 NA
ATOM      9  C   UNL     1       3.890   3.830  16.762  0.00  0.00    +0.000 A 
ATOM     10  O   UNL     1       3.016   4.506  17.551  0.00  0.00    +0.000 OA
ATOM     11  C   UNL     1       3.603   5.735  17.737  0.00  0.00    +0.000 A 
BRANCH   7  12
ATOM     12  C   UNL     1       5.768   6.828  16.837  0.00  0.00    +0.000 C 
BRANCH  12  13
ATOM     13  C   UNL     1       7.211   6.358  16.986  0.00  0.00    +0.000 C 
BRANCH  13  15
ATOM     14  C   UNL     1       7.779   5.726  19.335  0.00  0.00    +0.000 C 
ATOM     15  C   UNL     1       7.817   6.836  18.301  0.00  0.00    +0.000 C 
ENDBRANCH  13  15
ENDBRANCH  12  13
ENDBRANCH   7  12
ENDBRANCH   1  11
BRANCH   4  16
ATOM     16  N   UNL     1       0.474   9.509  20.601  0.00  0.00    +0.000 N 
ATOM     17  C   UNL     1       0.640   9.930  21.906  0.00  0.00    +0.000 C 
ATOM     18  O   UNL     1       1.478   9.588  22.728  0.00  0.00    +0.000 OA
ATOM     19  H   UNL     1      -0.293   9.958  20.103  0.00  0.00    +0.000 HD
BRANCH  17  20
ATOM     20  C   UNL     1      -0.384  10.991  22.329  0.00  0.00    +0.000 C 
ATOM     21  O   UNL     1      -0.986  10.868  23.385  0.00  0.00    +0.000 OA
ATOM     22  N   UNL     1      -0.498  11.999  21.400  0.00  0.00    +0.000 N 
ATOM     23  H   UNL     1       0.108  11.896  20.588  0.00  0.00    +0.000 HD
BRANCH  22  24
ATOM     24  C   UNL     1      -1.366  13.168  21.503  0.00  0.00    +0.000 C 
ATOM     25  C   UNL     1      -1.031  13.971  22.766  0.00  0.00    +0.000 C 
ATOM     26  C   UNL     1      -1.126  14.056  20.269  0.00  0.00    +0.000 C 
ATOM     27  C   UNL     1      -2.840  12.741  21.518  0.00  0.00    +0.000 C 
ENDBRANCH  22  24
ENDBRANCH  17  20
ENDBRANCH   4  16
BRANCH   6  28
ATOM     28  O   UNL     1       2.729   5.233  20.420  0.00  0.00    +0.000 OA
ATOM     29  C   UNL     1       1.639   4.387  20.777  0.00  0.00    +0.000 C 
ENDBRANCH   6  28
TORSDOF 8
ENDMDL
MODEL 4
REMARK VINA RESULT:      -6.9      0.512      1.028
REMARK  Name = 
REMARK  13 active torsions:
REMARK  status: ('A' for Active; 'I' for Inactive)
REMARK    1  A    between atoms: C_1  and  C_2
REMARK    2  A    between atoms: C_2  and  C_3
REMARK    3  A    between atoms: C_3  and  C_4
REMARK    4  A    between atoms: C_4  and  C_5
REMARK    5  A    between atoms: C_9  and  C_10
REMARK    6  A    between atoms: C_13  and  N_14
REMARK    7  A    between atoms: C_15  and  C_17
REMARK    8  A    between atoms: N_19  and  C_20
REMARK    9  A    between atoms: C_20  and  C_21
REMARK   10  A    between atoms: C_20  and  C_22
REMARK   11  A    between atoms: C_20  and  C_23
REMARK   12  A    between atoms: C_25  and  O_26
REMARK   13  A    between atoms: O_26  and  C_27
REMARK                            x       y       z     vdW  Elec       q    Type
REMARK                         _______ _______ _______ _____ _____    ______ ____
ROOT
ATOM      1  C   UNL     1      -0.077   9.938  19.290  0.00  0.00    +0.000 A 
ATOM      2  C   UNL     1       0.533   9.739  18.045  0.00  0.00    +0.000 A 
ATOM      3  C   UNL     1       1.587   8.844  17.893  0.00  0.00    +0.000 A 
ATOM      4  C   UNL     1       2.052   8.109  18.978  0.00  0.00    +0.000 A 
ATOM      5  C   UNL     1       1.418   8.254  20.216  0.00  0.00    +0.000 A 
ATOM      6  C   UNL     1       0.377   9.182  20.391  0.00  0.00    +0.000 A 
ENDROOT
BRANCH   1  11
ATOM      7  C   UNL     1      -2.403  11.103  18.841  0.00  0.00    +0.000 A 
ATOM      8  N   UNL     1      -2.926  12.311  19.264  0.00  0.00    +0.000 NA
ATOM      9  C   UNL     1      -1.964  12.828  19.988  0.00  0.00    +0.000 A 
ATOM     10  O   UNL     1      -0.851  12.060  20.101  0.00  0.00    +0.000 OA
ATOM     11  C   UNL     1      -1.136  10.934  19.366  0.00  0.00    +0.000 A 
BRANCH   7  12
ATOM     12  C   UNL     1      -3.154  10.221  17.912  0.00  0.00    +0.000 C 
BRANCH  12  13
ATOM     13  C   UNL     1      -3.188  10.769  16.490  0.00  0.00    +0.000 C 
BRANCH  13  15
ATOM     14  C   UNL     1      -3.188  10.111  14.080  0.00  0.00    +0.000 C 
ATOM     15  C   UNL     1      -2.751   9.715  15.478  0.00  0.00    +0.000 C 
ENDBRANCH  13  15
ENDBRANCH  12  13
ENDBRANCH   7  12
ENDBRANCH   1  11
BRANCH   4  16
ATOM     16  N   UNL     1       3.156   7.247  18.898  0.00  0.00    +0.000 N 
ATOM     17  C   UNL     1       3.160   5.973  18.365  0.00  0.00    +0.000 C 
ATOM     18  O   UNL     1       2.228   5.318  17.922  0.00  0.00    +0.000 OA
ATOM     19  H   UNL     1       4.070   7.590  19.187  0.00  0.00    +0.000 HD
BRANCH  17  20
ATOM     20  C   UNL     1       4.557   5.341  18.330  0.00  0.00    +0.000 C 
ATOM     21  O   UNL     1       4.688   4.142  18.528  0.00  0.00    +0.000 OA
ATOM     22  N   UNL     1       5.538   6.270  18.069  0.00  0.00    +0.000 N 
ATOM     23  H   UNL     1       5.195   7.220  17.936  0.00  0.00    +0.000 HD
BRANCH  22  24
ATOM     24  C   UNL     1       6.967   5.999  17.950  0.00  0.00    +0.000 C 
ATOM     25  C   UNL     1       7.540   5.558  19.303  0.00  0.00    +0.000 C 
ATOM     26  C   UNL     1       7.159   4.861  16.932  0.00  0.00    +0.000 C 
ATOM     27  C   UNL     1       7.707   7.242  17.437  0.00  0.00    +0.000 C 
ENDBRANCH  22  24
ENDBRANCH  17  20
ENDBRANCH   4  16
BRANCH   6  28
ATOM     28  O   UNL     1      -0.228   9.395  21.607  0.00  0.00    +0.000 OA
ATOM     29  C   UNL     1       0.626   9.427  22.748  0.00  0.00    +0.000 C 
ENDBRANCH   6  28
TORSDOF 8
ENDMDL
MODEL 5
REMARK VINA RESULT:      -6.8      2.223      8.626
REMARK  Name = 
REMARK  13 active torsions:
REMARK  status: ('A' for Active; 'I' for Inactive)
REMARK    1  A    between atoms: C_1  and  C_2
REMARK    2  A    between atoms: C_2  and  C_3
REMARK    3  A    between atoms: C_3  and  C_4
REMARK    4  A    between atoms: C_4  and  C_5
REMARK    5  A    between atoms: C_9  and  C_10
REMARK    6  A    between atoms: C_13  and  N_14
REMARK    7  A    between atoms: C_15  and  C_17
REMARK    8  A    between atoms: N_19  and  C_20
REMARK    9  A    between atoms: C_20  and  C_21
REMARK   10  A    between atoms: C_20  and  C_22
REMARK   11  A    between atoms: C_20  and  C_23
REMARK   12  A    between atoms: C_25  and  O_26
REMARK   13  A    between atoms: O_26  and  C_27
REMARK                            x       y       z     vdW  Elec       q    Type
REMARK                         _______ _______ _______ _____ _____    ______ ____
ROOT
ATOM      1  C   UNL     1       3.127   6.637  18.537  0.00  0.00    +0.000 A 
ATOM      2  C   UNL     1       3.078   7.739  17.673  0.00  0.00    +0.000 A 
ATOM      3  C   UNL     1       2.305   8.856  17.971  0.00  0.00    +0.000 A 
ATOM      4  C   UNL     1       1.570   8.913  19.151  0.00  0.00    +0.000 A 
ATOM      5  C   UNL     1       1.652   7.846  20.052  0.00  0.00    +0.000 A 
ATOM      6  C   UNL     1       2.400   6.696  19.745  0.00  0.00    +0.000 A 
ENDROOT
BRANCH   1  11
ATOM      7  C   UNL     1       5.190   5.001  18.352  0.00  0.00    +0.000 A 
ATOM      8  N   UNL     1       5.388   3.847  17.616  0.00  0.00    +0.000 NA
ATOM      9  C   UNL     1       4.265   3.703  16.957  0.00  0.00    +0.000 A 
ATOM     10  O   UNL     1       3.326   4.652  17.204  0.00  0.00    +0.000 OA
ATOM     11  C   UNL     1       3.920   5.491  18.117  0.00  0.00    +0.000 A 
BRANCH   7  12
ATOM     12  C   UNL     1       6.272   5.574  19.192  0.00  0.00    +0.000 C 
BRANCH  12  13
ATOM     13  C   UNL     1       7.548   5.833  18.398  0.00  0.00    +0.000 C 
BRANCH  13  15
ATOM     14  C   UNL     1       7.917   8.220  17.763  0.00  0.00    +0.000 C 
ATOM     15  C   UNL     1       7.329   6.892  17.323  0.00  0.00    +0.000 C 
ENDBRANCH  13  15
ENDBRANCH  12  13
ENDBRANCH   7  12
ENDBRANCH   1  11
BRANCH   4  16
ATOM     16  N   UNL     1       0.719   9.982  19.468  0.00  0.00    +0.000 N 
ATOM     17  C   UNL     1      -0.413  10.358  18.771  0.00  0.00    +0.000 C 
ATOM     18  O   UNL     1      -0.868   9.902  17.733  0.00  0.00    +0.000 OA
ATOM     19  H   UNL     1       0.884  10.504  20.327  0.00  0.00    +0.000 HD
BRANCH  17  20
ATOM     20  C   UNL     1      -1.181  11.500  19.447  0.00  0.00    +0.000 C 
ATOM     21  O   UNL     1      -2.368  11.663  19.204  0.00  0.00    +0.000 OA
ATOM     22  N   UNL     1      -0.379  12.239  20.285  0.00  0.00    +0.000 N 
ATOM     23  H   UNL     1       0.587  11.919  20.335  0.00  0.00    +0.000 HD
BRANCH  22  24
ATOM     24  C   UNL     1      -0.799  13.380  21.092  0.00  0.00    +0.000 C 
ATOM     25  C   UNL     1       0.393  13.948  21.874  0.00  0.00    +0.000 C 
ATOM     26  C   UNL     1      -1.337  14.467  20.144  0.00  0.00    +0.000 C 
ATOM     27  C   UNL     1      -1.923  12.972  22.055  0.00  0.00    +0.000 C 
ENDBRANCH  22  24
ENDBRANCH  17  20
ENDBRANCH   4  16
BRANCH   6  28
ATOM     28  O   UNL     1       2.453   5.604  20.577  0.00  0.00    +0.000 OA
ATOM     29  C   UNL     1       1.334   4.723  20.547  0.00  0.00    +0.000 C 
ENDBRANCH   6  28
TORSDOF 8
ENDMDL
MODEL 6
REMARK VINA RESULT:      -6.7      2.814      8.854
REMARK  Name = 
REMARK  13 active torsions:
REMARK  status: ('A' for Active; 'I' for Inactive)
REMARK    1  A    between atoms: C_1  and  C_2
REMARK    2  A    between atoms: C_2  and  C_3
REMARK    3  A    between atoms: C_3  and  C_4
REMARK    4  A    between atoms: C_4  and  C_5
REMARK    5  A    between atoms: C_9  and  C_10
REMARK    6  A    between atoms: C_13  and  N_14
REMARK    7  A    between atoms: C_15  and  C_17
REMARK    8  A    between atoms: N_19  and  C_20
REMARK    9  A    between atoms: C_20  and  C_21
REMARK   10  A    between atoms: C_20  and  C_22
REMARK   11  A    between atoms: C_20  and  C_23
REMARK   12  A    between atoms: C_25  and  O_26
REMARK   13  A    between atoms: O_26  and  C_27
REMARK                            x       y       z     vdW  Elec       q    Type
REMARK                         _______ _______ _______ _____ _____    ______ ____
ROOT
ATOM      1  C   UNL     1       2.607   5.990  19.073  0.00  0.00    +0.000 A 
ATOM      2  C   UNL     1       2.562   7.277  18.521  0.00  0.00    +0.000 A 
ATOM      3  C   UNL     1       2.028   8.348  19.230  0.00  0.00    +0.000 A 
ATOM      4  C   UNL     1       1.537   8.167  20.519  0.00  0.00    +0.000 A 
ATOM      5  C   UNL     1       1.626   6.901  21.106  0.00  0.00    +0.000 A 
ATOM      6  C   UNL     1       2.128   5.803  20.386  0.00  0.00    +0.000 A 
ENDROOT
BRANCH   1  11
ATOM      7  C   UNL     1       4.377   4.420  17.902  0.00  0.00    +0.000 A 
ATOM      8  N   UNL     1       4.235   3.378  17.004  0.00  0.00    +0.000 NA
ATOM      9  C   UNL     1       2.940   3.310  16.812  0.00  0.00    +0.000 A 
ATOM     10  O   UNL     1       2.205   4.205  17.520  0.00  0.00    +0.000 OA
ATOM     11  C   UNL     1       3.134   4.921  18.237  0.00  0.00    +0.000 A 
BRANCH   7  12
ATOM     12  C   UNL     1       5.720   4.889  18.331  0.00  0.00    +0.000 C 
BRANCH  12  13
ATOM     13  C   UNL     1       6.097   6.225  17.700  0.00  0.00    +0.000 C 
BRANCH  13  15
ATOM     14  C   UNL     1       7.811   8.040  17.599  0.00  0.00    +0.000 C 
ATOM     15  C   UNL     1       7.530   6.617  18.046  0.00  0.00    +0.000 C 
ENDBRANCH  13  15
ENDBRANCH  12  13
ENDBRANCH   7  12
ENDBRANCH   1  11
BRANCH   4  16
ATOM     16  N   UNL     1       0.923   9.194  21.251  0.00  0.00    +0.000 N 
ATOM     17  C   UNL     1      -0.189   9.918  20.867  0.00  0.00    +0.000 C 
ATOM     18  O   UNL     1      -0.819   9.868  19.821  0.00  0.00    +0.000 OA
ATOM     19  H   UNL     1       1.262   9.401  22.189  0.00  0.00    +0.000 HD
BRANCH  17  20
ATOM     20  C   UNL     1      -0.673  10.892  21.948  0.00  0.00    +0.000 C 
ATOM     21  O   UNL     1      -0.319  10.741  23.107  0.00  0.00    +0.000 OA
ATOM     22  N   UNL     1      -1.499  11.865  21.434  0.00  0.00    +0.000 N 
ATOM     23  H   UNL     1      -1.658  11.798  20.430  0.00  0.00    +0.000 HD
BRANCH  22  24
ATOM     24  C   UNL     1      -2.115  12.954  22.185  0.00  0.00    +0.000 C 
ATOM     25  C   UNL     1      -2.812  13.933  21.231  0.00  0.00    +0.000 C 
ATOM     26  C   UNL     1      -3.165  12.350  23.135  0.00  0.00    +0.000 C 
ATOM     27  C   UNL     1      -1.061  13.689  23.026  0.00  0.00    +0.000 C 
ENDBRANCH  22  24
ENDBRANCH  17  20
ENDBRANCH   4  16
BRANCH   6  28
ATOM     28  O   UNL     1       2.173   4.534  20.909  0.00  0.00    +0.000 OA
ATOM     29  C   UNL     1       1.040   3.704  20.668  0.00  0.00    +0.000 C 
ENDBRANCH   6  28
TORSDOF 8
ENDMDL
MODEL 7
REMARK VINA RESULT:      -6.6      2.764      8.304
REMARK  Name = 
REMARK  13 active torsions:
REMARK  status: ('A' for Active; 'I' for Inactive)
REMARK    1  A    between atoms: C_1  and  C_2
REMARK    2  A    between atoms: C_2  and  C_3
REMARK    3  A    between atoms: C_3  and  C_4
REMARK    4  A    between atoms: C_4  and  C_5
REMARK    5  A    between atoms: C_9  and  C_10
REMARK    6  A    between atoms: C_13  and  N_14
REMARK    7  A    between atoms: C_15  and  C_17
REMARK    8  A    between atoms: N_19  and  C_20
REMARK    9  A    between atoms: C_20  and  C_21
REMARK   10  A    between atoms: C_20  and  C_22
REMARK   11  A    between atoms: C_20  and  C_23
REMARK   12  A    between atoms: C_25  and  O_26
REMARK   13  A    between atoms: O_26  and  C_27
REMARK                            x       y       z     vdW  Elec       q    Type
REMARK                         _______ _______ _______ _____ _____    ______ ____
ROOT
ATOM      1  C   UNL     1       2.978   6.303  18.840  0.00  0.00    +0.000 A 
ATOM      2  C   UNL     1       2.141   6.708  19.888  0.00  0.00    +0.000 A 
ATOM      3  C   UNL     1       1.602   7.990  19.927  0.00  0.00    +0.000 A 
ATOM      4  C   UNL     1       1.870   8.900  18.909  0.00  0.00    +0.000 A 
ATOM      5  C   UNL     1       2.658   8.493  17.827  0.00  0.00    +0.000 A 
ATOM      6  C   UNL     1       3.238   7.214  17.795  0.00  0.00    +0.000 A 
ENDROOT
BRANCH   1  11
ATOM      7  C   UNL     1       3.131   3.678  18.604  0.00  0.00    +0.000 A 
ATOM      8  N   UNL     1       4.127   2.779  18.937  0.00  0.00    +0.000 NA
ATOM      9  C   UNL     1       5.068   3.534  19.449  0.00  0.00    +0.000 A 
ATOM     10  O   UNL     1       4.792   4.863  19.468  0.00  0.00    +0.000 OA
ATOM     11  C   UNL     1       3.539   4.961  18.911  0.00  0.00    +0.000 A 
BRANCH   7  12
ATOM     12  C   UNL     1       1.829   3.218  18.058  0.00  0.00    +0.000 C 
BRANCH  12  13
ATOM     13  C   UNL     1       0.984   2.495  19.101  0.00  0.00    +0.000 C 
BRANCH  13  15
ATOM     14  C   UNL     1       1.471   2.709  21.542  0.00  0.00    +0.000 C 
ATOM     15  C   UNL     1       0.789   3.351  20.348  0.00  0.00    +0.000 C 
ENDBRANCH  13  15
ENDBRANCH  12  13
ENDBRANCH   7  12
ENDBRANCH   1  11
BRANCH   4  16
ATOM     16  N   UNL     1       1.413  10.226  18.933  0.00  0.00    +0.000 N 
ATOM     17  C   UNL     1       0.175  10.670  18.510  0.00  0.00    +0.000 C 
ATOM     18  O   UNL     1      -0.733  10.042  17.986  0.00  0.00    +0.000 OA
ATOM     19  H   UNL     1       1.998  10.941  19.361  0.00  0.00    +0.000 HD
BRANCH  17  20
ATOM     20  C   UNL     1      -0.049  12.164  18.775  0.00  0.00    +0.000 C 
ATOM     21  O   UNL     1      -0.952  12.755  18.202  0.00  0.00    +0.000 OA
ATOM     22  N   UNL     1       0.858  12.671  19.676  0.00  0.00    +0.000 N 
ATOM     23  H   UNL     1       1.528  11.990  20.030  0.00  0.00    +0.000 HD
BRANCH  22  24
ATOM     24  C   UNL     1       0.912  14.047  20.159  0.00  0.00    +0.000 C 
ATOM     25  C   UNL     1      -0.366  14.389  20.935  0.00  0.00    +0.000 C 
ATOM     26  C   UNL     1       2.120  14.179  21.104  0.00  0.00    +0.000 C 
ATOM     27  C   UNL     1       1.101  15.020  18.987  0.00  0.00    +0.000 C 
ENDBRANCH  22  24
ENDBRANCH  17  20
ENDBRANCH   4  16
BRANCH   6  28
ATOM     28  O   UNL     1       4.066   6.802  16.779  0.00  0.00    +0.000 OA
ATOM     29  C   UNL     1       5.452   7.106  16.921  0.00  0.00    +0.000 C 
ENDBRANCH   6  28
TORSDOF 8
ENDMDL
MODEL 8
REMARK VINA RESULT:      -6.6      2.151      8.793
REMARK  Name = 
REMARK  13 active torsions:
REMARK  status: ('A' for Active; 'I' for Inactive)
REMARK    1  A    between atoms: C_1  and  C_2
REMARK    2  A    between atoms: C_2  and  C_3
REMARK    3  A    between atoms: C_3  and  C_4
REMARK    4  A    between atoms: C_4  and  C_5
REMARK    5  A    between atoms: C_9  and  C_10
REMARK    6  A    between atoms: C_13  and  N_14
REMARK    7  A    between atoms: C_15  and  C_17
REMARK    8  A    between atoms: N_19  and  C_20
REMARK    9  A    between atoms: C_20  and  C_21
REMARK   10  A    between atoms: C_20  and  C_22
REMARK   11  A    between atoms: C_20  and  C_23
REMARK   12  A    between atoms: C_25  and  O_26
REMARK   13  A    between atoms: O_26  and  C_27
REMARK                            x       y       z     vdW  Elec       q    Type
REMARK                         _______ _______ _______ _____ _____    ______ ____
ROOT
ATOM      1  C   UNL     1       4.773   6.168  17.886  0.00  0.00    +0.000 A 
ATOM      2  C   UNL     1       4.626   7.427  17.290  0.00  0.00    +0.000 A 
ATOM      3  C   UNL     1       3.457   8.166  17.444  0.00  0.00    +0.000 A 
ATOM      4  C   UNL     1       2.407   7.675  18.213  0.00  0.00    +0.000 A 
ATOM      5  C   UNL     1       2.559   6.445  18.862  0.00  0.00    +0.000 A 
ATOM      6  C   UNL     1       3.720   5.673  18.683  0.00  0.00    +0.000 A 
ENDROOT
BRANCH   1  11
ATOM      7  C   UNL     1       6.455   4.499  16.723  0.00  0.00    +0.000 A 
ATOM      8  N   UNL     1       7.764   4.159  17.011  0.00  0.00    +0.000 NA
ATOM      9  C   UNL     1       8.044   4.875  18.072  0.00  0.00    +0.000 A 
ATOM     10  O   UNL     1       7.039   5.678  18.506  0.00  0.00    +0.000 OA
ATOM     11  C   UNL     1       6.009   5.444  17.626  0.00  0.00    +0.000 A 
BRANCH   7  12
ATOM     12  C   UNL     1       5.713   3.839  15.619  0.00  0.00    +0.000 C 
BRANCH  12  13
ATOM     13  C   UNL     1       5.716   4.668  14.339  0.00  0.00    +0.000 C 
BRANCH  13  15
ATOM     14  C   UNL     1       6.634   3.585  12.284  0.00  0.00    +0.000 C 
ATOM     15  C   UNL     1       5.389   3.811  13.121  0.00  0.00    +0.000 C 
ENDBRANCH  13  15
ENDBRANCH  12  13
ENDBRANCH   7  12
ENDBRANCH   1  11
BRANCH   4  16
ATOM     16  N   UNL     1       1.181   8.344  18.343  0.00  0.00    +0.000 N 
ATOM     17  C   UNL     1       0.997   9.712  18.372  0.00  0.00    +0.000 C 
ATOM     18  O   UNL     1       1.832  10.605  18.355  0.00  0.00    +0.000 OA
ATOM     19  H   UNL     1       0.321   7.798  18.348  0.00  0.00    +0.000 HD
BRANCH  17  20
ATOM     20  C   UNL     1      -0.482  10.118  18.413  0.00  0.00    +0.000 C 
ATOM     21  O   UNL     1      -0.976  10.516  19.457  0.00  0.00    +0.000 OA
ATOM     22  N   UNL     1      -1.094   9.965  17.190  0.00  0.00    +0.000 N 
ATOM     23  H   UNL     1      -0.483   9.616  16.453  0.00  0.00    +0.000 HD
BRANCH  22  24
ATOM     24  C   UNL     1      -2.486  10.276  16.881  0.00  0.00    +0.000 C 
ATOM     25  C   UNL     1      -2.770  10.026  15.395  0.00  0.00    +0.000 C 
ATOM     26  C   UNL     1      -3.384   9.352  17.724  0.00  0.00    +0.000 C 
ATOM     27  C   UNL     1      -2.804  11.733  17.248  0.00  0.00    +0.000 C 
ENDBRANCH  22  24
ENDBRANCH  17  20
ENDBRANCH   4  16
BRANCH   6  28
ATOM     28  O   UNL     1       3.878   4.433  19.255  0.00  0.00    +0.000 OA
ATOM     29  C   UNL     1       2.943   3.429  18.870  0.00  0.00    +0.000 C 
ENDBRANCH   6  28
TORSDOF 8
ENDMDL
MODEL 9
REMARK VINA RESULT:      -6.6      2.223      3.022
REMARK  Name = 
REMARK  13 active torsions:
REMARK  status: ('A' for Active; 'I' for Inactive)
REMARK    1  A    between atoms: C_1  and  C_2
REMARK    2  A    between atoms: C_2  and  C_3
REMARK    3  A    between atoms: C_3  and  C_4
REMARK    4  A    between atoms: C_4  and  C_5
REMARK    5  A    between atoms: C_9  and  C_10
REMARK    6  A    between atoms: C_13  and  N_14
REMARK    7  A    between atoms: C_15  and  C_17
REMARK    8  A    between atoms: N_19  and  C_20
REMARK    9  A    between atoms: C_20  and  C_21
REMARK   10  A    between atoms: C_20  and  C_22
REMARK   11  A    between atoms: C_20  and  C_23
REMARK   12  A    between atoms: C_25  and  O_26
REMARK   13  A    between atoms: O_26  and  C_27
REMARK                            x       y       z     vdW  Elec       q    Type
REMARK                         _______ _______ _______ _____ _____    ______ ____
ROOT
ATOM      1  C   UNL     1       1.132  10.213  18.921  0.00  0.00    +0.000 A 
ATOM      2  C   UNL     1       1.714   9.669  17.768  0.00  0.00    +0.000 A 
ATOM      3  C   UNL     1       2.254   8.387  17.769  0.00  0.00    +0.000 A 
ATOM      4  C   UNL     1       2.215   7.604  18.918  0.00  0.00    +0.000 A 
ATOM      5  C   UNL     1       1.588   8.110  20.061  0.00  0.00    +0.000 A 
ATOM      6  C   UNL     1       1.072   9.417  20.084  0.00  0.00    +0.000 A 
ENDROOT
BRANCH   1  11
ATOM      7  C   UNL     1      -0.581  12.208  18.698  0.00  0.00    +0.000 A 
ATOM      8  N   UNL     1      -0.400  13.579  18.655  0.00  0.00    +0.000 NA
ATOM      9  C   UNL     1       0.900  13.722  18.743  0.00  0.00    +0.000 A 
ATOM     10  O   UNL     1       1.600  12.566  18.861  0.00  0.00    +0.000 OA
ATOM     11  C   UNL     1       0.641  11.581  18.842  0.00  0.00    +0.000 A 
BRANCH   7  12
ATOM     12  C   UNL     1      -1.929  11.604  18.542  0.00  0.00    +0.000 C 
BRANCH  12  13
ATOM     13  C   UNL     1      -1.983  10.588  17.407  0.00  0.00    +0.000 C 
BRANCH  13  15
ATOM     14  C   UNL     1      -4.430  10.844  17.838  0.00  0.00    +0.000 C 
ATOM     15  C   UNL     1      -3.346   9.908  17.335  0.00  0.00    +0.000 C 
ENDBRANCH  13  15
ENDBRANCH  12  13
ENDBRANCH   7  12
ENDBRANCH   1  11
BRANCH   4  16
ATOM     16  N   UNL     1       2.807   6.335  18.996  0.00  0.00    +0.000 N 
ATOM     17  C   UNL     1       4.068   5.994  18.547  0.00  0.00    +0.000 C 
ATOM     18  O   UNL     1       4.887   6.678  17.951  0.00  0.00    +0.000 OA
ATOM     19  H   UNL     1       2.315   5.592  19.488  0.00  0.00    +0.000 HD
BRANCH  17  20
ATOM     20  C   UNL     1       4.455   4.549  18.885  0.00  0.00    +0.000 C 
ATOM     21  O   UNL     1       5.634   4.241  18.979  0.00  0.00    +0.000 OA
ATOM     22  N   UNL     1       3.353   3.742  19.042  0.00  0.00    +0.000 N 
ATOM     23  H   UNL     1       2.460   4.217  18.918  0.00  0.00    +0.000 HD
BRANCH  22  24
ATOM     24  C   UNL     1       3.368   2.323  19.384  0.00  0.00    +0.000 C 
ATOM     25  C   UNL     1       4.384   2.056  20.503  0.00  0.00    +0.000 C 
ATOM     26  C   UNL     1       1.964   1.932  19.881  0.00  0.00    +0.000 C 
ATOM     27  C   UNL     1       3.702   1.477  18.148  0.00  0.00    +0.000 C 
ENDBRANCH  22  24
ENDBRANCH  17  20
ENDBRANCH   4  16
BRANCH   6  28
ATOM     28  O   UNL     1       0.505   9.969  21.208  0.00  0.00    +0.000 OA
ATOM     29  C   UNL     1       0.712   9.274  22.435  0.00  0.00    +0.000 C 
ENDBRANCH   6  28
TORSDOF 8
ENDMDL
