MODEL 1
REMARK VINA RESULT:      -7.4      0.000      0.000
REMARK  Name = 
REMARK  5 active torsions:
REMARK  status: ('A' for Active; 'I' for Inactive)
REMARK    1  A    between atoms: C_1  and  C_2
REMARK    2  A    between atoms: C_2  and  C_3
REMARK    3  A    between atoms: C_2  and  C_10
REMARK    4  A    between atoms: C_10  and  N_11
REMARK    5  A    between atoms: C_10  and  C_12
REMARK                            x       y       z     vdW  Elec       q    Type
REMARK                         _______ _______ _______ _____ _____    ______ ____
ROOT
ATOM      1  C   UNL     1       6.781   4.372  17.022  0.00  0.00    +0.000 C 
ENDROOT
BRANCH   1   2
ATOM      2  C   UNL     1       7.085   5.105  15.678  0.00  0.00    +0.000 C 
ATOM      3  O   UNL     1       7.614   6.227  15.698  0.00  0.00    +0.000 OA
ATOM      4  N   UNL     1       6.867   4.468  14.484  0.00  0.00    +0.000 N 
ATOM      5  C   UNL     1       7.364   5.050  13.246  0.00  0.00    +0.000 C 
ATOM      6  C   UNL     1       7.037   4.034  12.162  0.00  0.00    +0.000 C 
ATOM      7  C   UNL     1       5.779   3.380  12.701  0.00  0.00    +0.000 C 
ATOM      8  F   UNL     1       4.725   4.213  12.472  0.00  0.00    +0.000 F 
ATOM      9  C   UNL     1       6.034   3.302  14.206  0.00  0.00    +0.000 C 
ENDBRANCH   1   2
BRANCH   1  10
ATOM     10  N   UNL     1       8.107   4.103  17.659  0.00  0.00    +0.000 NA
ATOM     11  H   UNL     1       8.575   3.391  17.088  0.00  0.00    +0.000 HD
ATOM     12  H   UNL     1       7.932   3.603  18.535  0.00  0.00    +0.000 HD
ENDBRANCH   1  10
BRANCH   1  14
ATOM     13  C   UNL     1       6.460   5.476  19.323  0.00  0.00    +0.000 C 
ATOM     14  C   UNL     1       5.805   5.146  17.966  0.00  0.00    +0.000 C 
BRANCH  14  15
ATOM     15  C   UNL     1       4.430   4.497  18.219  0.00  0.00    +0.000 A 
ATOM     16  C   UNL     1       4.364   3.316  18.989  0.00  0.00    +0.000 A 
ATOM     17  C   UNL     1       3.160   2.622  19.158  0.00  0.00    +0.000 A 
ATOM     18  C   UNL     1       1.994   3.110  18.580  0.00  0.00    +0.000 A 
ATOM     19 CL   UNL     1       0.520   2.238  18.748  0.00  0.00    +0.000 Cl
ATOM     20  C   UNL     1       2.020   4.296  17.858  0.00  0.00    +0.000 A 
ATOM     21  C   UNL     1       3.227   4.984  17.685  0.00  0.00    +0.000 A 
ENDBRANCH  14  15
ENDBRANCH   1  14
TORSDOF 4
ENDMDL
MODEL 2
REMARK VINA RESULT:      -7.3      0.159      1.113
REMARK  Name = 
REMARK  5 active torsions:
REMARK  status: ('A' for Active; 'I' for Inactive)
REMARK    1  A    between atoms: C_1  and  C_2
REMARK    2  A    between atoms: C_2  and  C_3
REMARK    3  A    between atoms: C_2  and  C_10
REMARK    4  A    between atoms: C_10  and  N_11
REMARK    5  A    between atoms: C_10  and  C_12
REMARK                            x       y       z     vdW  Elec       q    Type
REMARK                         _______ _______ _______ _____ _____    ______ ____
ROOT
ATOM      1  C   UNL     1       6.814   4.315  17.020  0.00  0.00    +0.000 C 
ENDROOT
BRANCH   1   2
ATOM      2  C   UNL     1       7.097   5.084  15.692  0.00  0.00    +0.000 C 
ATOM      3  O   UNL     1       7.603   6.216  15.735  0.00  0.00    +0.000 OA
ATOM      4  N   UNL     1       6.885   4.470  14.485  0.00  0.00    +0.000 N 
ATOM      5  C   UNL     1       7.365   5.090  13.257  0.00  0.00    +0.000 C 
ATOM      6  C   UNL     1       7.053   4.092  12.152  0.00  0.00    +0.000 C 
ATOM      7  C   UNL     1       5.812   3.400  12.682  0.00  0.00    +0.000 C 
ATOM      8  F   UNL     1       4.740   4.217  12.477  0.00  0.00    +0.000 F 
ATOM      9  C   UNL     1       6.075   3.294  14.184  0.00  0.00    +0.000 C 
ENDBRANCH   1   2
BRANCH   1  10
ATOM     10  N   UNL     1       8.137   4.153  17.698  0.00  0.00    +0.000 NA
ATOM     11  H   UNL     1       8.120   3.247  18.178  0.00  0.00    +0.000 HD
ATOM     12  H   UNL     1       8.166   4.816  18.478  0.00  0.00    +0.000 HD
ENDBRANCH   1  10
BRANCH   1  14
ATOM     13  C   UNL     1       6.327   5.365  19.318  0.00  0.00    +0.000 C 
ATOM     14  C   UNL     1       5.746   4.994  17.938  0.00  0.00    +0.000 C 
BRANCH  14  15
ATOM     15  C   UNL     1       4.424   4.228  18.141  0.00  0.00    +0.000 A 
ATOM     16  C   UNL     1       3.259   4.695  17.498  0.00  0.00    +0.000 A 
ATOM     17  C   UNL     1       2.010   4.108  17.733  0.00  0.00    +0.000 A 
ATOM     18  C   UNL     1       1.908   3.024  18.598  0.00  0.00    +0.000 A 
ATOM     19 CL   UNL     1       0.369   2.326  18.924  0.00  0.00    +0.000 Cl
ATOM     20  C   UNL     1       3.046   2.512  19.207  0.00  0.00    +0.000 A 
ATOM     21  C   UNL     1       4.292   3.107  18.975  0.00  0.00    +0.000 A 
ENDBRANCH  14  15
ENDBRANCH   1  14
TORSDOF 4
ENDMDL
MODEL 3
REMARK VINA RESULT:      -7.3      1.396      1.698
REMARK  Name = 
REMARK  5 active torsions:
REMARK  status: ('A' for Active; 'I' for Inactive)
REMARK    1  A    between atoms: C_1  and  C_2
REMARK    2  A    between atoms: C_2  and  C_3
REMARK    3  A    between atoms: C_2  and  C_10
REMARK    4  A    between atoms: C_10  and  N_11
REMARK    5  A    between atoms: C_10  and  C_12
REMARK                            x       y       z     vdW  Elec       q    Type
REMARK                         _______ _______ _______ _____ _____    ______ ____
ROOT
ATOM      1  C   UNL     1       6.399   4.619  15.948  0.00  0.00    +0.000 C 
ENDROOT
BRANCH   1   2
ATOM      2  C   UNL     1       6.966   4.790  14.504  0.00  0.00    +0.000 C 
ATOM      3  O   UNL     1       7.905   5.574  14.302  0.00  0.00    +0.000 OA
ATOM      4  N   UNL     1       6.499   3.998  13.486  0.00  0.00    +0.000 N 
ATOM      5  C   UNL     1       7.183   3.987  12.200  0.00  0.00    +0.000 C 
ATOM      6  C   UNL     1       6.464   2.935  11.370  0.00  0.00    +0.000 C 
ATOM      7  C   UNL     1       5.052   2.996  11.922  0.00  0.00    +0.000 C 
ATOM      8  F   UNL     1       4.427   4.084  11.390  0.00  0.00    +0.000 F 
ATOM      9  C   UNL     1       5.263   3.226  13.418  0.00  0.00    +0.000 C 
ENDBRANCH   1   2
BRANCH   1  10
ATOM     10  N   UNL     1       7.575   4.691  16.869  0.00  0.00    +0.000 NA
ATOM     11  H   UNL     1       7.491   3.907  17.524  0.00  0.00    +0.000 HD
ATOM     12  H   UNL     1       7.439   5.503  17.478  0.00  0.00    +0.000 HD
ENDBRANCH   1  10
BRANCH   1  14
ATOM     13  C   UNL     1       5.852   6.889  17.028  0.00  0.00    +0.000 C 
ATOM     14  C   UNL     1       5.279   5.644  16.320  0.00  0.00    +0.000 C 
BRANCH  14  15
ATOM     15  C   UNL     1       4.093   5.102  17.143  0.00  0.00    +0.000 A 
ATOM     16  C   UNL     1       3.393   5.983  17.993  0.00  0.00    +0.000 A 
ATOM     17  C   UNL     1       2.381   5.525  18.846  0.00  0.00    +0.000 A 
ATOM     18  C   UNL     1       2.034   4.179  18.844  0.00  0.00    +0.000 A 
ATOM     19 CL   UNL     1       0.821   3.602  19.921  0.00  0.00    +0.000 Cl
ATOM     20  C   UNL     1       2.673   3.297  17.982  0.00  0.00    +0.000 A 
ATOM     21  C   UNL     1       3.688   3.758  17.136  0.00  0.00    +0.000 A 
ENDBRANCH  14  15
ENDBRANCH   1  14
TORSDOF 4
ENDMDL
MODEL 4
REMARK VINA RESULT:      -7.3      1.366      1.462
REMARK  Name = 
REMARK  5 active torsions:
REMARK  status: ('A' for Active; 'I' for Inactive)
REMARK    1  A    between atoms: C_1  and  C_2
REMARK    2  A    between atoms: C_2  and  C_3
REMARK    3  A    between atoms: C_2  and  C_10
REMARK    4  A    between atoms: C_10  and  N_11
REMARK    5  A    between atoms: C_10  and  C_12
REMARK                            x       y       z     vdW  Elec       q    Type
REMARK                         _______ _______ _______ _____ _____    ______ ____
ROOT
ATOM      1  C   UNL     1       6.413   4.598  15.917  0.00  0.00    +0.000 C 
ENDROOT
BRANCH   1   2
ATOM      2  C   UNL     1       6.960   4.797  14.468  0.00  0.00    +0.000 C 
ATOM      3  O   UNL     1       7.871   5.613  14.263  0.00  0.00    +0.000 OA
ATOM      4  N   UNL     1       6.510   3.997  13.449  0.00  0.00    +0.000 N 
ATOM      5  C   UNL     1       7.181   4.017  12.157  0.00  0.00    +0.000 C 
ATOM      6  C   UNL     1       6.489   2.946  11.327  0.00  0.00    +0.000 C 
ATOM      7  C   UNL     1       5.081   2.957  11.893  0.00  0.00    +0.000 C 
ATOM      8  F   UNL     1       4.415   4.027  11.374  0.00  0.00    +0.000 F 
ATOM      9  C   UNL     1       5.299   3.185  13.388  0.00  0.00    +0.000 C 
ENDBRANCH   1   2
BRANCH   1  10
ATOM     10  N   UNL     1       7.591   4.736  16.829  0.00  0.00    +0.000 NA
ATOM     11  H   UNL     1       8.431   4.674  16.244  0.00  0.00    +0.000 HD
ATOM     12  H   UNL     1       7.648   3.880  17.388  0.00  0.00    +0.000 HD
ENDBRANCH   1  10
BRANCH   1  14
ATOM     13  C   UNL     1       5.757   6.872  16.924  0.00  0.00    +0.000 C 
ATOM     14  C   UNL     1       5.242   5.562  16.295  0.00  0.00    +0.000 C 
BRANCH  14  15
ATOM     15  C   UNL     1       4.132   4.979  17.192  0.00  0.00    +0.000 A 
ATOM     16  C   UNL     1       3.785   3.619  17.051  0.00  0.00    +0.000 A 
ATOM     17  C   UNL     1       2.711   3.063  17.757  0.00  0.00    +0.000 A 
ATOM     18  C   UNL     1       1.981   3.852  18.638  0.00  0.00    +0.000 A 
ATOM     19 CL   UNL     1       0.633   3.186  19.476  0.00  0.00    +0.000 Cl
ATOM     20  C   UNL     1       2.330   5.182  18.833  0.00  0.00    +0.000 A 
ATOM     21  C   UNL     1       3.400   5.736  18.120  0.00  0.00    +0.000 A 
ENDBRANCH  14  15
ENDBRANCH   1  14
TORSDOF 4
ENDMDL
MODEL 5
REMARK VINA RESULT:      -7.1      2.954      4.060
REMARK  Name = 
REMARK  5 active torsions:
REMARK  status: ('A' for Active; 'I' for Inactive)
REMARK    1  A    between atoms: C_1  and  C_2
REMARK    2  A    between atoms: C_2  and  C_3
REMARK    3  A    between atoms: C_2  and  C_10
REMARK    4  A    between atoms: C_10  and  N_11
REMARK    5  A    between atoms: C_10  and  C_12
REMARK                            x       y       z     vdW  Elec       q    Type
REMARK                         _______ _______ _______ _____ _____    ______ ____
ROOT
ATOM      1  C   UNL     1       4.206   3.148  19.104  0.00  0.00    +0.000 C 
ENDROOT
BRANCH   1   2
ATOM      2  C   UNL     1       5.327   4.186  18.784  0.00  0.00    +0.000 C 
ATOM      3  O   UNL     1       5.914   4.761  19.713  0.00  0.00    +0.000 OA
ATOM      4  N   UNL     1       5.732   4.380  17.488  0.00  0.00    +0.000 N 
ATOM      5  C   UNL     1       6.926   5.165  17.208  0.00  0.00    +0.000 C 
ATOM      6  C   UNL     1       7.123   5.077  15.702  0.00  0.00    +0.000 C 
ATOM      7  C   UNL     1       5.700   4.929  15.198  0.00  0.00    +0.000 C 
ATOM      8  F   UNL     1       5.105   6.155  15.218  0.00  0.00    +0.000 F 
ATOM      9  C   UNL     1       5.039   4.039  16.250  0.00  0.00    +0.000 C 
ENDBRANCH   1   2
BRANCH   1  10
ATOM     10  N   UNL     1       4.856   2.066  19.906  0.00  0.00    +0.000 NA
ATOM     11  H   UNL     1       4.290   1.220  19.783  0.00  0.00    +0.000 HD
ATOM     12  H   UNL     1       4.710   2.287  20.895  0.00  0.00    +0.000 HD
ENDBRANCH   1  10
BRANCH   1  14
ATOM     13  C   UNL     1       1.712   2.857  19.666  0.00  0.00    +0.000 C 
ATOM     14  C   UNL     1       2.955   3.757  19.817  0.00  0.00    +0.000 C 
BRANCH  14  15
ATOM     15  C   UNL     1       2.577   5.201  19.430  0.00  0.00    +0.000 A 
ATOM     16  C   UNL     1       2.525   5.550  18.064  0.00  0.00    +0.000 A 
ATOM     17  C   UNL     1       2.297   6.871  17.657  0.00  0.00    +0.000 A 
ATOM     18  C   UNL     1       2.092   7.862  18.609  0.00  0.00    +0.000 A 
ATOM     19 CL   UNL     1       1.854   9.493  18.116  0.00  0.00    +0.000 Cl
ATOM     20  C   UNL     1       2.089   7.538  19.960  0.00  0.00    +0.000 A 
ATOM     21  C   UNL     1       2.324   6.218  20.364  0.00  0.00    +0.000 A 
ENDBRANCH  14  15
ENDBRANCH   1  14
TORSDOF 4
ENDMDL
MODEL 6
REMARK VINA RESULT:      -7.0      3.079      4.131
REMARK  Name = 
REMARK  5 active torsions:
REMARK  status: ('A' for Active; 'I' for Inactive)
REMARK    1  A    between atoms: C_1  and  C_2
REMARK    2  A    between atoms: C_2  and  C_3
REMARK    3  A    between atoms: C_2  and  C_10
REMARK    4  A    between atoms: C_10  and  N_11
REMARK    5  A    between atoms: C_10  and  C_12
REMARK                            x       y       z     vdW  Elec       q    Type
REMARK                         _______ _______ _______ _____ _____    ______ ____
ROOT
ATOM      1  C   UNL     1       3.583   2.800  18.275  0.00  0.00    +0.000 C 
ENDROOT
BRANCH   1   2
ATOM      2  C   UNL     1       4.906   3.627  18.332  0.00  0.00    +0.000 C 
ATOM      3  O   UNL     1       5.497   3.765  19.414  0.00  0.00    +0.000 OA
ATOM      4  N   UNL     1       5.465   4.107  17.176  0.00  0.00    +0.000 N 
ATOM      5  C   UNL     1       6.808   4.670  17.195  0.00  0.00    +0.000 C 
ATOM      6  C   UNL     1       7.132   4.992  15.744  0.00  0.00    +0.000 C 
ATOM      7  C   UNL     1       5.762   5.302  15.169  0.00  0.00    +0.000 C 
ATOM      8  F   UNL     1       5.410   6.563  15.545  0.00  0.00    +0.000 F 
ATOM      9  C   UNL     1       4.845   4.300  15.869  0.00  0.00    +0.000 C 
ENDBRANCH   1   2
BRANCH   1  10
ATOM     10  N   UNL     1       3.958   1.391  18.607  0.00  0.00    +0.000 NA
ATOM     11  H   UNL     1       3.327   0.780  18.077  0.00  0.00    +0.000 HD
ATOM     12  H   UNL     1       3.673   1.217  19.574  0.00  0.00    +0.000 HD
ENDBRANCH   1  10
BRANCH   1  14
ATOM     13  C   UNL     1       1.074   2.740  18.838  0.00  0.00    +0.000 C 
ATOM     14  C   UNL     1       2.444   3.352  19.193  0.00  0.00    +0.000 C 
BRANCH  14  15
ATOM     15  C   UNL     1       2.303   4.886  19.269  0.00  0.00    +0.000 A 
ATOM     16  C   UNL     1       1.976   5.480  20.506  0.00  0.00    +0.000 A 
ATOM     17  C   UNL     1       1.726   6.854  20.612  0.00  0.00    +0.000 A 
ATOM     18  C   UNL     1       1.823   7.662  19.486  0.00  0.00    +0.000 A 
ATOM     19 CL   UNL     1       1.475   9.344  19.601  0.00  0.00    +0.000 Cl
ATOM     20  C   UNL     1       2.191   7.112  18.265  0.00  0.00    +0.000 A 
ATOM     21  C   UNL     1       2.433   5.738  18.161  0.00  0.00    +0.000 A 
ENDBRANCH  14  15
ENDBRANCH   1  14
TORSDOF 4
ENDMDL
MODEL 7
REMARK VINA RESULT:      -6.9      1.972      2.442
REMARK  Name = 
REMARK  5 active torsions:
REMARK  status: ('A' for Active; 'I' for Inactive)
REMARK    1  A    between atoms: C_1  and  C_2
REMARK    2  A    between atoms: C_2  and  C_3
REMARK    3  A    between atoms: C_2  and  C_10
REMARK    4  A    between atoms: C_10  and  N_11
REMARK    5  A    between atoms: C_10  and  C_12
REMARK                            x       y       z     vdW  Elec       q    Type
REMARK                         _______ _______ _______ _____ _____    ______ ____
ROOT
ATOM      1  C   UNL     1       6.577   4.900  16.058  0.00  0.00    +0.000 C 
ENDROOT
BRANCH   1   2
ATOM      2  C   UNL     1       7.084   4.944  14.582  0.00  0.00    +0.000 C 
ATOM      3  O   UNL     1       8.063   5.647  14.291  0.00  0.00    +0.000 OA
ATOM      4  N   UNL     1       6.516   4.129  13.636  0.00  0.00    +0.000 N 
ATOM      5  C   UNL     1       7.134   3.994  12.325  0.00  0.00    +0.000 C 
ATOM      6  C   UNL     1       6.306   2.948  11.594  0.00  0.00    +0.000 C 
ATOM      7  C   UNL     1       4.930   3.141  12.203  0.00  0.00    +0.000 C 
ATOM      8  F   UNL     1       4.355   4.237  11.633  0.00  0.00    +0.000 F 
ATOM      9  C   UNL     1       5.228   3.444  13.671  0.00  0.00    +0.000 C 
ENDBRANCH   1   2
BRANCH   1  10
ATOM     10  N   UNL     1       7.704   4.346  16.869  0.00  0.00    +0.000 NA
ATOM     11  H   UNL     1       8.553   4.435  16.301  0.00  0.00    +0.000 HD
ATOM     12  H   UNL     1       7.577   3.332  16.918  0.00  0.00    +0.000 HD
ENDBRANCH   1  10
BRANCH   1  14
ATOM     13  C   UNL     1       7.203   7.112  17.210  0.00  0.00    +0.000 C 
ATOM     14  C   UNL     1       6.063   6.274  16.598  0.00  0.00    +0.000 C 
BRANCH  14  15
ATOM     15  C   UNL     1       4.887   6.226  17.594  0.00  0.00    +0.000 A 
ATOM     16  C   UNL     1       3.793   7.096  17.399  0.00  0.00    +0.000 A 
ATOM     17  C   UNL     1       2.750   7.176  18.331  0.00  0.00    +0.000 A 
ATOM     18  C   UNL     1       2.771   6.369  19.462  0.00  0.00    +0.000 A 
ATOM     19 CL   UNL     1       1.514   6.495  20.631  0.00  0.00    +0.000 Cl
ATOM     20  C   UNL     1       3.811   5.469  19.655  0.00  0.00    +0.000 A 
ATOM     21  C   UNL     1       4.855   5.396  18.725  0.00  0.00    +0.000 A 
ENDBRANCH  14  15
ENDBRANCH   1  14
TORSDOF 4
ENDMDL
MODEL 8
REMARK VINA RESULT:      -6.9      3.556      6.109
REMARK  Name = 
REMARK  5 active torsions:
REMARK  status: ('A' for Active; 'I' for Inactive)
REMARK    1  A    between atoms: C_1  and  C_2
REMARK    2  A    between atoms: C_2  and  C_3
REMARK    3  A    between atoms: C_2  and  C_10
REMARK    4  A    between atoms: C_10  and  N_11
REMARK    5  A    between atoms: C_10  and  C_12
REMARK                            x       y       z     vdW  Elec       q    Type
REMARK                         _______ _______ _______ _____ _____    ______ ____
ROOT
ATOM      1  C   UNL     1       5.364   5.498  19.314  0.00  0.00    +0.000 C 
ENDROOT
BRANCH   1   2
ATOM      2  C   UNL     1       4.697   4.088  19.381  0.00  0.00    +0.000 C 
ATOM      3  O   UNL     1       5.286   3.107  18.902  0.00  0.00    +0.000 OA
ATOM      4  N   UNL     1       3.516   3.919  20.059  0.00  0.00    +0.000 N 
ATOM      5  C   UNL     1       3.014   2.578  20.324  0.00  0.00    +0.000 C 
ATOM      6  C   UNL     1       1.766   2.775  21.172  0.00  0.00    +0.000 C 
ATOM      7  C   UNL     1       1.257   4.120  20.690  0.00  0.00    +0.000 C 
ATOM      8  F   UNL     1       0.621   3.939  19.497  0.00  0.00    +0.000 F 
ATOM      9  C   UNL     1       2.535   4.923  20.455  0.00  0.00    +0.000 C 
ENDBRANCH   1   2
BRANCH   1  10
ATOM     10  N   UNL     1       6.808   5.291  19.645  0.00  0.00    +0.000 NA
ATOM     11  H   UNL     1       7.293   6.167  19.425  0.00  0.00    +0.000 HD
ATOM     12  H   UNL     1       7.192   4.645  18.950  0.00  0.00    +0.000 HD
ENDBRANCH   1  10
BRANCH   1  14
ATOM     13  C   UNL     1       3.719   6.779  17.807  0.00  0.00    +0.000 C 
ATOM     14  C   UNL     1       5.157   6.239  17.954  0.00  0.00    +0.000 C 
BRANCH  14  15
ATOM     15  C   UNL     1       5.530   5.456  16.679  0.00  0.00    +0.000 A 
ATOM     16  C   UNL     1       6.842   5.565  16.171  0.00  0.00    +0.000 A 
ATOM     17  C   UNL     1       7.206   4.968  14.958  0.00  0.00    +0.000 A 
ATOM     18  C   UNL     1       6.271   4.230  14.243  0.00  0.00    +0.000 A 
ATOM     19 CL   UNL     1       6.701   3.530  12.731  0.00  0.00    +0.000 Cl
ATOM     20  C   UNL     1       4.986   4.065  14.743  0.00  0.00    +0.000 A 
ATOM     21  C   UNL     1       4.623   4.669  15.953  0.00  0.00    +0.000 A 
ENDBRANCH  14  15
ENDBRANCH   1  14
TORSDOF 4
ENDMDL
MODEL 9
REMARK VINA RESULT:      -6.9      3.753      6.397
REMARK  Name = 
REMARK  5 active torsions:
REMARK  status: ('A' for Active; 'I' for Inactive)
REMARK    1  A    between atoms: C_1  and  C_2
REMARK    2  A    between atoms: C_2  and  C_3
REMARK    3  A    between atoms: C_2  and  C_10
REMARK    4  A    between atoms: C_10  and  N_11
REMARK    5  A    between atoms: C_10  and  C_12
REMARK                            x       y       z     vdW  Elec       q    Type
REMARK                         _______ _______ _______ _____ _____    ______ ____
ROOT
ATOM      1  C   UNL     1       4.755   4.846  18.662  0.00  0.00    +0.000 C 
ENDROOT
BRANCH   1   2
ATOM      2  C   UNL     1       4.321   3.618  19.522  0.00  0.00    +0.000 C 
ATOM      3  O   UNL     1       5.157   2.750  19.818  0.00  0.00    +0.000 OA
ATOM      4  N   UNL     1       3.050   3.554  20.034  0.00  0.00    +0.000 N 
ATOM      5  C   UNL     1       2.714   2.539  21.022  0.00  0.00    +0.000 C 
ATOM      6  C   UNL     1       1.279   2.835  21.433  0.00  0.00    +0.000 C 
ATOM      7  C   UNL     1       0.702   3.449  20.172  0.00  0.00    +0.000 C 
ATOM      8  F   UNL     1       0.420   2.446  19.293  0.00  0.00    +0.000 F 
ATOM      9  C   UNL     1       1.857   4.284  19.619  0.00  0.00    +0.000 C 
ENDBRANCH   1   2
BRANCH   1  10
ATOM     10  N   UNL     1       4.595   6.046  19.540  0.00  0.00    +0.000 NA
ATOM     11  H   UNL     1       3.878   5.815  20.235  0.00  0.00    +0.000 HD
ATOM     12  H   UNL     1       4.137   6.774  18.984  0.00  0.00    +0.000 HD
ENDBRANCH   1  10
BRANCH   1  14
ATOM     13  C   UNL     1       7.109   5.876  18.529  0.00  0.00    +0.000 C 
ATOM     14  C   UNL     1       6.193   4.728  18.059  0.00  0.00    +0.000 C 
BRANCH  14  15
ATOM     15  C   UNL     1       6.289   4.606  16.525  0.00  0.00    +0.000 A 
ATOM     16  C   UNL     1       5.279   3.908  15.831  0.00  0.00    +0.000 A 
ATOM     17  C   UNL     1       5.371   3.670  14.454  0.00  0.00    +0.000 A 
ATOM     18  C   UNL     1       6.463   4.149  13.742  0.00  0.00    +0.000 A 
ATOM     19 CL   UNL     1       6.603   3.822  12.058  0.00  0.00    +0.000 Cl
ATOM     20  C   UNL     1       7.449   4.882  14.390  0.00  0.00    +0.000 A 
ATOM     21  C   UNL     1       7.358   5.112  15.768  0.00  0.00    +0.000 A 
ENDBRANCH  14  15
ENDBRANCH   1  14
TORSDOF 4
ENDMDL
