MODEL 1
REMARK VINA RESULT:      -8.2      0.000      0.000
REMARK  Name = 
REMARK  12 active torsions:
REMARK  status: ('A' for Active; 'I' for Inactive)
REMARK    1  A    between atoms: C_1  and  O_2
REMARK    2  A    between atoms: O_2  and  C_3
REMARK    3  A    between atoms: C_3  and  C_5
REMARK    4  A    between atoms: C_8  and  C_9
REMARK    5  A    between atoms: C_9  and  O_10
REMARK    6  A    between atoms: O_10  and  C_11
REMARK    7  A    between atoms: C_14  and  N_15
REMARK    8  A    between atoms: C_16  and  C_18
REMARK    9  A    between atoms: C_18  and  C_19
REMARK   10  A    between atoms: C_18  and  C_20
REMARK   11  A    between atoms: C_18  and  O_21
REMARK   12  A    between atoms: O_21  and  C_22
REMARK                            x       y       z     vdW  Elec       q    Type
REMARK                         _______ _______ _______ _____ _____    ______ ____
ROOT
ATOM      1  C   UNL     1       1.051   9.392  19.729  0.00  0.00    +0.000 A 
ATOM      2  C   UNL     1       1.053   8.453  20.755  0.00  0.00    +0.000 A 
ATOM      3  C   UNL     1       1.729   7.247  20.601  0.00  0.00    +0.000 A 
ATOM      4  C   UNL     1       2.365   6.928  19.402  0.00  0.00    +0.000 A 
ATOM      5  C   UNL     1       2.354   7.868  18.365  0.00  0.00    +0.000 A 
ATOM      6  C   UNL     1       1.687   9.090  18.525  0.00  0.00    +0.000 A 
ENDROOT
BRANCH   4   7
ATOM      7  N   UNL     1       3.033   5.701  19.196  0.00  0.00    +0.000 N 
ATOM      8  C   UNL     1       2.585   4.667  18.386  0.00  0.00    +0.000 C 
ATOM      9  O   UNL     1       1.645   4.784  17.596  0.00  0.00    +0.000 OA
ATOM     10  H   UNL     1       3.961   5.624  19.592  0.00  0.00    +0.000 HD
BRANCH   8  11
ATOM     11  C   UNL     1       3.366   3.316  18.484  0.00  0.00    +0.000 C 
ATOM     12  C   UNL     1       3.892   3.110  19.915  0.00  0.00    +0.000 C 
ATOM     13  C   UNL     1       2.327   2.248  18.074  0.00  0.00    +0.000 C 
BRANCH  11  14
ATOM     14  O   UNL     1       4.436   3.458  17.530  0.00  0.00    +0.000 OA
BRANCH  14  15
ATOM     15  C   UNL     1       5.325   4.496  17.571  0.00  0.00    +0.000 A 
ATOM     16  C   UNL     1       6.383   4.652  18.465  0.00  0.00    +0.000 A 
ATOM     17  C   UNL     1       7.200   5.782  18.439  0.00  0.00    +0.000 A 
ATOM     18  C   UNL     1       6.970   6.775  17.498  0.00  0.00    +0.000 A 
ATOM     19 CL   UNL     1       7.967   8.175  17.485  0.00  0.00    +0.000 Cl
ATOM     20  C   UNL     1       5.935   6.633  16.578  0.00  0.00    +0.000 A 
ATOM     21  C   UNL     1       5.118   5.497  16.617  0.00  0.00    +0.000 A 
ENDBRANCH  14  15
ENDBRANCH  11  14
ENDBRANCH   8  11
ENDBRANCH   4   7
BRANCH   1  22
ATOM     22  O   UNL     1       0.471  10.629  19.821  0.00  0.00    +0.000 OA
BRANCH  22  23
ATOM     23  C   UNL     1       0.780  11.323  21.030  0.00  0.00    +0.000 C 
BRANCH  23  27
ATOM     24  C   UNL     1      -2.890  12.738  22.816  0.00  0.00    +0.000 A 
ATOM     25  C   UNL     1      -2.328  13.412  21.722  0.00  0.00    +0.000 A 
ATOM     26  C   UNL     1      -1.140  12.961  21.145  0.00  0.00    +0.000 A 
ATOM     27  C   UNL     1      -0.498  11.824  21.653  0.00  0.00    +0.000 A 
ATOM     28  C   UNL     1      -1.057  11.152  22.749  0.00  0.00    +0.000 A 
ATOM     29  C   UNL     1      -2.245  11.604  23.327  0.00  0.00    +0.000 A 
BRANCH  24  30
ATOM     30  C   UNL     1      -4.158  13.257  23.398  0.00  0.00    +0.000 C 
ATOM     31  O   UNL     1      -4.244  14.318  24.009  0.00  0.00    +0.000 OA
BRANCH  30  33
ATOM     32  C   UNL     1      -6.087  12.855  22.149  0.00  0.00    +0.000 C 
ATOM     33  O   UNL     1      -5.181  12.403  23.155  0.00  0.00    +0.000 OA
ENDBRANCH  30  33
ENDBRANCH  24  30
ENDBRANCH  23  27
ENDBRANCH  22  23
ENDBRANCH   1  22
TORSDOF 9
ENDMDL
MODEL 2
REMARK VINA RESULT:      -8.2      2.285      2.817
REMARK  Name = 
REMARK  12 active torsions:
REMARK  status: ('A' for Active; 'I' for Inactive)
REMARK    1  A    between atoms: C_1  and  O_2
REMARK    2  A    between atoms: O_2  and  C_3
REMARK    3  A    between atoms: C_3  and  C_5
REMARK    4  A    between atoms: C_8  and  C_9
REMARK    5  A    between atoms: C_9  and  O_10
REMARK    6  A    between atoms: O_10  and  C_11
REMARK    7  A    between atoms: C_14  and  N_15
REMARK    8  A    between atoms: C_16  and  C_18
REMARK    9  A    between atoms: C_18  and  C_19
REMARK   10  A    between atoms: C_18  and  C_20
REMARK   11  A    between atoms: C_18  and  O_21
REMARK   12  A    between atoms: O_21  and  C_22
REMARK                            x       y       z     vdW  Elec       q    Type
REMARK                         _______ _______ _______ _____ _____    ______ ____
ROOT
ATOM      1  C   UNL     1       0.995   9.218  19.925  0.00  0.00    +0.000 A 
ATOM      2  C   UNL     1       0.989   8.221  20.894  0.00  0.00    +0.000 A 
ATOM      3  C   UNL     1       1.692   7.038  20.688  0.00  0.00    +0.000 A 
ATOM      4  C   UNL     1       2.366   6.803  19.489  0.00  0.00    +0.000 A 
ATOM      5  C   UNL     1       2.363   7.802  18.510  0.00  0.00    +0.000 A 
ATOM      6  C   UNL     1       1.668   8.999  18.722  0.00  0.00    +0.000 A 
ENDROOT
BRANCH   4   7
ATOM      7  N   UNL     1       3.063   5.602  19.230  0.00  0.00    +0.000 N 
ATOM      8  C   UNL     1       2.626   4.581  18.397  0.00  0.00    +0.000 C 
ATOM      9  O   UNL     1       1.665   4.696  17.632  0.00  0.00    +0.000 OA
ATOM     10  H   UNL     1       4.001   5.540  19.603  0.00  0.00    +0.000 HD
BRANCH   8  11
ATOM     11  C   UNL     1       3.446   3.251  18.435  0.00  0.00    +0.000 C 
ATOM     12  C   UNL     1       3.976   2.995  19.857  0.00  0.00    +0.000 C 
ATOM     13  C   UNL     1       2.440   2.173  17.974  0.00  0.00    +0.000 C 
BRANCH  11  14
ATOM     14  O   UNL     1       4.513   3.468  17.492  0.00  0.00    +0.000 OA
BRANCH  14  15
ATOM     15  C   UNL     1       5.246   4.622  17.462  0.00  0.00    +0.000 A 
ATOM     16  C   UNL     1       5.023   5.729  16.646  0.00  0.00    +0.000 A 
ATOM     17  C   UNL     1       5.870   6.837  16.671  0.00  0.00    +0.000 A 
ATOM     18  C   UNL     1       6.958   6.851  17.533  0.00  0.00    +0.000 A 
ATOM     19 CL   UNL     1       8.010   8.211  17.544  0.00  0.00    +0.000 Cl
ATOM     20  C   UNL     1       7.190   5.769  18.375  0.00  0.00    +0.000 A 
ATOM     21  C   UNL     1       6.336   4.660  18.338  0.00  0.00    +0.000 A 
ENDBRANCH  14  15
ENDBRANCH  11  14
ENDBRANCH   8  11
ENDBRANCH   4   7
BRANCH   1  22
ATOM     22  O   UNL     1       0.388  10.437  20.073  0.00  0.00    +0.000 OA
BRANCH  22  23
ATOM     23  C   UNL     1       0.053  11.068  18.836  0.00  0.00    +0.000 C 
BRANCH  23  27
ATOM     24  C   UNL     1      -4.241  11.414  18.519  0.00  0.00    +0.000 A 
ATOM     25  C   UNL     1      -3.520  12.282  19.352  0.00  0.00    +0.000 A 
ATOM     26  C   UNL     1      -2.133  12.170  19.461  0.00  0.00    +0.000 A 
ATOM     27  C   UNL     1      -1.446  11.190  18.734  0.00  0.00    +0.000 A 
ATOM     28  C   UNL     1      -2.167  10.319  17.904  0.00  0.00    +0.000 A 
ATOM     29  C   UNL     1      -3.555  10.430  17.796  0.00  0.00    +0.000 A 
BRANCH  24  30
ATOM     30  C   UNL     1      -5.719  11.571  18.436  0.00  0.00    +0.000 C 
ATOM     31  O   UNL     1      -6.486  10.663  18.132  0.00  0.00    +0.000 OA
BRANCH  30  33
ATOM     32  C   UNL     1      -7.284  13.269  18.103  0.00  0.00    +0.000 C 
ATOM     33  O   UNL     1      -6.084  12.839  18.744  0.00  0.00    +0.000 OA
ENDBRANCH  30  33
ENDBRANCH  24  30
ENDBRANCH  23  27
ENDBRANCH  22  23
ENDBRANCH   1  22
TORSDOF 9
ENDMDL
MODEL 3
REMARK VINA RESULT:      -8.1      0.537      1.332
REMARK  Name = 
REMARK  12 active torsions:
REMARK  status: ('A' for Active; 'I' for Inactive)
REMARK    1  A    between atoms: C_1  and  O_2
REMARK    2  A    between atoms: O_2  and  C_3
REMARK    3  A    between atoms: C_3  and  C_5
REMARK    4  A    between atoms: C_8  and  C_9
REMARK    5  A    between atoms: C_9  and  O_10
REMARK    6  A    between atoms: O_10  and  C_11
REMARK    7  A    between atoms: C_14  and  N_15
REMARK    8  A    between atoms: C_16  and  C_18
REMARK    9  A    between atoms: C_18  and  C_19
REMARK   10  A    between atoms: C_18  and  C_20
REMARK   11  A    between atoms: C_18  and  O_21
REMARK   12  A    between atoms: O_21  and  C_22
REMARK                            x       y       z     vdW  Elec       q    Type
REMARK                         _______ _______ _______ _____ _____    ______ ____
ROOT
ATOM      1  C   UNL     1       1.100   9.420  19.565  0.00  0.00    +0.000 A 
ATOM      2  C   UNL     1       1.097   8.523  20.628  0.00  0.00    +0.000 A 
ATOM      3  C   UNL     1       1.760   7.304  20.520  0.00  0.00    +0.000 A 
ATOM      4  C   UNL     1       2.388   6.931  19.332  0.00  0.00    +0.000 A 
ATOM      5  C   UNL     1       2.381   7.828  18.258  0.00  0.00    +0.000 A 
ATOM      6  C   UNL     1       1.727   9.062  18.371  0.00  0.00    +0.000 A 
ENDROOT
BRANCH   4   7
ATOM      7  N   UNL     1       3.042   5.690  19.174  0.00  0.00    +0.000 N 
ATOM      8  C   UNL     1       2.579   4.627  18.410  0.00  0.00    +0.000 C 
ATOM      9  O   UNL     1       1.635   4.721  17.621  0.00  0.00    +0.000 OA
ATOM     10  H   UNL     1       3.972   5.621  19.566  0.00  0.00    +0.000 HD
BRANCH   8  11
ATOM     11  C   UNL     1       3.347   3.274  18.559  0.00  0.00    +0.000 C 
ATOM     12  C   UNL     1       3.792   3.075  20.018  0.00  0.00    +0.000 C 
ATOM     13  C   UNL     1       2.329   2.208  18.098  0.00  0.00    +0.000 C 
BRANCH  11  14
ATOM     14  O   UNL     1       4.470   3.406  17.666  0.00  0.00    +0.000 OA
BRANCH  14  15
ATOM     15  C   UNL     1       5.212   4.552  17.580  0.00  0.00    +0.000 A 
ATOM     16  C   UNL     1       5.056   5.576  16.648  0.00  0.00    +0.000 A 
ATOM     17  C   UNL     1       5.907   6.681  16.629  0.00  0.00    +0.000 A 
ATOM     18  C   UNL     1       6.930   6.777  17.563  0.00  0.00    +0.000 A 
ATOM     19 CL   UNL     1       7.988   8.132  17.521  0.00  0.00    +0.000 Cl
ATOM     20  C   UNL     1       7.092   5.780  18.519  0.00  0.00    +0.000 A 
ATOM     21  C   UNL     1       6.235   4.673  18.525  0.00  0.00    +0.000 A 
ENDBRANCH  14  15
ENDBRANCH  11  14
ENDBRANCH   8  11
ENDBRANCH   4   7
BRANCH   1  22
ATOM     22  O   UNL     1       0.533  10.665  19.609  0.00  0.00    +0.000 OA
BRANCH  22  23
ATOM     23  C   UNL     1       0.835  11.395  20.799  0.00  0.00    +0.000 C 
BRANCH  23  27
ATOM     24  C   UNL     1      -2.841  12.364  22.851  0.00  0.00    +0.000 A 
ATOM     25  C   UNL     1      -1.999  11.357  23.343  0.00  0.00    +0.000 A 
ATOM     26  C   UNL     1      -0.813  11.037  22.680  0.00  0.00    +0.000 A 
ATOM     27  C   UNL     1      -0.449  11.725  21.516  0.00  0.00    +0.000 A 
ATOM     28  C   UNL     1      -1.293  12.730  21.021  0.00  0.00    +0.000 A 
ATOM     29  C   UNL     1      -2.480  13.049  21.684  0.00  0.00    +0.000 A 
BRANCH  24  30
ATOM     30  C   UNL     1      -4.095  12.669  23.591  0.00  0.00    +0.000 C 
ATOM     31  O   UNL     1      -4.333  12.267  24.726  0.00  0.00    +0.000 OA
BRANCH  30  33
ATOM     32  C   UNL     1      -6.001  14.016  23.575  0.00  0.00    +0.000 C 
ATOM     33  O   UNL     1      -4.917  13.444  22.843  0.00  0.00    +0.000 OA
ENDBRANCH  30  33
ENDBRANCH  24  30
ENDBRANCH  23  27
ENDBRANCH  22  23
ENDBRANCH   1  22
TORSDOF 9
ENDMDL
MODEL 4
REMARK VINA RESULT:      -8.1      0.671      1.214
REMARK  Name = 
REMARK  12 active torsions:
REMARK  status: ('A' for Active; 'I' for Inactive)
REMARK    1  A    between atoms: C_1  and  O_2
REMARK    2  A    between atoms: O_2  and  C_3
REMARK    3  A    between atoms: C_3  and  C_5
REMARK    4  A    between atoms: C_8  and  C_9
REMARK    5  A    between atoms: C_9  and  O_10
REMARK    6  A    between atoms: O_10  and  C_11
REMARK    7  A    between atoms: C_14  and  N_15
REMARK    8  A    between atoms: C_16  and  C_18
REMARK    9  A    between atoms: C_18  and  C_19
REMARK   10  A    between atoms: C_18  and  C_20
REMARK   11  A    between atoms: C_18  and  O_21
REMARK   12  A    between atoms: O_21  and  C_22
REMARK                            x       y       z     vdW  Elec       q    Type
REMARK                         _______ _______ _______ _____ _____    ______ ____
ROOT
ATOM      1  C   UNL     1       1.205   9.760  19.322  0.00  0.00    +0.000 A 
ATOM      2  C   UNL     1       1.136   8.915  20.425  0.00  0.00    +0.000 A 
ATOM      3  C   UNL     1       1.713   7.649  20.375  0.00  0.00    +0.000 A 
ATOM      4  C   UNL     1       2.316   7.180  19.207  0.00  0.00    +0.000 A 
ATOM      5  C   UNL     1       2.374   8.027  18.095  0.00  0.00    +0.000 A 
ATOM      6  C   UNL     1       1.808   9.307  18.149  0.00  0.00    +0.000 A 
ENDROOT
BRANCH   4   7
ATOM      7  N   UNL     1       2.882   5.891  19.108  0.00  0.00    +0.000 N 
ATOM      8  C   UNL     1       2.340   4.826  18.400  0.00  0.00    +0.000 C 
ATOM      9  O   UNL     1       1.399   4.946  17.613  0.00  0.00    +0.000 OA
ATOM     10  H   UNL     1       3.807   5.777  19.499  0.00  0.00    +0.000 HD
BRANCH   8  11
ATOM     11  C   UNL     1       3.015   3.432  18.613  0.00  0.00    +0.000 C 
ATOM     12  C   UNL     1       3.467   3.279  20.075  0.00  0.00    +0.000 C 
ATOM     13  C   UNL     1       1.918   2.417  18.222  0.00  0.00    +0.000 C 
BRANCH  11  14
ATOM     14  O   UNL     1       4.130   3.438  17.701  0.00  0.00    +0.000 OA
BRANCH  14  15
ATOM     15  C   UNL     1       5.056   4.444  17.675  0.00  0.00    +0.000 A 
ATOM     16  C   UNL     1       6.068   4.668  18.607  0.00  0.00    +0.000 A 
ATOM     17  C   UNL     1       6.929   5.760  18.501  0.00  0.00    +0.000 A 
ATOM     18  C   UNL     1       6.789   6.645  17.442  0.00  0.00    +0.000 A 
ATOM     19 CL   UNL     1       7.840   8.001  17.329  0.00  0.00    +0.000 Cl
ATOM     20  C   UNL     1       5.802   6.432  16.485  0.00  0.00    +0.000 A 
ATOM     21  C   UNL     1       4.940   5.335  16.604  0.00  0.00    +0.000 A 
ENDBRANCH  14  15
ENDBRANCH  11  14
ENDBRANCH   8  11
ENDBRANCH   4   7
BRANCH   1  22
ATOM     22  O   UNL     1       0.726  11.043  19.308  0.00  0.00    +0.000 OA
BRANCH  22  23
ATOM     23  C   UNL     1       0.835  11.714  20.564  0.00  0.00    +0.000 C 
BRANCH  23  27
ATOM     24  C   UNL     1      -3.126  12.465  22.117  0.00  0.00    +0.000 A 
ATOM     25  C   UNL     1      -2.095  12.056  22.974  0.00  0.00    +0.000 A 
ATOM     26  C   UNL     1      -0.815  11.807  22.476  0.00  0.00    +0.000 A 
ATOM     27  C   UNL     1      -0.547  11.969  21.110  0.00  0.00    +0.000 A 
ATOM     28  C   UNL     1      -1.579  12.375  20.252  0.00  0.00    +0.000 A 
ATOM     29  C   UNL     1      -2.859  12.623  20.751  0.00  0.00    +0.000 A 
BRANCH  24  30
ATOM     30  C   UNL     1      -4.474  12.717  22.694  0.00  0.00    +0.000 C 
ATOM     31  O   UNL     1      -5.522  12.382  22.152  0.00  0.00    +0.000 OA
BRANCH  30  33
ATOM     32  C   UNL     1      -4.801  14.717  23.852  0.00  0.00    +0.000 C 
ATOM     33  O   UNL     1      -4.373  13.355  23.885  0.00  0.00    +0.000 OA
ENDBRANCH  30  33
ENDBRANCH  24  30
ENDBRANCH  23  27
ENDBRANCH  22  23
ENDBRANCH   1  22
TORSDOF 9
ENDMDL
MODEL 5
REMARK VINA RESULT:      -8.1      2.397      2.982
REMARK  Name = 
REMARK  12 active torsions:
REMARK  status: ('A' for Active; 'I' for Inactive)
REMARK    1  A    between atoms: C_1  and  O_2
REMARK    2  A    between atoms: O_2  and  C_3
REMARK    3  A    between atoms: C_3  and  C_5
REMARK    4  A    between atoms: C_8  and  C_9
REMARK    5  A    between atoms: C_9  and  O_10
REMARK    6  A    between atoms: O_10  and  C_11
REMARK    7  A    between atoms: C_14  and  N_15
REMARK    8  A    between atoms: C_16  and  C_18
REMARK    9  A    between atoms: C_18  and  C_19
REMARK   10  A    between atoms: C_18  and  C_20
REMARK   11  A    between atoms: C_18  and  O_21
REMARK   12  A    between atoms: O_21  and  C_22
REMARK                            x       y       z     vdW  Elec       q    Type
REMARK                         _______ _______ _______ _____ _____    ______ ____
ROOT
ATOM      1  C   UNL     1       1.247   9.779  19.079  0.00  0.00    +0.000 A 
ATOM      2  C   UNL     1       1.880   9.203  17.982  0.00  0.00    +0.000 A 
ATOM      3  C   UNL     1       2.334   7.889  18.045  0.00  0.00    +0.000 A 
ATOM      4  C   UNL     1       2.221   7.145  19.219  0.00  0.00    +0.000 A 
ATOM      5  C   UNL     1       1.595   7.729  20.326  0.00  0.00    +0.000 A 
ATOM      6  C   UNL     1       1.122   9.046  20.259  0.00  0.00    +0.000 A 
ENDROOT
BRANCH   4   7
ATOM      7  N   UNL     1       2.700   5.822  19.331  0.00  0.00    +0.000 N 
ATOM      8  C   UNL     1       2.233   4.733  18.606  0.00  0.00    +0.000 C 
ATOM      9  O   UNL     1       1.479   4.839  17.636  0.00  0.00    +0.000 OA
ATOM     10  H   UNL     1       3.518   5.689  19.910  0.00  0.00    +0.000 HD
BRANCH   8  11
ATOM     11  C   UNL     1       2.748   3.326  19.052  0.00  0.00    +0.000 C 
ATOM     12  C   UNL     1       2.957   3.297  20.576  0.00  0.00    +0.000 C 
ATOM     13  C   UNL     1       1.643   2.354  18.585  0.00  0.00    +0.000 C 
BRANCH  11  14
ATOM     14  O   UNL     1       3.986   3.160  18.335  0.00  0.00    +0.000 OA
BRANCH  14  15
ATOM     15  C   UNL     1       4.812   4.209  18.039  0.00  0.00    +0.000 A 
ATOM     16  C   UNL     1       4.865   4.914  16.838  0.00  0.00    +0.000 A 
ATOM     17  C   UNL     1       5.787   5.942  16.635  0.00  0.00    +0.000 A 
ATOM     18  C   UNL     1       6.669   6.285  17.649  0.00  0.00    +0.000 A 
ATOM     19 CL   UNL     1       7.815   7.538  17.385  0.00  0.00    +0.000 Cl
ATOM     20  C   UNL     1       6.621   5.613  18.867  0.00  0.00    +0.000 A 
ATOM     21  C   UNL     1       5.695   4.580  19.058  0.00  0.00    +0.000 A 
ENDBRANCH  14  15
ENDBRANCH  11  14
ENDBRANCH   8  11
ENDBRANCH   4   7
BRANCH   1  22
ATOM     22  O   UNL     1       0.710  11.038  19.082  0.00  0.00    +0.000 OA
BRANCH  22  23
ATOM     23  C   UNL     1      -0.257  11.251  20.111  0.00  0.00    +0.000 C 
BRANCH  23  27
ATOM     24  C   UNL     1      -4.158  11.662  18.301  0.00  0.00    +0.000 A 
ATOM     25  C   UNL     1      -3.815  12.426  19.425  0.00  0.00    +0.000 A 
ATOM     26  C   UNL     1      -2.557  12.292  20.017  0.00  0.00    +0.000 A 
ATOM     27  C   UNL     1      -1.621  11.394  19.486  0.00  0.00    +0.000 A 
ATOM     28  C   UNL     1      -1.966  10.628  18.364  0.00  0.00    +0.000 A 
ATOM     29  C   UNL     1      -3.224  10.761  17.773  0.00  0.00    +0.000 A 
BRANCH  24  30
ATOM     30  C   UNL     1      -5.511  11.839  17.705  0.00  0.00    +0.000 C 
ATOM     31  O   UNL     1      -5.838  12.810  17.031  0.00  0.00    +0.000 OA
BRANCH  30  33
ATOM     32  C   UNL     1      -7.042  10.949  19.224  0.00  0.00    +0.000 C 
ATOM     33  O   UNL     1      -6.309  10.787  18.010  0.00  0.00    +0.000 OA
ENDBRANCH  30  33
ENDBRANCH  24  30
ENDBRANCH  23  27
ENDBRANCH  22  23
ENDBRANCH   1  22
TORSDOF 9
ENDMDL
MODEL 6
REMARK VINA RESULT:      -8.0      3.341      9.919
REMARK  Name = 
REMARK  12 active torsions:
REMARK  status: ('A' for Active; 'I' for Inactive)
REMARK    1  A    between atoms: C_1  and  O_2
REMARK    2  A    between atoms: O_2  and  C_3
REMARK    3  A    between atoms: C_3  and  C_5
REMARK    4  A    between atoms: C_8  and  C_9
REMARK    5  A    between atoms: C_9  and  O_10
REMARK    6  A    between atoms: O_10  and  C_11
REMARK    7  A    between atoms: C_14  and  N_15
REMARK    8  A    between atoms: C_16  and  C_18
REMARK    9  A    between atoms: C_18  and  C_19
REMARK   10  A    between atoms: C_18  and  C_20
REMARK   11  A    between atoms: C_18  and  O_21
REMARK   12  A    between atoms: O_21  and  C_22
REMARK                            x       y       z     vdW  Elec       q    Type
REMARK                         _______ _______ _______ _____ _____    ______ ____
ROOT
ATOM      1  C   UNL     1       1.738   4.075  18.770  0.00  0.00    +0.000 A 
ATOM      2  C   UNL     1       1.869   5.304  18.130  0.00  0.00    +0.000 A 
ATOM      3  C   UNL     1       1.868   6.483  18.869  0.00  0.00    +0.000 A 
ATOM      4  C   UNL     1       1.676   6.465  20.251  0.00  0.00    +0.000 A 
ATOM      5  C   UNL     1       1.532   5.230  20.893  0.00  0.00    +0.000 A 
ATOM      6  C   UNL     1       1.549   4.041  20.152  0.00  0.00    +0.000 A 
ENDROOT
BRANCH   4   7
ATOM      7  N   UNL     1       1.635   7.642  21.029  0.00  0.00    +0.000 N 
ATOM      8  C   UNL     1       0.481   8.272  21.477  0.00  0.00    +0.000 C 
ATOM      9  O   UNL     1      -0.639   7.760  21.410  0.00  0.00    +0.000 OA
ATOM     10  H   UNL     1       2.523   7.984  21.370  0.00  0.00    +0.000 HD
BRANCH   8  11
ATOM     11  C   UNL     1       0.664   9.681  22.128  0.00  0.00    +0.000 C 
ATOM     12  C   UNL     1      -0.568  10.036  22.978  0.00  0.00    +0.000 C 
ATOM     13  C   UNL     1       1.949   9.543  22.974  0.00  0.00    +0.000 C 
BRANCH  11  14
ATOM     14  O   UNL     1       0.820  10.570  21.005  0.00  0.00    +0.000 OA
BRANCH  14  15
ATOM     15  C   UNL     1      -0.209  10.872  20.156  0.00  0.00    +0.000 A 
ATOM     16  C   UNL     1      -1.237  11.784  20.386  0.00  0.00    +0.000 A 
ATOM     17  C   UNL     1      -2.263  11.975  19.461  0.00  0.00    +0.000 A 
ATOM     18  C   UNL     1      -2.264  11.253  18.276  0.00  0.00    +0.000 A 
ATOM     19 CL   UNL     1      -3.543  11.479  17.150  0.00  0.00    +0.000 Cl
ATOM     20  C   UNL     1      -1.236  10.354  18.012  0.00  0.00    +0.000 A 
ATOM     21  C   UNL     1      -0.214  10.166  18.950  0.00  0.00    +0.000 A 
ENDBRANCH  14  15
ENDBRANCH  11  14
ENDBRANCH   8  11
ENDBRANCH   4   7
BRANCH   1  22
ATOM     22  O   UNL     1       1.797   2.867  18.131  0.00  0.00    +0.000 OA
BRANCH  22  23
ATOM     23  C   UNL     1       3.051   2.198  18.276  0.00  0.00    +0.000 C 
BRANCH  23  27
ATOM     24  C   UNL     1       6.221   4.866  17.053  0.00  0.00    +0.000 A 
ATOM     25  C   UNL     1       5.377   4.283  16.097  0.00  0.00    +0.000 A 
ATOM     26  C   UNL     1       4.355   3.416  16.487  0.00  0.00    +0.000 A 
ATOM     27  C   UNL     1       4.159   3.124  17.843  0.00  0.00    +0.000 A 
ATOM     28  C   UNL     1       5.005   3.703  18.799  0.00  0.00    +0.000 A 
ATOM     29  C   UNL     1       6.028   4.570  18.409  0.00  0.00    +0.000 A 
BRANCH  24  30
ATOM     30  C   UNL     1       7.297   5.783  16.589  0.00  0.00    +0.000 C 
ATOM     31  O   UNL     1       7.631   5.903  15.415  0.00  0.00    +0.000 OA
BRANCH  30  33
ATOM     32  C   UNL     1       7.616   7.863  17.598  0.00  0.00    +0.000 C 
ATOM     33  O   UNL     1       7.839   6.453  17.635  0.00  0.00    +0.000 OA
ENDBRANCH  30  33
ENDBRANCH  24  30
ENDBRANCH  23  27
ENDBRANCH  22  23
ENDBRANCH   1  22
TORSDOF 9
ENDMDL
MODEL 7
REMARK VINA RESULT:      -8.0      3.626     11.247
REMARK  Name = 
REMARK  12 active torsions:
REMARK  status: ('A' for Active; 'I' for Inactive)
REMARK    1  A    between atoms: C_1  and  O_2
REMARK    2  A    between atoms: O_2  and  C_3
REMARK    3  A    between atoms: C_3  and  C_5
REMARK    4  A    between atoms: C_8  and  C_9
REMARK    5  A    between atoms: C_9  and  O_10
REMARK    6  A    between atoms: O_10  and  C_11
REMARK    7  A    between atoms: C_14  and  N_15
REMARK    8  A    between atoms: C_16  and  C_18
REMARK    9  A    between atoms: C_18  and  C_19
REMARK   10  A    between atoms: C_18  and  C_20
REMARK   11  A    between atoms: C_18  and  O_21
REMARK   12  A    between atoms: O_21  and  C_22
REMARK                            x       y       z     vdW  Elec       q    Type
REMARK                         _______ _______ _______ _____ _____    ______ ____
ROOT
ATOM      1  C   UNL     1       2.370   6.676  19.293  0.00  0.00    +0.000 A 
ATOM      2  C   UNL     1       2.293   7.554  18.217  0.00  0.00    +0.000 A 
ATOM      3  C   UNL     1       1.799   8.842  18.397  0.00  0.00    +0.000 A 
ATOM      4  C   UNL     1       1.318   9.260  19.638  0.00  0.00    +0.000 A 
ATOM      5  C   UNL     1       1.386   8.373  20.718  0.00  0.00    +0.000 A 
ATOM      6  C   UNL     1       1.897   7.081  20.542  0.00  0.00    +0.000 A 
ENDROOT
BRANCH   4   7
ATOM      7  N   UNL     1       0.780  10.548  19.851  0.00  0.00    +0.000 N 
ATOM      8  C   UNL     1      -0.508  10.947  19.518  0.00  0.00    +0.000 C 
ATOM      9  O   UNL     1      -1.394  10.160  19.176  0.00  0.00    +0.000 OA
ATOM     10  H   UNL     1       1.350  11.189  20.386  0.00  0.00    +0.000 HD
BRANCH   8  11
ATOM     11  C   UNL     1      -0.816  12.475  19.635  0.00  0.00    +0.000 C 
ATOM     12  C   UNL     1      -0.310  13.216  18.385  0.00  0.00    +0.000 C 
ATOM     13  C   UNL     1      -2.353  12.541  19.782  0.00  0.00    +0.000 C 
BRANCH  11  14
ATOM     14  O   UNL     1      -0.117  12.885  20.826  0.00  0.00    +0.000 OA
BRANCH  14  15
ATOM     15  C   UNL     1      -0.664  13.739  21.744  0.00  0.00    +0.000 A 
ATOM     16  C   UNL     1      -0.732  15.128  21.651  0.00  0.00    +0.000 A 
ATOM     17  C   UNL     1      -1.275  15.902  22.677  0.00  0.00    +0.000 A 
ATOM     18  C   UNL     1      -1.772  15.284  23.816  0.00  0.00    +0.000 A 
ATOM     19 CL   UNL     1      -2.420  16.245  25.085  0.00  0.00    +0.000 Cl
ATOM     20  C   UNL     1      -1.737  13.897  23.923  0.00  0.00    +0.000 A 
ATOM     21  C   UNL     1      -1.186  13.130  22.890  0.00  0.00    +0.000 A 
ENDBRANCH  14  15
ENDBRANCH  11  14
ENDBRANCH   8  11
ENDBRANCH   4   7
BRANCH   1  22
ATOM     22  O   UNL     1       2.904   5.418  19.221  0.00  0.00    +0.000 OA
BRANCH  22  23
ATOM     23  C   UNL     1       4.320   5.380  19.405  0.00  0.00    +0.000 C 
BRANCH  23  27
ATOM     24  C   UNL     1       6.242   4.913  15.566  0.00  0.00    +0.000 A 
ATOM     25  C   UNL     1       5.056   4.223  15.852  0.00  0.00    +0.000 A 
ATOM     26  C   UNL     1       4.435   4.367  17.094  0.00  0.00    +0.000 A 
ATOM     27  C   UNL     1       4.990   5.209  18.066  0.00  0.00    +0.000 A 
ATOM     28  C   UNL     1       6.178   5.896  17.780  0.00  0.00    +0.000 A 
ATOM     29  C   UNL     1       6.800   5.751  16.539  0.00  0.00    +0.000 A 
BRANCH  24  30
ATOM     30  C   UNL     1       6.869   4.726  14.228  0.00  0.00    +0.000 C 
ATOM     31  O   UNL     1       7.780   5.427  13.798  0.00  0.00    +0.000 OA
BRANCH  30  33
ATOM     32  C   UNL     1       6.623   3.629  12.184  0.00  0.00    +0.000 C 
ATOM     33  O   UNL     1       6.298   3.687  13.572  0.00  0.00    +0.000 OA
ENDBRANCH  30  33
ENDBRANCH  24  30
ENDBRANCH  23  27
ENDBRANCH  22  23
ENDBRANCH   1  22
TORSDOF 9
ENDMDL
MODEL 8
REMARK VINA RESULT:      -8.0      3.017      4.424
REMARK  Name = 
REMARK  12 active torsions:
REMARK  status: ('A' for Active; 'I' for Inactive)
REMARK    1  A    between atoms: C_1  and  O_2
REMARK    2  A    between atoms: O_2  and  C_3
REMARK    3  A    between atoms: C_3  and  C_5
REMARK    4  A    between atoms: C_8  and  C_9
REMARK    5  A    between atoms: C_9  and  O_10
REMARK    6  A    between atoms: O_10  and  C_11
REMARK    7  A    between atoms: C_14  and  N_15
REMARK    8  A    between atoms: C_16  and  C_18
REMARK    9  A    between atoms: C_18  and  C_19
REMARK   10  A    between atoms: C_18  and  C_20
REMARK   11  A    between atoms: C_18  and  O_21
REMARK   12  A    between atoms: O_21  and  C_22
REMARK                            x       y       z     vdW  Elec       q    Type
REMARK                         _______ _______ _______ _____ _____    ______ ____
ROOT
ATOM      1  C   UNL     1       1.050   9.474  19.874  0.00  0.00    +0.000 A 
ATOM      2  C   UNL     1       1.077   8.527  20.892  0.00  0.00    +0.000 A 
ATOM      3  C   UNL     1       1.730   7.312  20.704  0.00  0.00    +0.000 A 
ATOM      4  C   UNL     1       2.316   6.995  19.479  0.00  0.00    +0.000 A 
ATOM      5  C   UNL     1       2.280   7.943  18.451  0.00  0.00    +0.000 A 
ATOM      6  C   UNL     1       1.636   9.173  18.644  0.00  0.00    +0.000 A 
ENDROOT
BRANCH   4   7
ATOM      7  N   UNL     1       2.959   5.761  19.239  0.00  0.00    +0.000 N 
ATOM      8  C   UNL     1       2.490   4.758  18.401  0.00  0.00    +0.000 C 
ATOM      9  O   UNL     1       1.553   4.917  17.614  0.00  0.00    +0.000 OA
ATOM     10  H   UNL     1       3.885   5.654  19.632  0.00  0.00    +0.000 HD
BRANCH   8  11
ATOM     11  C   UNL     1       3.242   3.390  18.461  0.00  0.00    +0.000 C 
ATOM     12  C   UNL     1       3.776   3.140  19.882  0.00  0.00    +0.000 C 
ATOM     13  C   UNL     1       2.178   2.354  18.036  0.00  0.00    +0.000 C 
BRANCH  11  14
ATOM     14  O   UNL     1       4.307   3.531  17.501  0.00  0.00    +0.000 OA
BRANCH  14  15
ATOM     15  C   UNL     1       5.219   4.549  17.557  0.00  0.00    +0.000 A 
ATOM     16  C   UNL     1       6.271   4.675  18.461  0.00  0.00    +0.000 A 
ATOM     17  C   UNL     1       7.113   5.787  18.451  0.00  0.00    +0.000 A 
ATOM     18  C   UNL     1       6.913   6.792  17.516  0.00  0.00    +0.000 A 
ATOM     19 CL   UNL     1       7.941   8.170  17.522  0.00  0.00    +0.000 Cl
ATOM     20  C   UNL     1       5.884   6.680  16.586  0.00  0.00    +0.000 A 
ATOM     21  C   UNL     1       5.042   5.562  16.609  0.00  0.00    +0.000 A 
ENDBRANCH  14  15
ENDBRANCH  11  14
ENDBRANCH   8  11
ENDBRANCH   4   7
BRANCH   1  22
ATOM     22  O   UNL     1       0.491  10.717  19.996  0.00  0.00    +0.000 OA
BRANCH  22  23
ATOM     23  C   UNL     1       0.190  11.341  18.747  0.00  0.00    +0.000 C 
BRANCH  23  27
ATOM     24  C   UNL     1       2.263  15.125  18.534  0.00  0.00    +0.000 A 
ATOM     25  C   UNL     1       0.899  15.081  18.856  0.00  0.00    +0.000 A 
ATOM     26  C   UNL     1       0.224  13.861  18.921  0.00  0.00    +0.000 A 
ATOM     27  C   UNL     1       0.907  12.664  18.669  0.00  0.00    +0.000 A 
ATOM     28  C   UNL     1       2.270  12.708  18.343  0.00  0.00    +0.000 A 
ATOM     29  C   UNL     1       2.945  13.929  18.277  0.00  0.00    +0.000 A 
BRANCH  24  30
ATOM     30  C   UNL     1       2.939  16.450  18.476  0.00  0.00    +0.000 C 
ATOM     31  O   UNL     1       2.341  17.517  18.381  0.00  0.00    +0.000 OA
BRANCH  30  33
ATOM     32  C   UNL     1       4.871  16.885  19.709  0.00  0.00    +0.000 C 
ATOM     33  O   UNL     1       4.284  16.304  18.545  0.00  0.00    +0.000 OA
ENDBRANCH  30  33
ENDBRANCH  24  30
ENDBRANCH  23  27
ENDBRANCH  22  23
ENDBRANCH   1  22
TORSDOF 9
ENDMDL
MODEL 9
REMARK VINA RESULT:      -7.9      3.009      4.311
REMARK  Name = 
REMARK  12 active torsions:
REMARK  status: ('A' for Active; 'I' for Inactive)
REMARK    1  A    between atoms: C_1  and  O_2
REMARK    2  A    between atoms: O_2  and  C_3
REMARK    3  A    between atoms: C_3  and  C_5
REMARK    4  A    between atoms: C_8  and  C_9
REMARK    5  A    between atoms: C_9  and  O_10
REMARK    6  A    between atoms: O_10  and  C_11
REMARK    7  A    between atoms: C_14  and  N_15
REMARK    8  A    between atoms: C_16  and  C_18
REMARK    9  A    between atoms: C_18  and  C_19
REMARK   10  A    between atoms: C_18  and  C_20
REMARK   11  A    between atoms: C_18  and  O_21
REMARK   12  A    between atoms: O_21  and  C_22
REMARK                            x       y       z     vdW  Elec       q    Type
REMARK                         _______ _______ _______ _____ _____    ______ ____
ROOT
ATOM      1  C   UNL     1       1.072   9.358  19.813  0.00  0.00    +0.000 A 
ATOM      2  C   UNL     1       1.108   8.411  20.831  0.00  0.00    +0.000 A 
ATOM      3  C   UNL     1       1.775   7.204  20.643  0.00  0.00    +0.000 A 
ATOM      4  C   UNL     1       2.367   6.893  19.419  0.00  0.00    +0.000 A 
ATOM      5  C   UNL     1       2.320   7.841  18.391  0.00  0.00    +0.000 A 
ATOM      6  C   UNL     1       1.663   9.063  18.584  0.00  0.00    +0.000 A 
ENDROOT
BRANCH   4   7
ATOM      7  N   UNL     1       3.023   5.666  19.180  0.00  0.00    +0.000 N 
ATOM      8  C   UNL     1       2.560   4.654  18.351  0.00  0.00    +0.000 C 
ATOM      9  O   UNL     1       1.614   4.796  17.572  0.00  0.00    +0.000 OA
ATOM     10  H   UNL     1       3.953   5.573  19.565  0.00  0.00    +0.000 HD
BRANCH   8  11
ATOM     11  C   UNL     1       3.331   3.295  18.411  0.00  0.00    +0.000 C 
ATOM     12  C   UNL     1       3.846   3.041  19.838  0.00  0.00    +0.000 C 
ATOM     13  C   UNL     1       2.288   2.248  17.961  0.00  0.00    +0.000 C 
BRANCH  11  14
ATOM     14  O   UNL     1       4.409   3.460  17.470  0.00  0.00    +0.000 OA
BRANCH  14  15
ATOM     15  C   UNL     1       5.286   4.507  17.530  0.00  0.00    +0.000 A 
ATOM     16  C   UNL     1       6.342   4.658  18.427  0.00  0.00    +0.000 A 
ATOM     17  C   UNL     1       7.146   5.798  18.423  0.00  0.00    +0.000 A 
ATOM     18  C   UNL     1       6.903   6.807  17.502  0.00  0.00    +0.000 A 
ATOM     19 CL   UNL     1       7.885   8.218  17.517  0.00  0.00    +0.000 Cl
ATOM     20  C   UNL     1       5.871   6.671  16.580  0.00  0.00    +0.000 A 
ATOM     21  C   UNL     1       5.067   5.525  16.596  0.00  0.00    +0.000 A 
ENDBRANCH  14  15
ENDBRANCH  11  14
ENDBRANCH   8  11
ENDBRANCH   4   7
BRANCH   1  22
ATOM     22  O   UNL     1       0.499  10.595  19.935  0.00  0.00    +0.000 OA
BRANCH  22  23
ATOM     23  C   UNL     1       0.348  11.286  18.694  0.00  0.00    +0.000 C 
BRANCH  23  27
ATOM     24  C   UNL     1       2.388  15.086  18.915  0.00  0.00    +0.000 A 
ATOM     25  C   UNL     1       3.018  13.977  18.333  0.00  0.00    +0.000 A 
ATOM     26  C   UNL     1       2.364  12.746  18.264  0.00  0.00    +0.000 A 
ATOM     27  C   UNL     1       1.066  12.608  18.774  0.00  0.00    +0.000 A 
ATOM     28  C   UNL     1       0.438  13.716  19.359  0.00  0.00    +0.000 A 
ATOM     29  C   UNL     1       1.092  14.948  19.429  0.00  0.00    +0.000 A 
BRANCH  24  30
ATOM     30  C   UNL     1       3.126  16.379  18.966  0.00  0.00    +0.000 C 
ATOM     31  O   UNL     1       4.144  16.557  19.626  0.00  0.00    +0.000 OA
BRANCH  30  33
ATOM     32  C   UNL     1       2.755  17.136  16.790  0.00  0.00    +0.000 C 
ATOM     33  O   UNL     1       2.519  17.307  18.187  0.00  0.00    +0.000 OA
ENDBRANCH  30  33
ENDBRANCH  24  30
ENDBRANCH  23  27
ENDBRANCH  22  23
ENDBRANCH   1  22
TORSDOF 9
ENDMDL
