MODEL 1
REMARK VINA RESULT:      -6.8      0.000      0.000
REMARK  Name = 
REMARK  12 active torsions:
REMARK  status: ('A' for Active; 'I' for Inactive)
REMARK    1  A    between atoms: C_2  and  C_3
REMARK    2  A    between atoms: C_3  and  C_4
REMARK    3  A    between atoms: C_4  and  C_5
REMARK    4  A    between atoms: C_5  and  C_6
REMARK    5  A    between atoms: C_6  and  C_7
REMARK    6  A    between atoms: C_7  and  C_8
REMARK    7  A    between atoms: C_8  and  C_9
REMARK    8  A    between atoms: C_9  and  C_10
REMARK    9  A    between atoms: C_10  and  C_11
REMARK   10  A    between atoms: C_11  and  C_12
REMARK   11  A    between atoms: C_12  and  C_13
REMARK   12  A    between atoms: C_15  and  C_16
REMARK                            x       y       z     vdW  Elec       q    Type
REMARK                         _______ _______ _______ _____ _____    ______ ____
ROOT
ATOM      1  C   UNL     1       5.976   4.465  17.824  0.00  0.00    +0.000 C 
ENDROOT
BRANCH   1   2
ATOM      2  C   UNL     1       5.607   4.389  16.352  0.00  0.00    +0.000 C 
BRANCH   2   3
ATOM      3  C   UNL     1       6.359   5.454  15.573  0.00  0.00    +0.000 C 
BRANCH   3   4
ATOM      4  C   UNL     1       7.008   4.838  14.346  0.00  0.00    +0.000 C 
BRANCH   4   5
ATOM      5  C   UNL     1       6.020   3.929  13.637  0.00  0.00    +0.000 C 
BRANCH   5   6
ATOM      6  C   UNL     1       6.551   3.548  12.266  0.00  0.00    +0.000 C 
BRANCH   6   7
ATOM      7  C   UNL     1       5.509   2.739  11.510  0.00  0.00    +0.000 C 
BRANCH   7   8
ATOM      8  C   UNL     1       4.140   3.386  11.652  0.00  0.00    +0.000 C 
BRANCH   8  10
ATOM      9  C   UNL     1       3.086   4.133   9.534  0.00  0.00    +0.000 C 
ATOM     10  C   UNL     1       3.308   3.165  10.426  0.00  0.00    +0.000 C 
ENDBRANCH   8  10
ENDBRANCH   7   8
ENDBRANCH   6   7
ENDBRANCH   5   6
ENDBRANCH   4   5
ENDBRANCH   3   4
ENDBRANCH   2   3
ENDBRANCH   1   2
BRANCH   1  11
ATOM     11  C   UNL     1       4.755   4.842  18.646  0.00  0.00    +0.000 C 
BRANCH  11  12
ATOM     12  C   UNL     1       3.491   4.776  17.796  0.00  0.00    +0.000 C 
BRANCH  12  13
ATOM     13  C   UNL     1       2.446   4.026  18.525  0.00  0.00    +0.000 C 
ATOM     14  C   UNL     1       1.769   4.395  19.608  0.00  0.00    +0.000 C 
ATOM     15  C   UNL     1       0.925   3.289  20.098  0.00  0.00    +0.000 C 
ATOM     16  C   UNL     1       1.390   2.794  21.459  0.00  0.00    +0.000 C 
ATOM     17  O   UNL     1       1.106   2.257  19.126  0.00  0.00    +0.000 OA
ATOM     18  C   UNL     1       2.012   2.663  18.187  0.00  0.00    +0.000 C 
ATOM     19  O   UNL     1       2.397   2.010  17.238  0.00  0.00    +0.000 OA
ENDBRANCH  12  13
ENDBRANCH  11  12
ENDBRANCH   1  11
TORSDOF 11
ENDMDL
MODEL 2
REMARK VINA RESULT:      -6.4      3.069      6.990
REMARK  Name = 
REMARK  12 active torsions:
REMARK  status: ('A' for Active; 'I' for Inactive)
REMARK    1  A    between atoms: C_2  and  C_3
REMARK    2  A    between atoms: C_3  and  C_4
REMARK    3  A    between atoms: C_4  and  C_5
REMARK    4  A    between atoms: C_5  and  C_6
REMARK    5  A    between atoms: C_6  and  C_7
REMARK    6  A    between atoms: C_7  and  C_8
REMARK    7  A    between atoms: C_8  and  C_9
REMARK    8  A    between atoms: C_9  and  C_10
REMARK    9  A    between atoms: C_10  and  C_11
REMARK   10  A    between atoms: C_11  and  C_12
REMARK   11  A    between atoms: C_12  and  C_13
REMARK   12  A    between atoms: C_15  and  C_16
REMARK                            x       y       z     vdW  Elec       q    Type
REMARK                         _______ _______ _______ _____ _____    ______ ____
ROOT
ATOM      1  C   UNL     1       2.618   6.170  18.291  0.00  0.00    +0.000 C 
ENDROOT
BRANCH   1   2
ATOM      2  C   UNL     1       2.601   6.967  19.585  0.00  0.00    +0.000 C 
BRANCH   2   3
ATOM      3  C   UNL     1       1.602   6.361  20.555  0.00  0.00    +0.000 C 
BRANCH   3   4
ATOM      4  C   UNL     1       1.947   4.905  20.812  0.00  0.00    +0.000 C 
BRANCH   4   5
ATOM      5  C   UNL     1       0.820   4.011  20.327  0.00  0.00    +0.000 C 
BRANCH   5   6
ATOM      6  C   UNL     1       1.362   2.641  19.958  0.00  0.00    +0.000 C 
BRANCH   6   7
ATOM      7  C   UNL     1       1.184   2.395  18.467  0.00  0.00    +0.000 C 
BRANCH   7   8
ATOM      8  C   UNL     1       2.529   2.478  17.760  0.00  0.00    +0.000 C 
BRANCH   8  10
ATOM      9  C   UNL     1       4.424   1.575  19.082  0.00  0.00    +0.000 C 
ATOM     10  C   UNL     1       3.650   2.609  18.745  0.00  0.00    +0.000 C 
ENDBRANCH   8  10
ENDBRANCH   7   8
ENDBRANCH   6   7
ENDBRANCH   5   6
ENDBRANCH   4   5
ENDBRANCH   3   4
ENDBRANCH   2   3
ENDBRANCH   1   2
BRANCH   1  11
ATOM     11  C   UNL     1       3.860   6.513  17.485  0.00  0.00    +0.000 C 
BRANCH  11  12
ATOM     12  C   UNL     1       5.084   5.806  18.056  0.00  0.00    +0.000 C 
BRANCH  12  13
ATOM     13  C   UNL     1       6.005   5.451  16.955  0.00  0.00    +0.000 C 
ATOM     14  C   UNL     1       5.850   5.653  15.651  0.00  0.00    +0.000 C 
ATOM     15  C   UNL     1       6.939   5.013  14.890  0.00  0.00    +0.000 C 
ATOM     16  C   UNL     1       6.422   3.873  14.027  0.00  0.00    +0.000 C 
ATOM     17  O   UNL     1       7.809   4.493  15.898  0.00  0.00    +0.000 OA
ATOM     18  C   UNL     1       7.273   4.729  17.133  0.00  0.00    +0.000 C 
ATOM     19  O   UNL     1       7.759   4.398  18.196  0.00  0.00    +0.000 OA
ENDBRANCH  12  13
ENDBRANCH  11  12
ENDBRANCH   1  11
TORSDOF 11
ENDMDL
MODEL 3
REMARK VINA RESULT:      -6.4      3.325      6.724
REMARK  Name = 
REMARK  12 active torsions:
REMARK  status: ('A' for Active; 'I' for Inactive)
REMARK    1  A    between atoms: C_2  and  C_3
REMARK    2  A    between atoms: C_3  and  C_4
REMARK    3  A    between atoms: C_4  and  C_5
REMARK    4  A    between atoms: C_5  and  C_6
REMARK    5  A    between atoms: C_6  and  C_7
REMARK    6  A    between atoms: C_7  and  C_8
REMARK    7  A    between atoms: C_8  and  C_9
REMARK    8  A    between atoms: C_9  and  C_10
REMARK    9  A    between atoms: C_10  and  C_11
REMARK   10  A    between atoms: C_11  and  C_12
REMARK   11  A    between atoms: C_12  and  C_13
REMARK   12  A    between atoms: C_15  and  C_16
REMARK                            x       y       z     vdW  Elec       q    Type
REMARK                         _______ _______ _______ _____ _____    ______ ____
ROOT
ATOM      1  C   UNL     1       5.279   3.897  18.886  0.00  0.00    +0.000 C 
ENDROOT
BRANCH   1   2
ATOM      2  C   UNL     1       4.542   3.164  19.994  0.00  0.00    +0.000 C 
BRANCH   2   3
ATOM      3  C   UNL     1       4.077   1.807  19.499  0.00  0.00    +0.000 C 
BRANCH   3   4
ATOM      4  C   UNL     1       3.850   1.851  17.998  0.00  0.00    +0.000 C 
BRANCH   4   5
ATOM      5  C   UNL     1       2.383   2.108  17.703  0.00  0.00    +0.000 C 
BRANCH   5   6
ATOM      6  C   UNL     1       2.209   3.480  17.076  0.00  0.00    +0.000 C 
BRANCH   6   7
ATOM      7  C   UNL     1       1.642   4.452  18.100  0.00  0.00    +0.000 C 
BRANCH   7   8
ATOM      8  C   UNL     1       0.926   3.689  19.205  0.00  0.00    +0.000 C 
BRANCH   8  10
ATOM      9  C   UNL     1       1.749   5.515  20.668  0.00  0.00    +0.000 C 
ATOM     10  C   UNL     1       1.172   4.318  20.542  0.00  0.00    +0.000 C 
ENDBRANCH   8  10
ENDBRANCH   7   8
ENDBRANCH   6   7
ENDBRANCH   5   6
ENDBRANCH   4   5
ENDBRANCH   3   4
ENDBRANCH   2   3
ENDBRANCH   1   2
BRANCH   1  11
ATOM     11  C   UNL     1       5.411   5.370  19.235  0.00  0.00    +0.000 C 
BRANCH  11  12
ATOM     12  C   UNL     1       4.842   6.241  18.121  0.00  0.00    +0.000 C 
BRANCH  12  13
ATOM     13  C   UNL     1       5.567   5.968  16.862  0.00  0.00    +0.000 C 
ATOM     14  C   UNL     1       5.078   5.530  15.706  0.00  0.00    +0.000 C 
ATOM     15  C   UNL     1       6.167   5.250  14.751  0.00  0.00    +0.000 C 
ATOM     16  C   UNL     1       6.258   3.766  14.430  0.00  0.00    +0.000 C 
ATOM     17  O   UNL     1       7.349   5.663  15.440  0.00  0.00    +0.000 OA
ATOM     18  C   UNL     1       7.023   6.084  16.700  0.00  0.00    +0.000 C 
ATOM     19  O   UNL     1       7.803   6.481  17.542  0.00  0.00    +0.000 OA
ENDBRANCH  12  13
ENDBRANCH  11  12
ENDBRANCH   1  11
TORSDOF 11
ENDMDL
MODEL 4
REMARK VINA RESULT:      -6.3      3.819      7.055
REMARK  Name = 
REMARK  12 active torsions:
REMARK  status: ('A' for Active; 'I' for Inactive)
REMARK    1  A    between atoms: C_2  and  C_3
REMARK    2  A    between atoms: C_3  and  C_4
REMARK    3  A    between atoms: C_4  and  C_5
REMARK    4  A    between atoms: C_5  and  C_6
REMARK    5  A    between atoms: C_6  and  C_7
REMARK    6  A    between atoms: C_7  and  C_8
REMARK    7  A    between atoms: C_8  and  C_9
REMARK    8  A    between atoms: C_9  and  C_10
REMARK    9  A    between atoms: C_10  and  C_11
REMARK   10  A    between atoms: C_11  and  C_12
REMARK   11  A    between atoms: C_12  and  C_13
REMARK   12  A    between atoms: C_15  and  C_16
REMARK                            x       y       z     vdW  Elec       q    Type
REMARK                         _______ _______ _______ _____ _____    ______ ____
ROOT
ATOM      1  C   UNL     1       2.534   2.774  17.647  0.00  0.00    +0.000 C 
ENDROOT
BRANCH   1   2
ATOM      2  C   UNL     1       1.526   3.860  17.986  0.00  0.00    +0.000 C 
BRANCH   2   3
ATOM      3  C   UNL     1       1.061   3.706  19.424  0.00  0.00    +0.000 C 
BRANCH   3   4
ATOM      4  C   UNL     1       2.233   3.892  20.371  0.00  0.00    +0.000 C 
BRANCH   4   5
ATOM      5  C   UNL     1       2.741   5.321  20.293  0.00  0.00    +0.000 C 
BRANCH   5   6
ATOM      6  C   UNL     1       1.641   6.288  20.695  0.00  0.00    +0.000 C 
BRANCH   6   7
ATOM      7  C   UNL     1       1.901   7.656  20.082  0.00  0.00    +0.000 C 
BRANCH   7   8
ATOM      8  C   UNL     1       2.526   7.501  18.703  0.00  0.00    +0.000 C 
BRANCH   8  10
ATOM      9  C   UNL     1       1.556   9.726  18.188  0.00  0.00    +0.000 C 
ATOM     10  C   UNL     1       2.018   8.549  17.760  0.00  0.00    +0.000 C 
ENDBRANCH   8  10
ENDBRANCH   7   8
ENDBRANCH   6   7
ENDBRANCH   5   6
ENDBRANCH   4   5
ENDBRANCH   3   4
ENDBRANCH   2   3
ENDBRANCH   1   2
BRANCH   1  11
ATOM     11  C   UNL     1       3.585   3.320  16.696  0.00  0.00    +0.000 C 
BRANCH  11  12
ATOM     12  C   UNL     1       3.916   4.770  17.033  0.00  0.00    +0.000 C 
BRANCH  12  13
ATOM     13  C   UNL     1       5.380   4.920  17.176  0.00  0.00    +0.000 C 
ATOM     14  C   UNL     1       6.148   4.588  18.210  0.00  0.00    +0.000 C 
ATOM     15  C   UNL     1       7.534   5.045  17.999  0.00  0.00    +0.000 C 
ATOM     16  C   UNL     1       7.924   6.121  19.000  0.00  0.00    +0.000 C 
ATOM     17  O   UNL     1       7.521   5.599  16.682  0.00  0.00    +0.000 OA
ATOM     18  C   UNL     1       6.253   5.548  16.174  0.00  0.00    +0.000 C 
ATOM     19  O   UNL     1       5.905   5.955  15.084  0.00  0.00    +0.000 OA
ENDBRANCH  12  13
ENDBRANCH  11  12
ENDBRANCH   1  11
TORSDOF 11
ENDMDL
MODEL 5
REMARK VINA RESULT:      -6.3      1.020      1.252
REMARK  Name = 
REMARK  12 active torsions:
REMARK  status: ('A' for Active; 'I' for Inactive)
REMARK    1  A    between atoms: C_2  and  C_3
REMARK    2  A    between atoms: C_3  and  C_4
REMARK    3  A    between atoms: C_4  and  C_5
REMARK    4  A    between atoms: C_5  and  C_6
REMARK    5  A    between atoms: C_6  and  C_7
REMARK    6  A    between atoms: C_7  and  C_8
REMARK    7  A    between atoms: C_8  and  C_9
REMARK    8  A    between atoms: C_9  and  C_10
REMARK    9  A    between atoms: C_10  and  C_11
REMARK   10  A    between atoms: C_11  and  C_12
REMARK   11  A    between atoms: C_12  and  C_13
REMARK   12  A    between atoms: C_15  and  C_16
REMARK                            x       y       z     vdW  Elec       q    Type
REMARK                         _______ _______ _______ _____ _____    ______ ____
ROOT
ATOM      1  C   UNL     1       4.249   5.233  16.940  0.00  0.00    +0.000 C 
ENDROOT
BRANCH   1   2
ATOM      2  C   UNL     1       5.097   6.296  16.263  0.00  0.00    +0.000 C 
BRANCH   2   3
ATOM      3  C   UNL     1       6.563   6.077  16.592  0.00  0.00    +0.000 C 
BRANCH   3   4
ATOM      4  C   UNL     1       7.131   4.970  15.722  0.00  0.00    +0.000 C 
BRANCH   4   5
ATOM      5  C   UNL     1       6.384   4.913  14.402  0.00  0.00    +0.000 C 
BRANCH   5   6
ATOM      6  C   UNL     1       6.169   3.468  13.985  0.00  0.00    +0.000 C 
BRANCH   6   7
ATOM      7  C   UNL     1       6.052   3.374  12.472  0.00  0.00    +0.000 C 
BRANCH   7   8
ATOM      8  C   UNL     1       4.745   4.000  12.008  0.00  0.00    +0.000 C 
BRANCH   8  10
ATOM      9  C   UNL     1       3.187   3.541  10.133  0.00  0.00    +0.000 C 
ATOM     10  C   UNL     1       4.007   3.083  11.081  0.00  0.00    +0.000 C 
ENDBRANCH   8  10
ENDBRANCH   7   8
ENDBRANCH   6   7
ENDBRANCH   5   6
ENDBRANCH   4   5
ENDBRANCH   3   4
ENDBRANCH   2   3
ENDBRANCH   1   2
BRANCH   1  11
ATOM     11  C   UNL     1       3.507   5.834  18.122  0.00  0.00    +0.000 C 
BRANCH  11  12
ATOM     12  C   UNL     1       2.012   5.554  18.019  0.00  0.00    +0.000 C 
BRANCH  12  13
ATOM     13  C   UNL     1       1.669   4.391  18.866  0.00  0.00    +0.000 C 
ATOM     14  C   UNL     1       1.273   4.382  20.135  0.00  0.00    +0.000 C 
ATOM     15  C   UNL     1       1.179   3.001  20.642  0.00  0.00    +0.000 C 
ATOM     16  C   UNL     1       2.207   2.736  21.731  0.00  0.00    +0.000 C 
ATOM     17  O   UNL     1       1.471   2.191  19.502  0.00  0.00    +0.000 OA
ATOM     18  C   UNL     1       1.777   2.990  18.436  0.00  0.00    +0.000 C 
ATOM     19  O   UNL     1       2.087   2.609  17.325  0.00  0.00    +0.000 OA
ENDBRANCH  12  13
ENDBRANCH  11  12
ENDBRANCH   1  11
TORSDOF 11
ENDMDL
MODEL 6
REMARK VINA RESULT:      -6.3      2.925      7.376
REMARK  Name = 
REMARK  12 active torsions:
REMARK  status: ('A' for Active; 'I' for Inactive)
REMARK    1  A    between atoms: C_2  and  C_3
REMARK    2  A    between atoms: C_3  and  C_4
REMARK    3  A    between atoms: C_4  and  C_5
REMARK    4  A    between atoms: C_5  and  C_6
REMARK    5  A    between atoms: C_6  and  C_7
REMARK    6  A    between atoms: C_7  and  C_8
REMARK    7  A    between atoms: C_8  and  C_9
REMARK    8  A    between atoms: C_9  and  C_10
REMARK    9  A    between atoms: C_10  and  C_11
REMARK   10  A    between atoms: C_11  and  C_12
REMARK   11  A    between atoms: C_12  and  C_13
REMARK   12  A    between atoms: C_15  and  C_16
REMARK                            x       y       z     vdW  Elec       q    Type
REMARK                         _______ _______ _______ _____ _____    ______ ____
ROOT
ATOM      1  C   UNL     1       3.105   3.146  17.489  0.00  0.00    +0.000 C 
ENDROOT
BRANCH   1   2
ATOM      2  C   UNL     1       1.799   2.781  18.176  0.00  0.00    +0.000 C 
BRANCH   2   3
ATOM      3  C   UNL     1       2.064   2.388  19.619  0.00  0.00    +0.000 C 
BRANCH   3   4
ATOM      4  C   UNL     1       1.264   3.277  20.554  0.00  0.00    +0.000 C 
BRANCH   4   5
ATOM      5  C   UNL     1       2.038   4.549  20.850  0.00  0.00    +0.000 C 
BRANCH   5   6
ATOM      6  C   UNL     1       1.177   5.765  20.554  0.00  0.00    +0.000 C 
BRANCH   6   7
ATOM      7  C   UNL     1       2.026   7.026  20.592  0.00  0.00    +0.000 C 
BRANCH   7   8
ATOM      8  C   UNL     1       2.361   7.474  19.177  0.00  0.00    +0.000 C 
BRANCH   8  10
ATOM      9  C   UNL     1       1.964   9.510  17.816  0.00  0.00    +0.000 C 
ATOM     10  C   UNL     1       1.575   8.691  18.796  0.00  0.00    +0.000 C 
ENDBRANCH   8  10
ENDBRANCH   7   8
ENDBRANCH   6   7
ENDBRANCH   5   6
ENDBRANCH   4   5
ENDBRANCH   3   4
ENDBRANCH   2   3
ENDBRANCH   1   2
BRANCH   1  11
ATOM     11  C   UNL     1       3.344   4.643  17.589  0.00  0.00    +0.000 C 
BRANCH  11  12
ATOM     12  C   UNL     1       4.763   4.931  18.066  0.00  0.00    +0.000 C 
BRANCH  12  13
ATOM     13  C   UNL     1       5.673   4.987  16.901  0.00  0.00    +0.000 C 
ATOM     14  C   UNL     1       5.378   5.271  15.636  0.00  0.00    +0.000 C 
ATOM     15  C   UNL     1       6.553   5.070  14.769  0.00  0.00    +0.000 C 
ATOM     16  C   UNL     1       6.335   3.926  13.790  0.00  0.00    +0.000 C 
ATOM     17  O   UNL     1       7.602   4.729  15.677  0.00  0.00    +0.000 OA
ATOM     18  C   UNL     1       7.105   4.661  16.949  0.00  0.00    +0.000 C 
ATOM     19  O   UNL     1       7.736   4.377  17.947  0.00  0.00    +0.000 OA
ENDBRANCH  12  13
ENDBRANCH  11  12
ENDBRANCH   1  11
TORSDOF 11
ENDMDL
MODEL 7
REMARK VINA RESULT:      -6.3      1.403      2.125
REMARK  Name = 
REMARK  12 active torsions:
REMARK  status: ('A' for Active; 'I' for Inactive)
REMARK    1  A    between atoms: C_2  and  C_3
REMARK    2  A    between atoms: C_3  and  C_4
REMARK    3  A    between atoms: C_4  and  C_5
REMARK    4  A    between atoms: C_5  and  C_6
REMARK    5  A    between atoms: C_6  and  C_7
REMARK    6  A    between atoms: C_7  and  C_8
REMARK    7  A    between atoms: C_8  and  C_9
REMARK    8  A    between atoms: C_9  and  C_10
REMARK    9  A    between atoms: C_10  and  C_11
REMARK   10  A    between atoms: C_11  and  C_12
REMARK   11  A    between atoms: C_12  and  C_13
REMARK   12  A    between atoms: C_15  and  C_16
REMARK                            x       y       z     vdW  Elec       q    Type
REMARK                         _______ _______ _______ _____ _____    ______ ____
ROOT
ATOM      1  C   UNL     1       4.685   5.840  17.943  0.00  0.00    +0.000 C 
ENDROOT
BRANCH   1   2
ATOM      2  C   UNL     1       5.883   5.493  18.812  0.00  0.00    +0.000 C 
BRANCH   2   3
ATOM      3  C   UNL     1       7.170   5.791  18.063  0.00  0.00    +0.000 C 
BRANCH   3   4
ATOM      4  C   UNL     1       6.885   5.937  16.578  0.00  0.00    +0.000 C 
BRANCH   4   5
ATOM      5  C   UNL     1       6.907   4.574  15.910  0.00  0.00    +0.000 C 
BRANCH   5   6
ATOM      6  C   UNL     1       6.965   4.734  14.400  0.00  0.00    +0.000 C 
BRANCH   6   7
ATOM      7  C   UNL     1       6.003   3.761  13.736  0.00  0.00    +0.000 C 
BRANCH   7   8
ATOM      8  C   UNL     1       6.397   3.548  12.282  0.00  0.00    +0.000 C 
BRANCH   8  10
ATOM      9  C   UNL     1       6.225   1.337  11.168  0.00  0.00    +0.000 C 
ATOM     10  C   UNL     1       5.624   2.417  11.674  0.00  0.00    +0.000 C 
ENDBRANCH   8  10
ENDBRANCH   7   8
ENDBRANCH   6   7
ENDBRANCH   5   6
ENDBRANCH   4   5
ENDBRANCH   3   4
ENDBRANCH   2   3
ENDBRANCH   1   2
BRANCH   1  11
ATOM     11  C   UNL     1       3.500   6.215  18.817  0.00  0.00    +0.000 C 
BRANCH  11  12
ATOM     12  C   UNL     1       2.199   5.702  18.211  0.00  0.00    +0.000 C 
BRANCH  12  13
ATOM     13  C   UNL     1       1.755   4.497  18.945  0.00  0.00    +0.000 C 
ATOM     14  C   UNL     1       1.273   4.415  20.181  0.00  0.00    +0.000 C 
ATOM     15  C   UNL     1       1.092   3.006  20.578  0.00  0.00    +0.000 C 
ATOM     16  C   UNL     1       2.033   2.620  21.709  0.00  0.00    +0.000 C 
ATOM     17  O   UNL     1       1.431   2.267  19.402  0.00  0.00    +0.000 OA
ATOM     18  C   UNL     1       1.839   3.127  18.421  0.00  0.00    +0.000 C 
ATOM     19  O   UNL     1       2.210   2.814  17.307  0.00  0.00    +0.000 OA
ENDBRANCH  12  13
ENDBRANCH  11  12
ENDBRANCH   1  11
TORSDOF 11
ENDMDL
MODEL 8
REMARK VINA RESULT:      -6.3      3.155      7.137
REMARK  Name = 
REMARK  12 active torsions:
REMARK  status: ('A' for Active; 'I' for Inactive)
REMARK    1  A    between atoms: C_2  and  C_3
REMARK    2  A    between atoms: C_3  and  C_4
REMARK    3  A    between atoms: C_4  and  C_5
REMARK    4  A    between atoms: C_5  and  C_6
REMARK    5  A    between atoms: C_6  and  C_7
REMARK    6  A    between atoms: C_7  and  C_8
REMARK    7  A    between atoms: C_8  and  C_9
REMARK    8  A    between atoms: C_9  and  C_10
REMARK    9  A    between atoms: C_10  and  C_11
REMARK   10  A    between atoms: C_11  and  C_12
REMARK   11  A    between atoms: C_12  and  C_13
REMARK   12  A    between atoms: C_15  and  C_16
REMARK                            x       y       z     vdW  Elec       q    Type
REMARK                         _______ _______ _______ _____ _____    ______ ____
ROOT
ATOM      1  C   UNL     1       2.422   3.163  17.519  0.00  0.00    +0.000 C 
ENDROOT
BRANCH   1   2
ATOM      2  C   UNL     1       1.475   2.328  18.365  0.00  0.00    +0.000 C 
BRANCH   2   3
ATOM      3  C   UNL     1       0.966   3.147  19.538  0.00  0.00    +0.000 C 
BRANCH   3   4
ATOM      4  C   UNL     1       1.849   2.919  20.752  0.00  0.00    +0.000 C 
BRANCH   4   5
ATOM      5  C   UNL     1       2.255   4.252  21.356  0.00  0.00    +0.000 C 
BRANCH   5   6
ATOM      6  C   UNL     1       1.751   5.392  20.488  0.00  0.00    +0.000 C 
BRANCH   6   7
ATOM      7  C   UNL     1       2.925   6.114  19.845  0.00  0.00    +0.000 C 
BRANCH   7   8
ATOM      8  C   UNL     1       2.508   6.702  18.505  0.00  0.00    +0.000 C 
BRANCH   8  10
ATOM      9  C   UNL     1       2.156   9.035  17.737  0.00  0.00    +0.000 C 
ATOM     10  C   UNL     1       1.980   8.095  18.668  0.00  0.00    +0.000 C 
ENDBRANCH   8  10
ENDBRANCH   7   8
ENDBRANCH   6   7
ENDBRANCH   5   6
ENDBRANCH   4   5
ENDBRANCH   3   4
ENDBRANCH   2   3
ENDBRANCH   1   2
BRANCH   1  11
ATOM     11  C   UNL     1       3.837   2.625  17.639  0.00  0.00    +0.000 C 
BRANCH  11  12
ATOM     12  C   UNL     1       4.793   3.719  18.101  0.00  0.00    +0.000 C 
BRANCH  12  13
ATOM     13  C   UNL     1       5.197   4.543  16.942  0.00  0.00    +0.000 C 
ATOM     14  C   UNL     1       5.059   4.271  15.648  0.00  0.00    +0.000 C 
ATOM     15  C   UNL     1       5.731   5.294  14.825  0.00  0.00    +0.000 C 
ATOM     16  C   UNL     1       6.914   4.711  14.067  0.00  0.00    +0.000 C 
ATOM     17  O   UNL     1       6.199   6.253  15.776  0.00  0.00    +0.000 OA
ATOM     18  C   UNL     1       5.905   5.827  17.041  0.00  0.00    +0.000 C 
ATOM     19  O   UNL     1       6.184   6.407  18.071  0.00  0.00    +0.000 OA
ENDBRANCH  12  13
ENDBRANCH  11  12
ENDBRANCH   1  11
TORSDOF 11
ENDMDL
MODEL 9
REMARK VINA RESULT:      -6.2      3.011      6.835
REMARK  Name = 
REMARK  12 active torsions:
REMARK  status: ('A' for Active; 'I' for Inactive)
REMARK    1  A    between atoms: C_2  and  C_3
REMARK    2  A    between atoms: C_3  and  C_4
REMARK    3  A    between atoms: C_4  and  C_5
REMARK    4  A    between atoms: C_5  and  C_6
REMARK    5  A    between atoms: C_6  and  C_7
REMARK    6  A    between atoms: C_7  and  C_8
REMARK    7  A    between atoms: C_8  and  C_9
REMARK    8  A    between atoms: C_9  and  C_10
REMARK    9  A    between atoms: C_10  and  C_11
REMARK   10  A    between atoms: C_11  and  C_12
REMARK   11  A    between atoms: C_12  and  C_13
REMARK   12  A    between atoms: C_15  and  C_16
REMARK                            x       y       z     vdW  Elec       q    Type
REMARK                         _______ _______ _______ _____ _____    ______ ____
ROOT
ATOM      1  C   UNL     1       3.655   6.056  18.832  0.00  0.00    +0.000 C 
ENDROOT
BRANCH   1   2
ATOM      2  C   UNL     1       4.810   5.219  19.357  0.00  0.00    +0.000 C 
BRANCH   2   3
ATOM      3  C   UNL     1       4.507   3.743  19.172  0.00  0.00    +0.000 C 
BRANCH   3   4
ATOM      4  C   UNL     1       4.265   3.442  17.703  0.00  0.00    +0.000 C 
BRANCH   4   5
ATOM      5  C   UNL     1       2.774   3.348  17.432  0.00  0.00    +0.000 C 
BRANCH   5   6
ATOM      6  C   UNL     1       2.273   1.949  17.749  0.00  0.00    +0.000 C 
BRANCH   6   7
ATOM      7  C   UNL     1       1.759   1.891  19.179  0.00  0.00    +0.000 C 
BRANCH   7   8
ATOM      8  C   UNL     1       0.785   3.033  19.432  0.00  0.00    +0.000 C 
BRANCH   8  10
ATOM      9  C   UNL     1       1.805   3.207  21.686  0.00  0.00    +0.000 C 
ATOM     10  C   UNL     1       1.143   3.781  20.680  0.00  0.00    +0.000 C 
ENDBRANCH   8  10
ENDBRANCH   7   8
ENDBRANCH   6   7
ENDBRANCH   5   6
ENDBRANCH   4   5
ENDBRANCH   3   4
ENDBRANCH   2   3
ENDBRANCH   1   2
BRANCH   1  11
ATOM     11  C   UNL     1       4.087   6.815  17.589  0.00  0.00    +0.000 C 
BRANCH  11  12
ATOM     12  C   UNL     1       5.604   6.955  17.542  0.00  0.00    +0.000 C 
BRANCH  12  13
ATOM     13  C   UNL     1       6.142   6.120  16.447  0.00  0.00    +0.000 C 
ATOM     14  C   UNL     1       5.726   6.042  15.187  0.00  0.00    +0.000 C 
ATOM     15  C   UNL     1       6.444   4.976  14.464  0.00  0.00    +0.000 C 
ATOM     16  C   UNL     1       5.510   3.843  14.068  0.00  0.00    +0.000 C 
ATOM     17  O   UNL     1       7.401   4.497  15.412  0.00  0.00    +0.000 OA
ATOM     18  C   UNL     1       7.236   5.151  16.601  0.00  0.00    +0.000 C 
ATOM     19  O   UNL     1       7.881   4.962  17.614  0.00  0.00    +0.000 OA
ENDBRANCH  12  13
ENDBRANCH  11  12
ENDBRANCH   1  11
TORSDOF 11
ENDMDL
