MODEL 1
REMARK VINA RESULT:      -7.7      0.000      0.000
REMARK  Name = 
REMARK  9 active torsions:
REMARK  status: ('A' for Active; 'I' for Inactive)
REMARK    1  A    between atoms: C_1  and  C_2
REMARK    2  A    between atoms: C_5  and  C_6
REMARK    3  A    between atoms: C_8  and  S_9
REMARK    4  A    between atoms: S_9  and  C_10
REMARK    5  A    between atoms: C_10  and  C_11
REMARK    6  A    between atoms: N_13  and  C_14
REMARK    7  A    between atoms: C_14  and  C_15
REMARK    8  A    between atoms: C_20  and  C_21
REMARK    9  A    between atoms: C_24  and  C_25
REMARK                            x       y       z     vdW  Elec       q    Type
REMARK                         _______ _______ _______ _____ _____    ______ ____
ROOT
ATOM      1  C   UNL     1       1.919   8.504  18.430  0.00  0.00    +0.000 A 
ATOM      2  N   UNL     1       2.957   8.670  17.629  0.00  0.00    +0.000 NA
ATOM      3  C   UNL     1       3.498   7.420  17.451  0.00  0.00    +0.000 A 
ATOM      4  C   UNL     1       2.851   6.470  18.228  0.00  0.00    +0.000 A 
ATOM      5  N   UNL     1       1.845   7.189  18.830  0.00  0.00    +0.000 N 
ATOM      6  H   UNL     1       1.159   6.816  19.469  0.00  0.00    +0.000 HD
ENDROOT
BRANCH   1  11
ATOM      7  C   UNL     1      -1.852  12.599  20.036  0.00  0.00    +0.000 C 
ATOM      8  C   UNL     1      -0.878  11.528  19.644  0.00  0.00    +0.000 A 
ATOM      9  C   UNL     1       0.152  11.139  20.506  0.00  0.00    +0.000 A 
ATOM     10  C   UNL     1       1.064  10.149  20.120  0.00  0.00    +0.000 A 
ATOM     11  C   UNL     1       0.967   9.531  18.863  0.00  0.00    +0.000 A 
ATOM     12  C   UNL     1      -0.082   9.910  18.015  0.00  0.00    +0.000 A 
ATOM     13  C   UNL     1      -0.990  10.903  18.397  0.00  0.00    +0.000 A 
ENDBRANCH   1  11
BRANCH   4  14
ATOM     14  C   UNL     1       3.046   5.030  18.413  0.00  0.00    +0.000 A 
ATOM     15  C   UNL     1       3.747   4.547  19.525  0.00  0.00    +0.000 A 
ATOM     16  C   UNL     1       4.028   3.187  19.668  0.00  0.00    +0.000 A 
ATOM     17  C   UNL     1       3.588   2.270  18.711  0.00  0.00    +0.000 A 
ATOM     18  C   UNL     1       3.929   0.816  18.832  0.00  0.00    +0.000 C 
ATOM     19  C   UNL     1       2.838   2.736  17.625  0.00  0.00    +0.000 A 
ATOM     20  C   UNL     1       2.572   4.103  17.475  0.00  0.00    +0.000 A 
ENDBRANCH   4  14
BRANCH   3  21
ATOM     21  S   UNL     1       4.734   7.098  16.261  0.00  0.00    +0.000 S 
BRANCH  21  22
ATOM     22  C   UNL     1       5.979   6.209  17.220  0.00  0.00    +0.000 C 
BRANCH  22  23
ATOM     23  C   UNL     1       6.830   5.426  16.231  0.00  0.00    +0.000 C 
ATOM     24  O   UNL     1       7.784   4.736  16.582  0.00  0.00    +0.000 OA
ATOM     25  N   UNL     1       6.425   5.532  14.914  0.00  0.00    +0.000 N 
ATOM     26  H   UNL     1       5.685   6.176  14.663  0.00  0.00    +0.000 HD
BRANCH  25  27
ATOM     27  C   UNL     1       7.087   4.818  13.831  0.00  0.00    +0.000 C 
BRANCH  27  28
ATOM     28  C   UNL     1       6.294   3.607  13.330  0.00  0.00    +0.000 C 
ATOM     29  C   UNL     1       6.807   2.971  12.045  0.00  0.00    +0.000 C 
ATOM     30  C   UNL     1       5.554   2.368  11.467  0.00  0.00    +0.000 C 
ATOM     31  C   UNL     1       4.503   3.385  11.853  0.00  0.00    +0.000 C 
ATOM     32  O   UNL     1       4.919   3.978  13.090  0.00  0.00    +0.000 OA
ENDBRANCH  27  28
ENDBRANCH  25  27
ENDBRANCH  22  23
ENDBRANCH  21  22
ENDBRANCH   3  21
TORSDOF 7
ENDMDL
MODEL 2
REMARK VINA RESULT:      -7.6      4.348     10.531
REMARK  Name = 
REMARK  9 active torsions:
REMARK  status: ('A' for Active; 'I' for Inactive)
REMARK    1  A    between atoms: C_1  and  C_2
REMARK    2  A    between atoms: C_5  and  C_6
REMARK    3  A    between atoms: C_8  and  S_9
REMARK    4  A    between atoms: S_9  and  C_10
REMARK    5  A    between atoms: C_10  and  C_11
REMARK    6  A    between atoms: N_13  and  C_14
REMARK    7  A    between atoms: C_14  and  C_15
REMARK    8  A    between atoms: C_20  and  C_21
REMARK    9  A    between atoms: C_24  and  C_25
REMARK                            x       y       z     vdW  Elec       q    Type
REMARK                         _______ _______ _______ _____ _____    ______ ____
ROOT
ATOM      1  C   UNL     1       2.851   7.330  18.346  0.00  0.00    +0.000 A 
ATOM      2  N   UNL     1       2.356   7.126  19.554  0.00  0.00    +0.000 NA
ATOM      3  C   UNL     1       1.613   8.242  19.850  0.00  0.00    +0.000 A 
ATOM      4  C   UNL     1       1.721   9.203  18.856  0.00  0.00    +0.000 A 
ATOM      5  N   UNL     1       2.507   8.589  17.908  0.00  0.00    +0.000 N 
ATOM      6  H   UNL     1       2.791   8.994  17.030  0.00  0.00    +0.000 HD
ENDROOT
BRANCH   1  11
ATOM      7  C   UNL     1       6.039   3.710  15.136  0.00  0.00    +0.000 C 
ATOM      8  C   UNL     1       5.217   4.632  15.988  0.00  0.00    +0.000 A 
ATOM      9  C   UNL     1       4.253   4.132  16.868  0.00  0.00    +0.000 A 
ATOM     10  C   UNL     1       3.481   5.005  17.645  0.00  0.00    +0.000 A 
ATOM     11  C   UNL     1       3.656   6.395  17.554  0.00  0.00    +0.000 A 
ATOM     12  C   UNL     1       4.641   6.887  16.688  0.00  0.00    +0.000 A 
ATOM     13  C   UNL     1       5.408   6.015  15.907  0.00  0.00    +0.000 A 
ENDBRANCH   1  11
BRANCH   4  14
ATOM     14  C   UNL     1       1.155  10.545  18.697  0.00  0.00    +0.000 A 
ATOM     15  C   UNL     1       1.994  11.665  18.635  0.00  0.00    +0.000 A 
ATOM     16  C   UNL     1       1.471  12.959  18.584  0.00  0.00    +0.000 A 
ATOM     17  C   UNL     1       0.090  13.162  18.565  0.00  0.00    +0.000 A 
ATOM     18  C   UNL     1      -0.480  14.549  18.562  0.00  0.00    +0.000 C 
ATOM     19  C   UNL     1      -0.757  12.047  18.571  0.00  0.00    +0.000 A 
ATOM     20  C   UNL     1      -0.229  10.751  18.639  0.00  0.00    +0.000 A 
ENDBRANCH   4  14
BRANCH   3  21
ATOM     21  S   UNL     1       0.554   8.320  21.236  0.00  0.00    +0.000 S 
BRANCH  21  22
ATOM     22  C   UNL     1       1.011   9.897  21.989  0.00  0.00    +0.000 C 
BRANCH  22  23
ATOM     23  C   UNL     1      -0.253  10.479  22.605  0.00  0.00    +0.000 C 
ATOM     24  O   UNL     1      -0.971   9.837  23.369  0.00  0.00    +0.000 OA
ATOM     25  N   UNL     1      -0.511  11.791  22.259  0.00  0.00    +0.000 N 
ATOM     26  H   UNL     1       0.063  12.252  21.563  0.00  0.00    +0.000 HD
BRANCH  25  27
ATOM     27  C   UNL     1      -1.647  12.533  22.786  0.00  0.00    +0.000 C 
BRANCH  27  28
ATOM     28  C   UNL     1      -2.909  12.400  21.927  0.00  0.00    +0.000 C 
ATOM     29  C   UNL     1      -3.155  13.535  20.942  0.00  0.00    +0.000 C 
ATOM     30  C   UNL     1      -4.654  13.514  20.803  0.00  0.00    +0.000 C 
ATOM     31  C   UNL     1      -5.100  13.149  22.202  0.00  0.00    +0.000 C 
ATOM     32  O   UNL     1      -4.078  12.321  22.770  0.00  0.00    +0.000 OA
ENDBRANCH  27  28
ENDBRANCH  25  27
ENDBRANCH  22  23
ENDBRANCH  21  22
ENDBRANCH   3  21
TORSDOF 7
ENDMDL
MODEL 3
REMARK VINA RESULT:      -7.5      5.508     10.078
REMARK  Name = 
REMARK  9 active torsions:
REMARK  status: ('A' for Active; 'I' for Inactive)
REMARK    1  A    between atoms: C_1  and  C_2
REMARK    2  A    between atoms: C_5  and  C_6
REMARK    3  A    between atoms: C_8  and  S_9
REMARK    4  A    between atoms: S_9  and  C_10
REMARK    5  A    between atoms: C_10  and  C_11
REMARK    6  A    between atoms: N_13  and  C_14
REMARK    7  A    between atoms: C_14  and  C_15
REMARK    8  A    between atoms: C_20  and  C_21
REMARK    9  A    between atoms: C_24  and  C_25
REMARK                            x       y       z     vdW  Elec       q    Type
REMARK                         _______ _______ _______ _____ _____    ______ ____
ROOT
ATOM      1  C   UNL     1      -1.237  11.807  20.856  0.00  0.00    +0.000 A 
ATOM      2  N   UNL     1      -1.810  11.782  19.665  0.00  0.00    +0.000 NA
ATOM      3  C   UNL     1      -1.136  10.828  18.944  0.00  0.00    +0.000 A 
ATOM      4  C   UNL     1      -0.064  10.314  19.656  0.00  0.00    +0.000 A 
ATOM      5  N   UNL     1      -0.161  10.949  20.872  0.00  0.00    +0.000 N 
ATOM      6  H   UNL     1       0.459  10.813  21.656  0.00  0.00    +0.000 HD
ENDROOT
BRANCH   1  11
ATOM      7  C   UNL     1      -2.940  14.964  25.406  0.00  0.00    +0.000 C 
ATOM      8  C   UNL     1      -2.474  14.149  24.236  0.00  0.00    +0.000 A 
ATOM      9  C   UNL     1      -1.379  14.553  23.466  0.00  0.00    +0.000 A 
ATOM     10  C   UNL     1      -0.965  13.792  22.366  0.00  0.00    +0.000 A 
ATOM     11  C   UNL     1      -1.641  12.613  22.012  0.00  0.00    +0.000 A 
ATOM     12  C   UNL     1      -2.722  12.202  22.802  0.00  0.00    +0.000 A 
ATOM     13  C   UNL     1      -3.140  12.966  23.898  0.00  0.00    +0.000 A 
ENDBRANCH   1  11
BRANCH   4  14
ATOM     14  C   UNL     1       0.956   9.310  19.342  0.00  0.00    +0.000 A 
ATOM     15  C   UNL     1       1.575   9.298  18.086  0.00  0.00    +0.000 A 
ATOM     16  C   UNL     1       2.476   8.292  17.733  0.00  0.00    +0.000 A 
ATOM     17  C   UNL     1       2.802   7.284  18.643  0.00  0.00    +0.000 A 
ATOM     18  C   UNL     1       3.729   6.172  18.254  0.00  0.00    +0.000 C 
ATOM     19  C   UNL     1       2.232   7.318  19.920  0.00  0.00    +0.000 A 
ATOM     20  C   UNL     1       1.315   8.320  20.266  0.00  0.00    +0.000 A 
ENDBRANCH   4  14
BRANCH   3  21
ATOM     21  S   UNL     1      -1.704  10.254  17.395  0.00  0.00    +0.000 S 
BRANCH  21  22
ATOM     22  C   UNL     1      -3.395   9.739  17.764  0.00  0.00    +0.000 C 
BRANCH  22  23
ATOM     23  C   UNL     1      -4.303  10.911  17.423  0.00  0.00    +0.000 C 
ATOM     24  O   UNL     1      -4.517  11.265  16.266  0.00  0.00    +0.000 OA
ATOM     25  N   UNL     1      -4.886  11.524  18.515  0.00  0.00    +0.000 N 
ATOM     26  H   UNL     1      -4.616  11.251  19.452  0.00  0.00    +0.000 HD
BRANCH  25  27
ATOM     27  C   UNL     1      -5.821  12.633  18.386  0.00  0.00    +0.000 C 
BRANCH  27  28
ATOM     28  C   UNL     1      -6.559  12.959  19.688  0.00  0.00    +0.000 C 
ATOM     29  C   UNL     1      -5.704  12.952  20.947  0.00  0.00    +0.000 C 
ATOM     30  C   UNL     1      -6.710  12.600  22.011  0.00  0.00    +0.000 C 
ATOM     31  C   UNL     1      -7.617  11.630  21.287  0.00  0.00    +0.000 C 
ATOM     32  O   UNL     1      -7.626  12.011  19.905  0.00  0.00    +0.000 OA
ENDBRANCH  27  28
ENDBRANCH  25  27
ENDBRANCH  22  23
ENDBRANCH  21  22
ENDBRANCH   3  21
TORSDOF 7
ENDMDL
MODEL 4
REMARK VINA RESULT:      -7.4      5.633     11.777
REMARK  Name = 
REMARK  9 active torsions:
REMARK  status: ('A' for Active; 'I' for Inactive)
REMARK    1  A    between atoms: C_1  and  C_2
REMARK    2  A    between atoms: C_5  and  C_6
REMARK    3  A    between atoms: C_8  and  S_9
REMARK    4  A    between atoms: S_9  and  C_10
REMARK    5  A    between atoms: C_10  and  C_11
REMARK    6  A    between atoms: N_13  and  C_14
REMARK    7  A    between atoms: C_14  and  C_15
REMARK    8  A    between atoms: C_20  and  C_21
REMARK    9  A    between atoms: C_24  and  C_25
REMARK                            x       y       z     vdW  Elec       q    Type
REMARK                         _______ _______ _______ _____ _____    ______ ____
ROOT
ATOM      1  C   UNL     1       0.233  10.369  19.166  0.00  0.00    +0.000 A 
ATOM      2  N   UNL     1       0.524  11.575  19.621  0.00  0.00    +0.000 NA
ATOM      3  C   UNL     1      -0.652  12.284  19.585  0.00  0.00    +0.000 A 
ATOM      4  C   UNL     1      -1.675  11.545  19.010  0.00  0.00    +0.000 A 
ATOM      5  N   UNL     1      -1.083  10.328  18.764  0.00  0.00    +0.000 N 
ATOM      6  H   UNL     1      -1.537   9.528  18.351  0.00  0.00    +0.000 HD
ENDROOT
BRANCH   1  11
ATOM      7  C   UNL     1       3.784   5.814  18.701  0.00  0.00    +0.000 C 
ATOM      8  C   UNL     1       2.875   6.999  18.845  0.00  0.00    +0.000 A 
ATOM      9  C   UNL     1       2.208   7.254  20.047  0.00  0.00    +0.000 A 
ATOM     10  C   UNL     1       1.349   8.355  20.162  0.00  0.00    +0.000 A 
ATOM     11  C   UNL     1       1.138   9.219  19.076  0.00  0.00    +0.000 A 
ATOM     12  C   UNL     1       1.829   8.970  17.883  0.00  0.00    +0.000 A 
ATOM     13  C   UNL     1       2.682   7.868  17.766  0.00  0.00    +0.000 A 
ENDBRANCH   1  11
BRANCH   4  14
ATOM     14  C   UNL     1      -3.082  11.837  18.728  0.00  0.00    +0.000 A 
ATOM     15  C   UNL     1      -3.898  12.408  19.711  0.00  0.00    +0.000 A 
ATOM     16  C   UNL     1      -5.265  12.602  19.495  0.00  0.00    +0.000 A 
ATOM     17  C   UNL     1      -5.842  12.254  18.273  0.00  0.00    +0.000 A 
ATOM     18  C   UNL     1      -7.317  12.411  18.051  0.00  0.00    +0.000 C 
ATOM     19  C   UNL     1      -5.025  11.734  17.263  0.00  0.00    +0.000 A 
ATOM     20  C   UNL     1      -3.658  11.524  17.489  0.00  0.00    +0.000 A 
ENDBRANCH   4  14
BRANCH   3  21
ATOM     21  S   UNL     1      -0.820  13.852  20.335  0.00  0.00    +0.000 S 
BRANCH  21  22
ATOM     22  C   UNL     1      -0.069  13.593  21.956  0.00  0.00    +0.000 C 
BRANCH  22  23
ATOM     23  C   UNL     1      -1.122  12.937  22.837  0.00  0.00    +0.000 C 
ATOM     24  O   UNL     1      -1.031  11.772  23.219  0.00  0.00    +0.000 OA
ATOM     25  N   UNL     1      -2.171  13.763  23.193  0.00  0.00    +0.000 N 
ATOM     26  H   UNL     1      -2.245  14.688  22.788  0.00  0.00    +0.000 HD
BRANCH  25  27
ATOM     27  C   UNL     1      -3.249  13.328  24.069  0.00  0.00    +0.000 C 
BRANCH  27  28
ATOM     28  C   UNL     1      -4.537  12.978  23.317  0.00  0.00    +0.000 C 
ATOM     29  C   UNL     1      -5.362  14.165  22.838  0.00  0.00    +0.000 C 
ATOM     30  C   UNL     1      -6.755  13.594  22.813  0.00  0.00    +0.000 C 
ATOM     31  C   UNL     1      -6.743  12.668  24.009  0.00  0.00    +0.000 C 
ATOM     32  O   UNL     1      -5.402  12.183  24.156  0.00  0.00    +0.000 OA
ENDBRANCH  27  28
ENDBRANCH  25  27
ENDBRANCH  22  23
ENDBRANCH  21  22
ENDBRANCH   3  21
TORSDOF 7
ENDMDL
MODEL 5
REMARK VINA RESULT:      -7.4      4.973      8.774
REMARK  Name = 
REMARK  9 active torsions:
REMARK  status: ('A' for Active; 'I' for Inactive)
REMARK    1  A    between atoms: C_1  and  C_2
REMARK    2  A    between atoms: C_5  and  C_6
REMARK    3  A    between atoms: C_8  and  S_9
REMARK    4  A    between atoms: S_9  and  C_10
REMARK    5  A    between atoms: C_10  and  C_11
REMARK    6  A    between atoms: N_13  and  C_14
REMARK    7  A    between atoms: C_14  and  C_15
REMARK    8  A    between atoms: C_20  and  C_21
REMARK    9  A    between atoms: C_24  and  C_25
REMARK                            x       y       z     vdW  Elec       q    Type
REMARK                         _______ _______ _______ _____ _____    ______ ____
ROOT
ATOM      1  C   UNL     1      -1.779  10.944  18.859  0.00  0.00    +0.000 A 
ATOM      2  N   UNL     1      -0.725  10.310  19.343  0.00  0.00    +0.000 NA
ATOM      3  C   UNL     1      -0.545  10.799  20.614  0.00  0.00    +0.000 A 
ATOM      4  C   UNL     1      -1.437  11.823  20.897  0.00  0.00    +0.000 A 
ATOM      5  N   UNL     1      -2.215  11.884  19.764  0.00  0.00    +0.000 N 
ATOM      6  H   UNL     1      -2.985  12.518  19.615  0.00  0.00    +0.000 HD
ENDROOT
BRANCH   1  11
ATOM      7  C   UNL     1      -4.206  10.053  13.673  0.00  0.00    +0.000 C 
ATOM      8  C   UNL     1      -3.602  10.282  15.027  0.00  0.00    +0.000 A 
ATOM      9  C   UNL     1      -4.186  11.168  15.937  0.00  0.00    +0.000 A 
ATOM     10  C   UNL     1      -3.601  11.384  17.192  0.00  0.00    +0.000 A 
ATOM     11  C   UNL     1      -2.418  10.722  17.558  0.00  0.00    +0.000 A 
ATOM     12  C   UNL     1      -1.853   9.818  16.649  0.00  0.00    +0.000 A 
ATOM     13  C   UNL     1      -2.433   9.606  15.394  0.00  0.00    +0.000 A 
ENDBRANCH   1  11
BRANCH   4  14
ATOM     14  C   UNL     1      -1.646  12.669  22.074  0.00  0.00    +0.000 A 
ATOM     15  C   UNL     1      -2.718  12.423  22.942  0.00  0.00    +0.000 A 
ATOM     16  C   UNL     1      -2.993  13.276  24.013  0.00  0.00    +0.000 A 
ATOM     17  C   UNL     1      -2.182  14.385  24.258  0.00  0.00    +0.000 A 
ATOM     18  C   UNL     1      -2.500  15.334  25.374  0.00  0.00    +0.000 C 
ATOM     19  C   UNL     1      -1.075  14.609  23.431  0.00  0.00    +0.000 A 
ATOM     20  C   UNL     1      -0.811  13.760  22.347  0.00  0.00    +0.000 A 
ENDBRANCH   4  14
BRANCH   3  21
ATOM     21  S   UNL     1       0.570  10.074  21.744  0.00  0.00    +0.000 S 
BRANCH  21  22
ATOM     22  C   UNL     1       0.243   8.309  21.539  0.00  0.00    +0.000 C 
BRANCH  22  23
ATOM     23  C   UNL     1       1.338   7.754  20.642  0.00  0.00    +0.000 C 
ATOM     24  O   UNL     1       1.783   8.377  19.680  0.00  0.00    +0.000 OA
ATOM     25  N   UNL     1       1.810   6.509  21.011  0.00  0.00    +0.000 N 
ATOM     26  H   UNL     1       1.358   6.000  21.760  0.00  0.00    +0.000 HD
BRANCH  25  27
ATOM     27  C   UNL     1       2.889   5.837  20.302  0.00  0.00    +0.000 C 
BRANCH  27  28
ATOM     28  C   UNL     1       2.613   4.353  20.044  0.00  0.00    +0.000 C 
ATOM     29  C   UNL     1       1.339   4.046  19.269  0.00  0.00    +0.000 C 
ATOM     30  C   UNL     1       0.989   2.669  19.766  0.00  0.00    +0.000 C 
ATOM     31  C   UNL     1       1.409   2.736  21.218  0.00  0.00    +0.000 C 
ATOM     32  O   UNL     1       2.519   3.640  21.296  0.00  0.00    +0.000 OA
ENDBRANCH  27  28
ENDBRANCH  25  27
ENDBRANCH  22  23
ENDBRANCH  21  22
ENDBRANCH   3  21
TORSDOF 7
ENDMDL
MODEL 6
REMARK VINA RESULT:      -7.4      4.868     10.839
REMARK  Name = 
REMARK  9 active torsions:
REMARK  status: ('A' for Active; 'I' for Inactive)
REMARK    1  A    between atoms: C_1  and  C_2
REMARK    2  A    between atoms: C_5  and  C_6
REMARK    3  A    between atoms: C_8  and  S_9
REMARK    4  A    between atoms: S_9  and  C_10
REMARK    5  A    between atoms: C_10  and  C_11
REMARK    6  A    between atoms: N_13  and  C_14
REMARK    7  A    between atoms: C_14  and  C_15
REMARK    8  A    between atoms: C_20  and  C_21
REMARK    9  A    between atoms: C_24  and  C_25
REMARK                            x       y       z     vdW  Elec       q    Type
REMARK                         _______ _______ _______ _____ _____    ______ ____
ROOT
ATOM      1  C   UNL     1       1.390   8.848  18.946  0.00  0.00    +0.000 A 
ATOM      2  N   UNL     1       0.467   9.247  18.088  0.00  0.00    +0.000 NA
ATOM      3  C   UNL     1      -0.176  10.300  18.692  0.00  0.00    +0.000 A 
ATOM      4  C   UNL     1       0.281  10.503  19.985  0.00  0.00    +0.000 A 
ATOM      5  N   UNL     1       1.285   9.571  20.113  0.00  0.00    +0.000 N 
ATOM      6  H   UNL     1       1.855   9.433  20.933  0.00  0.00    +0.000 HD
ENDROOT
BRANCH   1  11
ATOM      7  C   UNL     1       5.327   4.700  18.017  0.00  0.00    +0.000 C 
ATOM      8  C   UNL     1       4.315   5.775  18.283  0.00  0.00    +0.000 A 
ATOM      9  C   UNL     1       3.497   5.731  19.415  0.00  0.00    +0.000 A 
ATOM     10  C   UNL     1       2.544   6.733  19.643  0.00  0.00    +0.000 A 
ATOM     11  C   UNL     1       2.390   7.796  18.739  0.00  0.00    +0.000 A 
ATOM     12  C   UNL     1       3.230   7.845  17.619  0.00  0.00    +0.000 A 
ATOM     13  C   UNL     1       4.177   6.842  17.389  0.00  0.00    +0.000 A 
ENDBRANCH   1  11
BRANCH   4  14
ATOM     14  C   UNL     1      -0.078  11.460  21.033  0.00  0.00    +0.000 A 
ATOM     15  C   UNL     1      -0.903  11.071  22.096  0.00  0.00    +0.000 A 
ATOM     16  C   UNL     1      -1.338  11.992  23.051  0.00  0.00    +0.000 A 
ATOM     17  C   UNL     1      -0.932  13.326  22.980  0.00  0.00    +0.000 A 
ATOM     18  C   UNL     1      -1.435  14.333  23.971  0.00  0.00    +0.000 C 
ATOM     19  C   UNL     1      -0.062  13.714  21.954  0.00  0.00    +0.000 A 
ATOM     20  C   UNL     1       0.359  12.791  20.988  0.00  0.00    +0.000 A 
ENDBRANCH   4  14
BRANCH   3  21
ATOM     21  S   UNL     1      -1.303  11.321  17.834  0.00  0.00    +0.000 S 
BRANCH  21  22
ATOM     22  C   UNL     1      -2.536  10.139  17.248  0.00  0.00    +0.000 C 
BRANCH  22  23
ATOM     23  C   UNL     1      -3.728  10.946  16.755  0.00  0.00    +0.000 C 
ATOM     24  O   UNL     1      -3.901  11.208  15.566  0.00  0.00    +0.000 OA
ATOM     25  N   UNL     1      -4.611  11.333  17.744  0.00  0.00    +0.000 N 
ATOM     26  H   UNL     1      -4.384  11.165  18.717  0.00  0.00    +0.000 HD
BRANCH  25  27
ATOM     27  C   UNL     1      -5.833  12.071  17.460  0.00  0.00    +0.000 C 
BRANCH  27  28
ATOM     28  C   UNL     1      -6.981  11.736  18.418  0.00  0.00    +0.000 C 
ATOM     29  C   UNL     1      -6.922  12.417  19.778  0.00  0.00    +0.000 C 
ATOM     30  C   UNL     1      -7.658  11.439  20.655  0.00  0.00    +0.000 C 
ATOM     31  C   UNL     1      -7.244  10.108  20.067  0.00  0.00    +0.000 C 
ATOM     32  O   UNL     1      -7.020  10.314  18.667  0.00  0.00    +0.000 OA
ENDBRANCH  27  28
ENDBRANCH  25  27
ENDBRANCH  22  23
ENDBRANCH  21  22
ENDBRANCH   3  21
TORSDOF 7
ENDMDL
MODEL 7
REMARK VINA RESULT:      -7.4      4.355      7.705
REMARK  Name = 
REMARK  9 active torsions:
REMARK  status: ('A' for Active; 'I' for Inactive)
REMARK    1  A    between atoms: C_1  and  C_2
REMARK    2  A    between atoms: C_5  and  C_6
REMARK    3  A    between atoms: C_8  and  S_9
REMARK    4  A    between atoms: S_9  and  C_10
REMARK    5  A    between atoms: C_10  and  C_11
REMARK    6  A    between atoms: N_13  and  C_14
REMARK    7  A    between atoms: C_14  and  C_15
REMARK    8  A    between atoms: C_20  and  C_21
REMARK    9  A    between atoms: C_24  and  C_25
REMARK                            x       y       z     vdW  Elec       q    Type
REMARK                         _______ _______ _______ _____ _____    ______ ____
ROOT
ATOM      1  C   UNL     1      -1.498  12.058  21.077  0.00  0.00    +0.000 A 
ATOM      2  N   UNL     1      -0.422  11.311  20.904  0.00  0.00    +0.000 NA
ATOM      3  C   UNL     1      -0.510  10.815  19.627  0.00  0.00    +0.000 A 
ATOM      4  C   UNL     1      -1.705  11.175  19.022  0.00  0.00    +0.000 A 
ATOM      5  N   UNL     1      -2.307  11.974  19.967  0.00  0.00    +0.000 N 
ATOM      6  H   UNL     1      -3.202  12.428  19.867  0.00  0.00    +0.000 HD
ENDROOT
BRANCH   1  11
ATOM      7  C   UNL     1      -2.706  15.244  25.764  0.00  0.00    +0.000 C 
ATOM      8  C   UNL     1      -2.418  14.423  24.542  0.00  0.00    +0.000 A 
ATOM      9  C   UNL     1      -3.340  13.486  24.068  0.00  0.00    +0.000 A 
ATOM     10  C   UNL     1      -3.051  12.715  22.935  0.00  0.00    +0.000 A 
ATOM     11  C   UNL     1      -1.831  12.864  22.256  0.00  0.00    +0.000 A 
ATOM     12  C   UNL     1      -0.922  13.823  22.722  0.00  0.00    +0.000 A 
ATOM     13  C   UNL     1      -1.208  14.589  23.858  0.00  0.00    +0.000 A 
ENDBRANCH   1  11
BRANCH   4  14
ATOM     14  C   UNL     1      -2.283  10.897  17.705  0.00  0.00    +0.000 A 
ATOM     15  C   UNL     1      -3.448  11.552  17.290  0.00  0.00    +0.000 A 
ATOM     16  C   UNL     1      -4.070  11.229  16.082  0.00  0.00    +0.000 A 
ATOM     17  C   UNL     1      -3.520  10.257  15.243  0.00  0.00    +0.000 A 
ATOM     18  C   UNL     1      -4.208   9.868  13.969  0.00  0.00    +0.000 C 
ATOM     19  C   UNL     1      -2.325   9.636  15.623  0.00  0.00    +0.000 A 
ATOM     20  C   UNL     1      -1.713   9.950  16.843  0.00  0.00    +0.000 A 
ENDBRANCH   4  14
BRANCH   3  21
ATOM     21  S   UNL     1       0.816   9.983  18.854  0.00  0.00    +0.000 S 
BRANCH  21  22
ATOM     22  C   UNL     1       1.236   8.709  20.063  0.00  0.00    +0.000 C 
BRANCH  22  23
ATOM     23  C   UNL     1       2.175   7.731  19.372  0.00  0.00    +0.000 C 
ATOM     24  O   UNL     1       2.616   7.926  18.241  0.00  0.00    +0.000 OA
ATOM     25  N   UNL     1       2.512   6.625  20.128  0.00  0.00    +0.000 N 
ATOM     26  H   UNL     1       2.061   6.466  21.021  0.00  0.00    +0.000 HD
BRANCH  25  27
ATOM     27  C   UNL     1       3.435   5.603  19.655  0.00  0.00    +0.000 C 
BRANCH  27  28
ATOM     28  C   UNL     1       2.836   4.193  19.665  0.00  0.00    +0.000 C 
ATOM     29  C   UNL     1       1.578   4.007  18.827  0.00  0.00    +0.000 C 
ATOM     30  C   UNL     1       0.883   2.880  19.544  0.00  0.00    +0.000 C 
ATOM     31  C   UNL     1       1.214   3.169  20.992  0.00  0.00    +0.000 C 
ATOM     32  O   UNL     1       2.497   3.807  21.014  0.00  0.00    +0.000 OA
ENDBRANCH  27  28
ENDBRANCH  25  27
ENDBRANCH  22  23
ENDBRANCH  21  22
ENDBRANCH   3  21
TORSDOF 7
ENDMDL
MODEL 8
REMARK VINA RESULT:      -7.3      5.100     10.477
REMARK  Name = 
REMARK  9 active torsions:
REMARK  status: ('A' for Active; 'I' for Inactive)
REMARK    1  A    between atoms: C_1  and  C_2
REMARK    2  A    between atoms: C_5  and  C_6
REMARK    3  A    between atoms: C_8  and  S_9
REMARK    4  A    between atoms: S_9  and  C_10
REMARK    5  A    between atoms: C_10  and  C_11
REMARK    6  A    between atoms: N_13  and  C_14
REMARK    7  A    between atoms: C_14  and  C_15
REMARK    8  A    between atoms: C_20  and  C_21
REMARK    9  A    between atoms: C_24  and  C_25
REMARK                            x       y       z     vdW  Elec       q    Type
REMARK                         _______ _______ _______ _____ _____    ______ ____
ROOT
ATOM      1  C   UNL     1       1.406   9.421  19.216  0.00  0.00    +0.000 A 
ATOM      2  N   UNL     1       1.651  10.540  18.557  0.00  0.00    +0.000 NA
ATOM      3  C   UNL     1       0.850  11.497  19.130  0.00  0.00    +0.000 A 
ATOM      4  C   UNL     1       0.020  10.952  20.098  0.00  0.00    +0.000 A 
ATOM      5  N   UNL     1       0.405   9.632  20.136  0.00  0.00    +0.000 N 
ATOM      6  H   UNL     1       0.015   8.925  20.740  0.00  0.00    +0.000 HD
ENDROOT
BRANCH   1  11
ATOM      7  C   UNL     1       4.032   4.295  18.581  0.00  0.00    +0.000 C 
ATOM      8  C   UNL     1       3.344   5.621  18.720  0.00  0.00    +0.000 A 
ATOM      9  C   UNL     1       3.427   6.587  17.713  0.00  0.00    +0.000 A 
ATOM     10  C   UNL     1       2.793   7.826  17.864  0.00  0.00    +0.000 A 
ATOM     11  C   UNL     1       2.066   8.126  19.028  0.00  0.00    +0.000 A 
ATOM     12  C   UNL     1       1.967   7.143  20.021  0.00  0.00    +0.000 A 
ATOM     13  C   UNL     1       2.605   5.907  19.874  0.00  0.00    +0.000 A 
ENDBRANCH   1  11
BRANCH   4  14
ATOM     14  C   UNL     1      -1.008  11.525  20.970  0.00  0.00    +0.000 A 
ATOM     15  C   UNL     1      -0.913  11.389  22.361  0.00  0.00    +0.000 A 
ATOM     16  C   UNL     1      -1.931  11.841  23.203  0.00  0.00    +0.000 A 
ATOM     17  C   UNL     1      -3.061  12.467  22.673  0.00  0.00    +0.000 A 
ATOM     18  C   UNL     1      -4.181  12.909  23.566  0.00  0.00    +0.000 C 
ATOM     19  C   UNL     1      -3.140  12.658  21.289  0.00  0.00    +0.000 A 
ATOM     20  C   UNL     1      -2.125  12.189  20.445  0.00  0.00    +0.000 A 
ENDBRANCH   4  14
BRANCH   3  21
ATOM     21  S   UNL     1       1.017  13.196  18.765  0.00  0.00    +0.000 S 
BRANCH  21  22
ATOM     22  C   UNL     1       2.695  13.291  18.104  0.00  0.00    +0.000 C 
BRANCH  22  23
ATOM     23  C   UNL     1       3.120  14.751  18.174  0.00  0.00    +0.000 C 
ATOM     24  O   UNL     1       4.114  15.178  17.590  0.00  0.00    +0.000 OA
ATOM     25  N   UNL     1       2.285  15.558  18.922  0.00  0.00    +0.000 N 
ATOM     26  H   UNL     1       1.526  15.147  19.452  0.00  0.00    +0.000 HD
BRANCH  25  27
ATOM     27  C   UNL     1       2.502  16.991  19.067  0.00  0.00    +0.000 C 
BRANCH  27  28
ATOM     28  C   UNL     1       1.312  17.835  18.600  0.00  0.00    +0.000 C 
ATOM     29  C   UNL     1       0.067  17.053  18.205  0.00  0.00    +0.000 C 
ATOM     30  C   UNL     1      -0.580  17.972  17.203  0.00  0.00    +0.000 C 
ATOM     31  C   UNL     1       0.617  18.572  16.500  0.00  0.00    +0.000 C 
ATOM     32  O   UNL     1       1.685  18.629  17.454  0.00  0.00    +0.000 OA
ENDBRANCH  27  28
ENDBRANCH  25  27
ENDBRANCH  22  23
ENDBRANCH  21  22
ENDBRANCH   3  21
TORSDOF 7
ENDMDL
MODEL 9
REMARK VINA RESULT:      -7.3      4.222     10.618
REMARK  Name = 
REMARK  9 active torsions:
REMARK  status: ('A' for Active; 'I' for Inactive)
REMARK    1  A    between atoms: C_1  and  C_2
REMARK    2  A    between atoms: C_5  and  C_6
REMARK    3  A    between atoms: C_8  and  S_9
REMARK    4  A    between atoms: S_9  and  C_10
REMARK    5  A    between atoms: C_10  and  C_11
REMARK    6  A    between atoms: N_13  and  C_14
REMARK    7  A    between atoms: C_14  and  C_15
REMARK    8  A    between atoms: C_20  and  C_21
REMARK    9  A    between atoms: C_24  and  C_25
REMARK                            x       y       z     vdW  Elec       q    Type
REMARK                         _______ _______ _______ _____ _____    ______ ____
ROOT
ATOM      1  C   UNL     1       2.913   7.205  18.220  0.00  0.00    +0.000 A 
ATOM      2  N   UNL     1       2.418   6.988  19.426  0.00  0.00    +0.000 NA
ATOM      3  C   UNL     1       1.667   8.096  19.729  0.00  0.00    +0.000 A 
ATOM      4  C   UNL     1       1.769   9.066  18.744  0.00  0.00    +0.000 A 
ATOM      5  N   UNL     1       2.560   8.465  17.792  0.00  0.00    +0.000 N 
ATOM      6  H   UNL     1       2.842   8.879  16.917  0.00  0.00    +0.000 HD
ENDROOT
BRANCH   1  11
ATOM      7  C   UNL     1       6.132   3.636  14.984  0.00  0.00    +0.000 C 
ATOM      8  C   UNL     1       5.302   4.544  15.843  0.00  0.00    +0.000 A 
ATOM      9  C   UNL     1       4.326   4.031  16.702  0.00  0.00    +0.000 A 
ATOM     10  C   UNL     1       3.547   4.892  17.486  0.00  0.00    +0.000 A 
ATOM     11  C   UNL     1       3.726   6.283  17.422  0.00  0.00    +0.000 A 
ATOM     12  C   UNL     1       4.722   6.787  16.576  0.00  0.00    +0.000 A 
ATOM     13  C   UNL     1       5.497   5.928  15.789  0.00  0.00    +0.000 A 
ENDBRANCH   1  11
BRANCH   4  14
ATOM     14  C   UNL     1       1.193  10.405  18.595  0.00  0.00    +0.000 A 
ATOM     15  C   UNL     1       2.026  11.526  18.487  0.00  0.00    +0.000 A 
ATOM     16  C   UNL     1       1.498  12.818  18.445  0.00  0.00    +0.000 A 
ATOM     17  C   UNL     1       0.117  13.018  18.482  0.00  0.00    +0.000 A 
ATOM     18  C   UNL     1      -0.456  14.403  18.488  0.00  0.00    +0.000 C 
ATOM     19  C   UNL     1      -0.726  11.902  18.534  0.00  0.00    +0.000 A 
ATOM     20  C   UNL     1      -0.193  10.607  18.593  0.00  0.00    +0.000 A 
ENDBRANCH   4  14
BRANCH   3  21
ATOM     21  S   UNL     1       0.606   8.155  21.115  0.00  0.00    +0.000 S 
BRANCH  21  22
ATOM     22  C   UNL     1       1.380   9.419  22.148  0.00  0.00    +0.000 C 
BRANCH  22  23
ATOM     23  C   UNL     1       0.551  10.686  21.998  0.00  0.00    +0.000 C 
ATOM     24  O   UNL     1       1.048  11.767  21.688  0.00  0.00    +0.000 OA
ATOM     25  N   UNL     1      -0.804  10.516  22.210  0.00  0.00    +0.000 N 
ATOM     26  H   UNL     1      -1.155   9.627  22.543  0.00  0.00    +0.000 HD
BRANCH  25  27
ATOM     27  C   UNL     1      -1.762  11.603  22.066  0.00  0.00    +0.000 C 
BRANCH  27  28
ATOM     28  C   UNL     1      -2.105  12.289  23.392  0.00  0.00    +0.000 C 
ATOM     29  C   UNL     1      -3.577  12.614  23.603  0.00  0.00    +0.000 C 
ATOM     30  C   UNL     1      -3.510  13.805  24.522  0.00  0.00    +0.000 C 
ATOM     31  C   UNL     1      -2.280  14.528  24.020  0.00  0.00    +0.000 C 
ATOM     32  O   UNL     1      -1.383  13.534  23.508  0.00  0.00    +0.000 OA
ENDBRANCH  27  28
ENDBRANCH  25  27
ENDBRANCH  22  23
ENDBRANCH  21  22
ENDBRANCH   3  21
TORSDOF 7
ENDMDL
