MODEL 1
REMARK VINA RESULT:      -9.0      0.000      0.000
REMARK  Name = 
REMARK  8 active torsions:
REMARK  status: ('A' for Active; 'I' for Inactive)
REMARK    1  A    between atoms: C_1  and  O_2
REMARK    2  A    between atoms: O_2  and  C_3
REMARK    3  A    between atoms: C_5  and  C_6
REMARK    4  A    between atoms: C_7  and  S_8
REMARK    5  A    between atoms: S_8  and  O_11
REMARK    6  A    between atoms: O_11  and  C_12
REMARK    7  A    between atoms: C_14  and  C_15
REMARK    8  A    between atoms: C_24  and  C_25
REMARK                            x       y       z     vdW  Elec       q    Type
REMARK                         _______ _______ _______ _____ _____    ______ ____
ROOT
ATOM      1  S   UNL     1       3.509   3.491  18.198  0.00  0.00    +0.000 S 
ATOM      2  O   UNL     1       4.718   3.209  18.946  0.00  0.00    +0.000 OA
ATOM      3  O   UNL     1       2.449   2.499  18.150  0.00  0.00    +0.000 OA
ENDROOT
BRANCH   1   8
ATOM      4  C   UNL     1       1.875   7.451  19.903  0.00  0.00    +0.000 A 
ATOM      5  C   UNL     1       1.866   6.306  20.706  0.00  0.00    +0.000 A 
ATOM      6  C   UNL     1       2.333   5.063  20.233  0.00  0.00    +0.000 A 
ATOM      7  C   UNL     1       2.294   3.904  21.191  0.00  0.00    +0.000 C 
ATOM      8  C   UNL     1       2.802   4.987  18.908  0.00  0.00    +0.000 A 
ATOM      9  C   UNL     1       2.820   6.138  18.100  0.00  0.00    +0.000 A 
ATOM     10  C   UNL     1       2.351   7.369  18.587  0.00  0.00    +0.000 A 
ATOM     11  C   UNL     1       2.381   8.586  17.703  0.00  0.00    +0.000 C 
BRANCH   4  13
ATOM     12  C   UNL     1       0.584   8.679  21.475  0.00  0.00    +0.000 C 
ATOM     13  O   UNL     1       1.398   8.671  20.307  0.00  0.00    +0.000 OA
ENDBRANCH   4  13
ENDBRANCH   1   8
BRANCH   1  14
ATOM     14  O   UNL     1       3.926   3.912  16.670  0.00  0.00    +0.000 OA
BRANCH  14  15
ATOM     15  C   UNL     1       5.124   4.563  16.417  0.00  0.00    +0.000 A 
ATOM     16  C   UNL     1       5.790   5.296  17.397  0.00  0.00    +0.000 A 
ATOM     17  C   UNL     1       6.989   5.911  17.084  0.00  0.00    +0.000 A 
ATOM     18  C   UNL     1       7.713   6.729  18.111  0.00  0.00    +0.000 C 
ATOM     19  N   UNL     1       7.557   5.815  15.865  0.00  0.00    +0.000 NA
ATOM     20  C   UNL     1       6.941   5.094  14.919  0.00  0.00    +0.000 A 
ATOM     21  C   UNL     1       7.556   5.000  13.679  0.00  0.00    +0.000 A 
ATOM     22  C   UNL     1       6.996   4.268  12.632  0.00  0.00    +0.000 A 
ATOM     23  C   UNL     1       5.790   3.610  12.827  0.00  0.00    +0.000 A 
ATOM     24  C   UNL     1       5.148   3.691  14.067  0.00  0.00    +0.000 A 
ATOM     25  C   UNL     1       5.708   4.432  15.134  0.00  0.00    +0.000 A 
ENDBRANCH  14  15
ENDBRANCH   1  14
TORSDOF 4
ENDMDL
MODEL 2
REMARK VINA RESULT:      -9.0      0.943      2.908
REMARK  Name = 
REMARK  8 active torsions:
REMARK  status: ('A' for Active; 'I' for Inactive)
REMARK    1  A    between atoms: C_1  and  O_2
REMARK    2  A    between atoms: O_2  and  C_3
REMARK    3  A    between atoms: C_5  and  C_6
REMARK    4  A    between atoms: C_7  and  S_8
REMARK    5  A    between atoms: S_8  and  O_11
REMARK    6  A    between atoms: O_11  and  C_12
REMARK    7  A    between atoms: C_14  and  C_15
REMARK    8  A    between atoms: C_24  and  C_25
REMARK                            x       y       z     vdW  Elec       q    Type
REMARK                         _______ _______ _______ _____ _____    ______ ____
ROOT
ATOM      1  S   UNL     1       2.633   3.086  17.987  0.00  0.00    +0.000 S 
ATOM      2  O   UNL     1       2.069   2.022  18.793  0.00  0.00    +0.000 OA
ATOM      3  O   UNL     1       2.175   3.269  16.620  0.00  0.00    +0.000 OA
ENDROOT
BRANCH   1   8
ATOM      4  C   UNL     1       1.982   7.127  20.110  0.00  0.00    +0.000 A 
ATOM      5  C   UNL     1       1.852   5.942  20.841  0.00  0.00    +0.000 A 
ATOM      6  C   UNL     1       2.019   4.677  20.242  0.00  0.00    +0.000 A 
ATOM      7  C   UNL     1       1.874   3.472  21.130  0.00  0.00    +0.000 C 
ATOM      8  C   UNL     1       2.308   4.623  18.865  0.00  0.00    +0.000 A 
ATOM      9  C   UNL     1       2.447   5.814  18.128  0.00  0.00    +0.000 A 
ATOM     10  C   UNL     1       2.278   7.066  18.740  0.00  0.00    +0.000 A 
ATOM     11  C   UNL     1       2.434   8.324  17.931  0.00  0.00    +0.000 C 
BRANCH   4  13
ATOM     12  C   UNL     1       0.553   8.605  21.299  0.00  0.00    +0.000 C 
ATOM     13  O   UNL     1       1.794   8.377  20.640  0.00  0.00    +0.000 OA
ENDBRANCH   4  13
ENDBRANCH   1   8
BRANCH   1  14
ATOM     14  O   UNL     1       4.265   2.939  17.995  0.00  0.00    +0.000 OA
BRANCH  14  15
ATOM     15  C   UNL     1       5.047   3.677  17.119  0.00  0.00    +0.000 A 
ATOM     16  C   UNL     1       4.950   3.530  15.737  0.00  0.00    +0.000 A 
ATOM     17  C   UNL     1       5.749   4.305  14.916  0.00  0.00    +0.000 A 
ATOM     18  C   UNL     1       5.685   4.149  13.427  0.00  0.00    +0.000 C 
ATOM     19  N   UNL     1       6.613   5.221  15.399  0.00  0.00    +0.000 NA
ATOM     20  C   UNL     1       6.701   5.390  16.726  0.00  0.00    +0.000 A 
ATOM     21  C   UNL     1       7.587   6.350  17.194  0.00  0.00    +0.000 A 
ATOM     22  C   UNL     1       7.746   6.604  18.557  0.00  0.00    +0.000 A 
ATOM     23  C   UNL     1       6.998   5.883  19.478  0.00  0.00    +0.000 A 
ATOM     24  C   UNL     1       6.100   4.908  19.032  0.00  0.00    +0.000 A 
ATOM     25  C   UNL     1       5.934   4.643  17.652  0.00  0.00    +0.000 A 
ENDBRANCH  14  15
ENDBRANCH   1  14
TORSDOF 4
ENDMDL
MODEL 3
REMARK VINA RESULT:      -8.4      2.682      6.177
REMARK  Name = 
REMARK  8 active torsions:
REMARK  status: ('A' for Active; 'I' for Inactive)
REMARK    1  A    between atoms: C_1  and  O_2
REMARK    2  A    between atoms: O_2  and  C_3
REMARK    3  A    between atoms: C_5  and  C_6
REMARK    4  A    between atoms: C_7  and  S_8
REMARK    5  A    between atoms: S_8  and  O_11
REMARK    6  A    between atoms: O_11  and  C_12
REMARK    7  A    between atoms: C_14  and  C_15
REMARK    8  A    between atoms: C_24  and  C_25
REMARK                            x       y       z     vdW  Elec       q    Type
REMARK                         _______ _______ _______ _____ _____    ______ ____
ROOT
ATOM      1  S   UNL     1       4.606   3.867  16.854  0.00  0.00    +0.000 S 
ATOM      2  O   UNL     1       4.761   3.630  15.433  0.00  0.00    +0.000 OA
ATOM      3  O   UNL     1       4.780   2.766  17.787  0.00  0.00    +0.000 OA
ENDROOT
BRANCH   1   8
ATOM      4  C   UNL     1       7.633   7.062  18.227  0.00  0.00    +0.000 A 
ATOM      5  C   UNL     1       6.832   7.315  17.110  0.00  0.00    +0.000 A 
ATOM      6  C   UNL     1       5.904   6.368  16.631  0.00  0.00    +0.000 A 
ATOM      7  C   UNL     1       5.082   6.757  15.432  0.00  0.00    +0.000 C 
ATOM      8  C   UNL     1       5.806   5.132  17.298  0.00  0.00    +0.000 A 
ATOM      9  C   UNL     1       6.605   4.878  18.427  0.00  0.00    +0.000 A 
ATOM     10  C   UNL     1       7.524   5.831  18.892  0.00  0.00    +0.000 A 
ATOM     11  C   UNL     1       8.367   5.535  20.102  0.00  0.00    +0.000 C 
BRANCH   4  13
ATOM     12  C   UNL     1       8.482   9.280  18.250  0.00  0.00    +0.000 C 
ATOM     13  O   UNL     1       8.574   7.935  18.707  0.00  0.00    +0.000 OA
ENDBRANCH   4  13
ENDBRANCH   1   8
BRANCH   1  14
ATOM     14  O   UNL     1       3.147   4.567  17.111  0.00  0.00    +0.000 OA
BRANCH  14  15
ATOM     15  C   UNL     1       2.715   4.854  18.397  0.00  0.00    +0.000 A 
ATOM     16  C   UNL     1       2.637   3.876  19.387  0.00  0.00    +0.000 A 
ATOM     17  C   UNL     1       2.212   4.230  20.655  0.00  0.00    +0.000 A 
ATOM     18  C   UNL     1       2.093   3.194  21.732  0.00  0.00    +0.000 C 
ATOM     19  N   UNL     1       1.883   5.495  20.984  0.00  0.00    +0.000 NA
ATOM     20  C   UNL     1       1.975   6.451  20.049  0.00  0.00    +0.000 A 
ATOM     21  C   UNL     1       1.646   7.747  20.419  0.00  0.00    +0.000 A 
ATOM     22  C   UNL     1       1.715   8.811  19.519  0.00  0.00    +0.000 A 
ATOM     23  C   UNL     1       2.126   8.577  18.215  0.00  0.00    +0.000 A 
ATOM     24  C   UNL     1       2.461   7.279  17.815  0.00  0.00    +0.000 A 
ATOM     25  C   UNL     1       2.393   6.194  18.721  0.00  0.00    +0.000 A 
ENDBRANCH  14  15
ENDBRANCH   1  14
TORSDOF 4
ENDMDL
MODEL 4
REMARK VINA RESULT:      -8.1      4.340      8.705
REMARK  Name = 
REMARK  8 active torsions:
REMARK  status: ('A' for Active; 'I' for Inactive)
REMARK    1  A    between atoms: C_1  and  O_2
REMARK    2  A    between atoms: O_2  and  C_3
REMARK    3  A    between atoms: C_5  and  C_6
REMARK    4  A    between atoms: C_7  and  S_8
REMARK    5  A    between atoms: S_8  and  O_11
REMARK    6  A    between atoms: O_11  and  C_12
REMARK    7  A    between atoms: C_14  and  C_15
REMARK    8  A    between atoms: C_24  and  C_25
REMARK                            x       y       z     vdW  Elec       q    Type
REMARK                         _______ _______ _______ _____ _____    ______ ____
ROOT
ATOM      1  S   UNL     1       0.785   8.958  21.000  0.00  0.00    +0.000 S 
ATOM      2  O   UNL     1      -0.480   8.451  21.494  0.00  0.00    +0.000 OA
ATOM      3  O   UNL     1       1.746   9.520  21.934  0.00  0.00    +0.000 OA
ENDROOT
BRANCH   1   8
ATOM      4  C   UNL     1       2.953   5.373  19.075  0.00  0.00    +0.000 A 
ATOM      5  C   UNL     1       2.924   6.596  18.400  0.00  0.00    +0.000 A 
ATOM      6  C   UNL     1       2.259   7.722  18.929  0.00  0.00    +0.000 A 
ATOM      7  C   UNL     1       2.310   8.991  18.123  0.00  0.00    +0.000 C 
ATOM      8  C   UNL     1       1.598   7.587  20.164  0.00  0.00    +0.000 A 
ATOM      9  C   UNL     1       1.631   6.359  20.850  0.00  0.00    +0.000 A 
ATOM     10  C   UNL     1       2.298   5.248  20.310  0.00  0.00    +0.000 A 
ATOM     11  C   UNL     1       2.320   3.947  21.064  0.00  0.00    +0.000 C 
BRANCH   4  13
ATOM     12  C   UNL     1       4.973   4.182  18.694  0.00  0.00    +0.000 C 
ATOM     13  O   UNL     1       3.554   4.243  18.585  0.00  0.00    +0.000 OA
ENDBRANCH   4  13
ENDBRANCH   1   8
BRANCH   1  14
ATOM     14  O   UNL     1       0.483  10.049  19.814  0.00  0.00    +0.000 OA
BRANCH  14  15
ATOM     15  C   UNL     1      -0.666  10.825  19.841  0.00  0.00    +0.000 A 
ATOM     16  C   UNL     1      -0.944  11.700  20.889  0.00  0.00    +0.000 A 
ATOM     17  C   UNL     1      -2.101  12.457  20.850  0.00  0.00    +0.000 A 
ATOM     18  C   UNL     1      -2.438  13.387  21.976  0.00  0.00    +0.000 C 
ATOM     19  N   UNL     1      -2.972  12.398  19.823  0.00  0.00    +0.000 NA
ATOM     20  C   UNL     1      -2.708  11.578  18.797  0.00  0.00    +0.000 A 
ATOM     21  C   UNL     1      -3.614  11.549  17.747  0.00  0.00    +0.000 A 
ATOM     22  C   UNL     1      -3.424  10.732  16.631  0.00  0.00    +0.000 A 
ATOM     23  C   UNL     1      -2.298   9.924  16.560  0.00  0.00    +0.000 A 
ATOM     24  C   UNL     1      -1.370   9.932  17.607  0.00  0.00    +0.000 A 
ATOM     25  C   UNL     1      -1.556  10.757  18.742  0.00  0.00    +0.000 A 
ENDBRANCH  14  15
ENDBRANCH   1  14
TORSDOF 4
ENDMDL
MODEL 5
REMARK VINA RESULT:      -8.1      3.057      5.957
REMARK  Name = 
REMARK  8 active torsions:
REMARK  status: ('A' for Active; 'I' for Inactive)
REMARK    1  A    between atoms: C_1  and  O_2
REMARK    2  A    between atoms: O_2  and  C_3
REMARK    3  A    between atoms: C_5  and  C_6
REMARK    4  A    between atoms: C_7  and  S_8
REMARK    5  A    between atoms: S_8  and  O_11
REMARK    6  A    between atoms: O_11  and  C_12
REMARK    7  A    between atoms: C_14  and  C_15
REMARK    8  A    between atoms: C_24  and  C_25
REMARK                            x       y       z     vdW  Elec       q    Type
REMARK                         _______ _______ _______ _____ _____    ______ ____
ROOT
ATOM      1  S   UNL     1       1.590   9.150  18.560  0.00  0.00    +0.000 S 
ATOM      2  O   UNL     1       0.607   8.569  17.667  0.00  0.00    +0.000 OA
ATOM      3  O   UNL     1       2.553  10.106  18.040  0.00  0.00    +0.000 OA
ENDROOT
BRANCH   1   8
ATOM      4  C   UNL     1      -0.809  11.056  22.004  0.00  0.00    +0.000 A 
ATOM      5  C   UNL     1      -0.916  11.593  20.718  0.00  0.00    +0.000 A 
ATOM      6  C   UNL     1      -0.191  11.066  19.630  0.00  0.00    +0.000 A 
ATOM      7  C   UNL     1      -0.400  11.713  18.288  0.00  0.00    +0.000 C 
ATOM      8  C   UNL     1       0.672   9.980  19.866  0.00  0.00    +0.000 A 
ATOM      9  C   UNL     1       0.776   9.432  21.158  0.00  0.00    +0.000 A 
ATOM     10  C   UNL     1       0.047   9.969  22.231  0.00  0.00    +0.000 A 
ATOM     11  C   UNL     1       0.176   9.364  23.602  0.00  0.00    +0.000 C 
BRANCH   4  13
ATOM     12  C   UNL     1      -1.578  12.974  23.177  0.00  0.00    +0.000 C 
ATOM     13  O   UNL     1      -1.464  11.557  23.099  0.00  0.00    +0.000 OA
ENDBRANCH   4  13
ENDBRANCH   1   8
BRANCH   1  14
ATOM     14  O   UNL     1       2.389   7.936  19.318  0.00  0.00    +0.000 OA
BRANCH  14  15
ATOM     15  C   UNL     1       2.867   6.848  18.604  0.00  0.00    +0.000 A 
ATOM     16  C   UNL     1       3.849   6.980  17.624  0.00  0.00    +0.000 A 
ATOM     17  C   UNL     1       4.294   5.853  16.956  0.00  0.00    +0.000 A 
ATOM     18  C   UNL     1       5.330   5.968  15.879  0.00  0.00    +0.000 C 
ATOM     19  N   UNL     1       3.828   4.617  17.228  0.00  0.00    +0.000 NA
ATOM     20  C   UNL     1       2.901   4.471  18.184  0.00  0.00    +0.000 A 
ATOM     21  C   UNL     1       2.450   3.187  18.453  0.00  0.00    +0.000 A 
ATOM     22  C   UNL     1       1.490   2.932  19.433  0.00  0.00    +0.000 A 
ATOM     23  C   UNL     1       0.967   3.987  20.167  0.00  0.00    +0.000 A 
ATOM     24  C   UNL     1       1.402   5.292  19.913  0.00  0.00    +0.000 A 
ATOM     25  C   UNL     1       2.374   5.559  18.920  0.00  0.00    +0.000 A 
ENDBRANCH  14  15
ENDBRANCH   1  14
TORSDOF 4
ENDMDL
MODEL 6
REMARK VINA RESULT:      -7.9      3.089      5.471
REMARK  Name = 
REMARK  8 active torsions:
REMARK  status: ('A' for Active; 'I' for Inactive)
REMARK    1  A    between atoms: C_1  and  O_2
REMARK    2  A    between atoms: O_2  and  C_3
REMARK    3  A    between atoms: C_5  and  C_6
REMARK    4  A    between atoms: C_7  and  S_8
REMARK    5  A    between atoms: S_8  and  O_11
REMARK    6  A    between atoms: O_11  and  C_12
REMARK    7  A    between atoms: C_14  and  C_15
REMARK    8  A    between atoms: C_24  and  C_25
REMARK                            x       y       z     vdW  Elec       q    Type
REMARK                         _______ _______ _______ _____ _____    ______ ____
ROOT
ATOM      1  S   UNL     1       1.671   9.027  18.262  0.00  0.00    +0.000 S 
ATOM      2  O   UNL     1       0.759   8.171  17.529  0.00  0.00    +0.000 OA
ATOM      3  O   UNL     1       2.360  10.101  17.566  0.00  0.00    +0.000 OA
ENDROOT
BRANCH   1   8
ATOM      4  C   UNL     1      -0.782  10.739  21.770  0.00  0.00    +0.000 A 
ATOM      5  C   UNL     1      -1.044  11.184  20.471  0.00  0.00    +0.000 A 
ATOM      6  C   UNL     1      -0.314  10.713  19.361  0.00  0.00    +0.000 A 
ATOM      7  C   UNL     1      -0.697  11.248  18.009  0.00  0.00    +0.000 C 
ATOM      8  C   UNL     1       0.716   9.781  19.588  0.00  0.00    +0.000 A 
ATOM      9  C   UNL     1       0.978   9.325  20.893  0.00  0.00    +0.000 A 
ATOM     10  C   UNL     1       0.241   9.804  21.987  0.00  0.00    +0.000 A 
ATOM     11  C   UNL     1       0.540   9.300  23.372  0.00  0.00    +0.000 C 
BRANCH   4  13
ATOM     12  C   UNL     1      -1.769  12.580  22.900  0.00  0.00    +0.000 C 
ATOM     13  O   UNL     1      -1.440  11.195  22.882  0.00  0.00    +0.000 OA
ENDBRANCH   4  13
ENDBRANCH   1   8
BRANCH   1  14
ATOM     14  O   UNL     1       2.773   8.084  19.025  0.00  0.00    +0.000 OA
BRANCH  14  15
ATOM     15  C   UNL     1       2.740   6.704  18.888  0.00  0.00    +0.000 A 
ATOM     16  C   UNL     1       1.898   5.904  19.657  0.00  0.00    +0.000 A 
ATOM     17  C   UNL     1       1.902   4.534  19.463  0.00  0.00    +0.000 A 
ATOM     18  C   UNL     1       1.026   3.647  20.294  0.00  0.00    +0.000 C 
ATOM     19  N   UNL     1       2.681   3.935  18.539  0.00  0.00    +0.000 NA
ATOM     20  C   UNL     1       3.479   4.693  17.776  0.00  0.00    +0.000 A 
ATOM     21  C   UNL     1       4.258   4.052  16.824  0.00  0.00    +0.000 A 
ATOM     22  C   UNL     1       5.117   4.755  15.978  0.00  0.00    +0.000 A 
ATOM     23  C   UNL     1       5.200   6.136  16.083  0.00  0.00    +0.000 A 
ATOM     24  C   UNL     1       4.427   6.807  17.038  0.00  0.00    +0.000 A 
ATOM     25  C   UNL     1       3.555   6.102  17.900  0.00  0.00    +0.000 A 
ENDBRANCH  14  15
ENDBRANCH   1  14
TORSDOF 4
ENDMDL
MODEL 7
REMARK VINA RESULT:      -7.8      0.709      1.073
REMARK  Name = 
REMARK  8 active torsions:
REMARK  status: ('A' for Active; 'I' for Inactive)
REMARK    1  A    between atoms: C_1  and  O_2
REMARK    2  A    between atoms: O_2  and  C_3
REMARK    3  A    between atoms: C_5  and  C_6
REMARK    4  A    between atoms: C_7  and  S_8
REMARK    5  A    between atoms: S_8  and  O_11
REMARK    6  A    between atoms: O_11  and  C_12
REMARK    7  A    between atoms: C_14  and  C_15
REMARK    8  A    between atoms: C_24  and  C_25
REMARK                            x       y       z     vdW  Elec       q    Type
REMARK                         _______ _______ _______ _____ _____    ______ ____
ROOT
ATOM      1  S   UNL     1       3.446   3.748  18.080  0.00  0.00    +0.000 S 
ATOM      2  O   UNL     1       2.902   2.599  18.776  0.00  0.00    +0.000 OA
ATOM      3  O   UNL     1       3.217   3.895  16.653  0.00  0.00    +0.000 OA
ENDROOT
BRANCH   1   8
ATOM      4  C   UNL     1       1.862   7.618  20.020  0.00  0.00    +0.000 A 
ATOM      5  C   UNL     1       1.869   6.434  20.763  0.00  0.00    +0.000 A 
ATOM      6  C   UNL     1       2.322   5.216  20.218  0.00  0.00    +0.000 A 
ATOM      7  C   UNL     1       2.302   4.010  21.117  0.00  0.00    +0.000 C 
ATOM      8  C   UNL     1       2.760   5.206  18.880  0.00  0.00    +0.000 A 
ATOM      9  C   UNL     1       2.761   6.397  18.131  0.00  0.00    +0.000 A 
ATOM     10  C   UNL     1       2.307   7.602  18.690  0.00  0.00    +0.000 A 
ATOM     11  C   UNL     1       2.320   8.863  17.869  0.00  0.00    +0.000 C 
BRANCH   4  13
ATOM     12  C   UNL     1       1.294   8.941  21.910  0.00  0.00    +0.000 C 
ATOM     13  O   UNL     1       1.397   8.817  20.495  0.00  0.00    +0.000 OA
ENDBRANCH   4  13
ENDBRANCH   1   8
BRANCH   1  14
ATOM     14  O   UNL     1       5.056   3.826  18.380  0.00  0.00    +0.000 OA
BRANCH  14  15
ATOM     15  C   UNL     1       5.862   4.720  17.692  0.00  0.00    +0.000 A 
ATOM     16  C   UNL     1       6.479   5.798  18.325  0.00  0.00    +0.000 A 
ATOM     17  C   UNL     1       7.283   6.646  17.585  0.00  0.00    +0.000 A 
ATOM     18  C   UNL     1       7.938   7.828  18.233  0.00  0.00    +0.000 C 
ATOM     19  N   UNL     1       7.514   6.464  16.269  0.00  0.00    +0.000 NA
ATOM     20  C   UNL     1       6.946   5.419  15.652  0.00  0.00    +0.000 A 
ATOM     21  C   UNL     1       7.212   5.247  14.301  0.00  0.00    +0.000 A 
ATOM     22  C   UNL     1       6.673   4.186  13.572  0.00  0.00    +0.000 A 
ATOM     23  C   UNL     1       5.846   3.270  14.209  0.00  0.00    +0.000 A 
ATOM     24  C   UNL     1       5.559   3.423  15.569  0.00  0.00    +0.000 A 
ATOM     25  C   UNL     1       6.102   4.496  16.315  0.00  0.00    +0.000 A 
ENDBRANCH  14  15
ENDBRANCH   1  14
TORSDOF 4
ENDMDL
MODEL 8
REMARK VINA RESULT:      -7.7      1.072      1.391
REMARK  Name = 
REMARK  8 active torsions:
REMARK  status: ('A' for Active; 'I' for Inactive)
REMARK    1  A    between atoms: C_1  and  O_2
REMARK    2  A    between atoms: O_2  and  C_3
REMARK    3  A    between atoms: C_5  and  C_6
REMARK    4  A    between atoms: C_7  and  S_8
REMARK    5  A    between atoms: S_8  and  O_11
REMARK    6  A    between atoms: O_11  and  C_12
REMARK    7  A    between atoms: C_14  and  C_15
REMARK    8  A    between atoms: C_24  and  C_25
REMARK                            x       y       z     vdW  Elec       q    Type
REMARK                         _______ _______ _______ _____ _____    ______ ____
ROOT
ATOM      1  S   UNL     1       2.494   3.215  17.564  0.00  0.00    +0.000 S 
ATOM      2  O   UNL     1       1.627   2.199  18.126  0.00  0.00    +0.000 OA
ATOM      3  O   UNL     1       2.320   3.620  16.179  0.00  0.00    +0.000 OA
ENDROOT
BRANCH   1   8
ATOM      4  C   UNL     1       2.124   7.098  20.022  0.00  0.00    +0.000 A 
ATOM      5  C   UNL     1       2.053   5.866  20.677  0.00  0.00    +0.000 A 
ATOM      6  C   UNL     1       2.139   4.645  19.976  0.00  0.00    +0.000 A 
ATOM      7  C   UNL     1       2.070   3.381  20.788  0.00  0.00    +0.000 C 
ATOM      8  C   UNL     1       2.284   4.688  18.577  0.00  0.00    +0.000 A 
ATOM      9  C   UNL     1       2.363   5.927  17.915  0.00  0.00    +0.000 A 
ATOM     10  C   UNL     1       2.276   7.133  18.628  0.00  0.00    +0.000 A 
ATOM     11  C   UNL     1       2.365   8.445  17.897  0.00  0.00    +0.000 C 
BRANCH   4  13
ATOM     12  C   UNL     1       0.752   8.590  21.260  0.00  0.00    +0.000 C 
ATOM     13  O   UNL     1       2.009   8.309  20.655  0.00  0.00    +0.000 OA
ENDBRANCH   4  13
ENDBRANCH   1   8
BRANCH   1  14
ATOM     14  O   UNL     1       4.052   2.764  17.804  0.00  0.00    +0.000 OA
BRANCH  14  15
ATOM     15  C   UNL     1       5.082   3.684  17.684  0.00  0.00    +0.000 A 
ATOM     16  C   UNL     1       5.666   4.290  18.795  0.00  0.00    +0.000 A 
ATOM     17  C   UNL     1       6.701   5.189  18.610  0.00  0.00    +0.000 A 
ATOM     18  C   UNL     1       7.329   5.876  19.784  0.00  0.00    +0.000 C 
ATOM     19  N   UNL     1       7.187   5.494  17.389  0.00  0.00    +0.000 NA
ATOM     20  C   UNL     1       6.651   4.902  16.313  0.00  0.00    +0.000 A 
ATOM     21  C   UNL     1       7.181   5.224  15.072  0.00  0.00    +0.000 A 
ATOM     22  C   UNL     1       6.695   4.656  13.894  0.00  0.00    +0.000 A 
ATOM     23  C   UNL     1       5.654   3.740  13.955  0.00  0.00    +0.000 A 
ATOM     24  C   UNL     1       5.100   3.402  15.194  0.00  0.00    +0.000 A 
ATOM     25  C   UNL     1       5.586   3.973  16.393  0.00  0.00    +0.000 A 
ENDBRANCH  14  15
ENDBRANCH   1  14
TORSDOF 4
ENDMDL
MODEL 9
REMARK VINA RESULT:      -7.7      2.734      5.044
REMARK  Name = 
REMARK  8 active torsions:
REMARK  status: ('A' for Active; 'I' for Inactive)
REMARK    1  A    between atoms: C_1  and  O_2
REMARK    2  A    between atoms: O_2  and  C_3
REMARK    3  A    between atoms: C_5  and  C_6
REMARK    4  A    between atoms: C_7  and  S_8
REMARK    5  A    between atoms: S_8  and  O_11
REMARK    6  A    between atoms: O_11  and  C_12
REMARK    7  A    between atoms: C_14  and  C_15
REMARK    8  A    between atoms: C_24  and  C_25
REMARK                            x       y       z     vdW  Elec       q    Type
REMARK                         _______ _______ _______ _____ _____    ______ ____
ROOT
ATOM      1  S   UNL     1       1.915   8.557  18.229  0.00  0.00    +0.000 S 
ATOM      2  O   UNL     1       0.823   7.944  17.497  0.00  0.00    +0.000 OA
ATOM      3  O   UNL     1       2.788   9.501  17.554  0.00  0.00    +0.000 OA
ENDROOT
BRANCH   1   8
ATOM      4  C   UNL     1       0.165  10.963  21.750  0.00  0.00    +0.000 A 
ATOM      5  C   UNL     1       0.408   9.596  21.910  0.00  0.00    +0.000 A 
ATOM      6  C   UNL     1       0.922   8.804  20.864  0.00  0.00    +0.000 A 
ATOM      7  C   UNL     1       1.162   7.348  21.157  0.00  0.00    +0.000 C 
ATOM      8  C   UNL     1       1.177   9.421  19.624  0.00  0.00    +0.000 A 
ATOM      9  C   UNL     1       0.941  10.798  19.461  0.00  0.00    +0.000 A 
ATOM     10  C   UNL     1       0.429  11.572  20.514  0.00  0.00    +0.000 A 
ATOM     11  C   UNL     1       0.186  13.043  20.315  0.00  0.00    +0.000 C 
BRANCH   4  13
ATOM     12  C   UNL     1      -1.693  11.458  23.145  0.00  0.00    +0.000 C 
ATOM     13  O   UNL     1      -0.368  11.765  22.726  0.00  0.00    +0.000 OA
ENDBRANCH   4  13
ENDBRANCH   1   8
BRANCH   1  14
ATOM     14  O   UNL     1       2.821   7.370  18.905  0.00  0.00    +0.000 OA
BRANCH  14  15
ATOM     15  C   UNL     1       3.303   6.321  18.136  0.00  0.00    +0.000 A 
ATOM     16  C   UNL     1       4.373   6.478  17.258  0.00  0.00    +0.000 A 
ATOM     17  C   UNL     1       4.816   5.389  16.529  0.00  0.00    +0.000 A 
ATOM     18  C   UNL     1       5.947   5.536  15.557  0.00  0.00    +0.000 C 
ATOM     19  N   UNL     1       4.264   4.165  16.647  0.00  0.00    +0.000 NA
ATOM     20  C   UNL     1       3.249   3.992  17.505  0.00  0.00    +0.000 A 
ATOM     21  C   UNL     1       2.711   2.719  17.616  0.00  0.00    +0.000 A 
ATOM     22  C   UNL     1       1.656   2.438  18.486  0.00  0.00    +0.000 A 
ATOM     23  C   UNL     1       1.125   3.454  19.267  0.00  0.00    +0.000 A 
ATOM     24  C   UNL     1       1.649   4.748  19.171  0.00  0.00    +0.000 A 
ATOM     25  C   UNL     1       2.717   5.042  18.292  0.00  0.00    +0.000 A 
ENDBRANCH  14  15
ENDBRANCH   1  14
TORSDOF 4
ENDMDL
