MODEL 1
REMARK VINA RESULT:      -7.5      0.000      0.000
REMARK  Name = 
REMARK  1 active torsions:
REMARK  status: ('A' for Active; 'I' for Inactive)
REMARK    1  A    between atoms: C_8  and  C_9
REMARK                            x       y       z     vdW  Elec       q    Type
REMARK                         _______ _______ _______ _____ _____    ______ ____
ROOT
ATOM      1  C   UNL     1       4.289   4.168  17.970  0.00  0.00    +0.000 A 
ATOM      2  N   UNL     1       5.551   4.501  18.185  0.00  0.00    +0.000 NA
ATOM      3  C   UNL     1       6.075   4.620  16.932  0.00  0.00    +0.000 A 
ATOM      4  N   UNL     1       7.347   4.959  16.618  0.00  0.00    +0.000 NA
ATOM      5  C   UNL     1       7.593   4.973  15.288  0.00  0.00    +0.000 A 
ATOM      6  C   UNL     1       6.674   4.664  14.283  0.00  0.00    +0.000 A 
ATOM      7  C   UNL     1       5.363   4.322  14.622  0.00  0.00    +0.000 A 
ATOM      8  C   UNL     1       5.112   4.328  15.984  0.00  0.00    +0.000 A 
ATOM      9  O   UNL     1       3.948   4.065  16.641  0.00  0.00    +0.000 OA
ENDROOT
BRANCH   1  17
ATOM     10 CL   UNL     1       2.866   6.656  19.301  0.00  0.00    +0.000 Cl
ATOM     11  C   UNL     1       2.538   4.977  19.593  0.00  0.00    +0.000 A 
ATOM     12  C   UNL     1       1.497   4.719  20.499  0.00  0.00    +0.000 A 
ATOM     13  C   UNL     1       1.105   3.412  20.771  0.00  0.00    +0.000 A 
ATOM     14  C   UNL     1       1.763   2.361  20.146  0.00  0.00    +0.000 A 
ATOM     15  C   UNL     1       2.814   2.611  19.250  0.00  0.00    +0.000 A 
ATOM     16 CL   UNL     1       3.584   1.200  18.595  0.00  0.00    +0.000 Cl
ATOM     17  C   UNL     1       3.224   3.926  18.947  0.00  0.00    +0.000 A 
ENDBRANCH   1  17
TORSDOF 1
ENDMDL
MODEL 2
REMARK VINA RESULT:      -7.5      0.072      2.232
REMARK  Name = 
REMARK  1 active torsions:
REMARK  status: ('A' for Active; 'I' for Inactive)
REMARK    1  A    between atoms: C_8  and  C_9
REMARK                            x       y       z     vdW  Elec       q    Type
REMARK                         _______ _______ _______ _____ _____    ______ ____
ROOT
ATOM      1  C   UNL     1       4.274   4.180  17.922  0.00  0.00    +0.000 A 
ATOM      2  N   UNL     1       5.521   4.557  18.150  0.00  0.00    +0.000 NA
ATOM      3  C   UNL     1       6.064   4.662  16.904  0.00  0.00    +0.000 A 
ATOM      4  N   UNL     1       7.330   5.034  16.603  0.00  0.00    +0.000 NA
ATOM      5  C   UNL     1       7.599   5.021  15.276  0.00  0.00    +0.000 A 
ATOM      6  C   UNL     1       6.708   4.658  14.265  0.00  0.00    +0.000 A 
ATOM      7  C   UNL     1       5.403   4.283  14.590  0.00  0.00    +0.000 A 
ATOM      8  C   UNL     1       5.127   4.316  15.947  0.00  0.00    +0.000 A 
ATOM      9  O   UNL     1       3.961   4.032  16.591  0.00  0.00    +0.000 OA
ENDROOT
BRANCH   1  17
ATOM     10 CL   UNL     1       3.532   1.186  18.611  0.00  0.00    +0.000 Cl
ATOM     11  C   UNL     1       2.800   2.624  19.249  0.00  0.00    +0.000 A 
ATOM     12  C   UNL     1       1.793   2.410  20.203  0.00  0.00    +0.000 A 
ATOM     13  C   UNL     1       1.170   3.486  20.827  0.00  0.00    +0.000 A 
ATOM     14  C   UNL     1       1.547   4.779  20.489  0.00  0.00    +0.000 A 
ATOM     15  C   UNL     1       2.545   5.002  19.526  0.00  0.00    +0.000 A 
ATOM     16 CL   UNL     1       2.867   6.667  19.159  0.00  0.00    +0.000 Cl
ATOM     17  C   UNL     1       3.200   3.929  18.887  0.00  0.00    +0.000 A 
ENDBRANCH   1  17
TORSDOF 1
ENDMDL
MODEL 3
REMARK VINA RESULT:      -7.3      2.065      3.068
REMARK  Name = 
REMARK  1 active torsions:
REMARK  status: ('A' for Active; 'I' for Inactive)
REMARK    1  A    between atoms: C_8  and  C_9
REMARK                            x       y       z     vdW  Elec       q    Type
REMARK                         _______ _______ _______ _____ _____    ______ ____
ROOT
ATOM      1  C   UNL     1       4.255   4.609  18.946  0.00  0.00    +0.000 A 
ATOM      2  N   UNL     1       5.388   4.455  19.611  0.00  0.00    +0.000 NA
ATOM      3  C   UNL     1       6.228   5.363  19.039  0.00  0.00    +0.000 A 
ATOM      4  N   UNL     1       7.515   5.601  19.382  0.00  0.00    +0.000 NA
ATOM      5  C   UNL     1       8.116   6.544  18.620  0.00  0.00    +0.000 A 
ATOM      6  C   UNL     1       7.527   7.234  17.558  0.00  0.00    +0.000 A 
ATOM      7  C   UNL     1       6.196   6.984  17.220  0.00  0.00    +0.000 A 
ATOM      8  C   UNL     1       5.581   6.031  18.015  0.00  0.00    +0.000 A 
ATOM      9  O   UNL     1       4.298   5.574  17.966  0.00  0.00    +0.000 OA
ENDROOT
BRANCH   1  17
ATOM     10 CL   UNL     1       3.929   1.699  17.757  0.00  0.00    +0.000 Cl
ATOM     11  C   UNL     1       2.744   2.616  18.632  0.00  0.00    +0.000 A 
ATOM     12  C   UNL     1       1.525   1.957  18.857  0.00  0.00    +0.000 A 
ATOM     13  C   UNL     1       0.517   2.568  19.596  0.00  0.00    +0.000 A 
ATOM     14  C   UNL     1       0.724   3.845  20.101  0.00  0.00    +0.000 A 
ATOM     15  C   UNL     1       1.935   4.516  19.869  0.00  0.00    +0.000 A 
ATOM     16 CL   UNL     1       2.028   6.127  20.506  0.00  0.00    +0.000 Cl
ATOM     17  C   UNL     1       2.978   3.914  19.134  0.00  0.00    +0.000 A 
ENDBRANCH   1  17
TORSDOF 1
ENDMDL
MODEL 4
REMARK VINA RESULT:      -7.3      2.155      3.269
REMARK  Name = 
REMARK  1 active torsions:
REMARK  status: ('A' for Active; 'I' for Inactive)
REMARK    1  A    between atoms: C_8  and  C_9
REMARK                            x       y       z     vdW  Elec       q    Type
REMARK                         _______ _______ _______ _____ _____    ______ ____
ROOT
ATOM      1  C   UNL     1       4.091   4.971  18.650  0.00  0.00    +0.000 A 
ATOM      2  N   UNL     1       4.251   5.839  17.665  0.00  0.00    +0.000 NA
ATOM      3  C   UNL     1       5.551   6.233  17.784  0.00  0.00    +0.000 A 
ATOM      4  N   UNL     1       6.204   7.113  16.991  0.00  0.00    +0.000 NA
ATOM      5  C   UNL     1       7.486   7.334  17.365  0.00  0.00    +0.000 A 
ATOM      6  C   UNL     1       8.130   6.753  18.459  0.00  0.00    +0.000 A 
ATOM      7  C   UNL     1       7.445   5.841  19.265  0.00  0.00    +0.000 A 
ATOM      8  C   UNL     1       6.140   5.605  18.867  0.00  0.00    +0.000 A 
ATOM      9  O   UNL     1       5.217   4.766  19.414  0.00  0.00    +0.000 OA
ENDROOT
BRANCH   1  17
ATOM     10 CL   UNL     1       3.834   2.008  17.582  0.00  0.00    +0.000 Cl
ATOM     11  C   UNL     1       2.700   2.871  18.572  0.00  0.00    +0.000 A 
ATOM     12  C   UNL     1       1.565   2.139  18.958  0.00  0.00    +0.000 A 
ATOM     13  C   UNL     1       0.612   2.705  19.798  0.00  0.00    +0.000 A 
ATOM     14  C   UNL     1       0.786   4.009  20.242  0.00  0.00    +0.000 A 
ATOM     15  C   UNL     1       1.910   4.752  19.849  0.00  0.00    +0.000 A 
ATOM     16 CL   UNL     1       1.963   6.387  20.429  0.00  0.00    +0.000 Cl
ATOM     17  C   UNL     1       2.899   4.198  19.008  0.00  0.00    +0.000 A 
ENDBRANCH   1  17
TORSDOF 1
ENDMDL
MODEL 5
REMARK VINA RESULT:      -7.3      2.078      2.257
REMARK  Name = 
REMARK  1 active torsions:
REMARK  status: ('A' for Active; 'I' for Inactive)
REMARK    1  A    between atoms: C_8  and  C_9
REMARK                            x       y       z     vdW  Elec       q    Type
REMARK                         _______ _______ _______ _____ _____    ______ ____
ROOT
ATOM      1  C   UNL     1       4.265   4.609  19.031  0.00  0.00    +0.000 A 
ATOM      2  N   UNL     1       5.396   4.487  19.706  0.00  0.00    +0.000 NA
ATOM      3  C   UNL     1       6.233   5.379  19.104  0.00  0.00    +0.000 A 
ATOM      4  N   UNL     1       7.517   5.638  19.443  0.00  0.00    +0.000 NA
ATOM      5  C   UNL     1       8.115   6.556  18.649  0.00  0.00    +0.000 A 
ATOM      6  C   UNL     1       7.526   7.203  17.560  0.00  0.00    +0.000 A 
ATOM      7  C   UNL     1       6.198   6.931  17.226  0.00  0.00    +0.000 A 
ATOM      8  C   UNL     1       5.586   6.004  18.053  0.00  0.00    +0.000 A 
ATOM      9  O   UNL     1       4.307   5.537  18.016  0.00  0.00    +0.000 OA
ENDROOT
BRANCH   1  17
ATOM     10 CL   UNL     1       1.996   6.070  20.675  0.00  0.00    +0.000 Cl
ATOM     11  C   UNL     1       1.927   4.489  19.965  0.00  0.00    +0.000 A 
ATOM     12  C   UNL     1       0.704   3.816  20.120  0.00  0.00    +0.000 A 
ATOM     13  C   UNL     1       0.509   2.563  19.546  0.00  0.00    +0.000 A 
ATOM     14  C   UNL     1       1.542   1.977  18.826  0.00  0.00    +0.000 A 
ATOM     15  C   UNL     1       2.772   2.638  18.679  0.00  0.00    +0.000 A 
ATOM     16 CL   UNL     1       3.989   1.758  17.809  0.00  0.00    +0.000 Cl
ATOM     17  C   UNL     1       2.992   3.913  19.240  0.00  0.00    +0.000 A 
ENDBRANCH   1  17
TORSDOF 1
ENDMDL
MODEL 6
REMARK VINA RESULT:      -7.3      2.164      2.532
REMARK  Name = 
REMARK  1 active torsions:
REMARK  status: ('A' for Active; 'I' for Inactive)
REMARK    1  A    between atoms: C_8  and  C_9
REMARK                            x       y       z     vdW  Elec       q    Type
REMARK                         _______ _______ _______ _____ _____    ______ ____
ROOT
ATOM      1  C   UNL     1       4.117   4.938  18.659  0.00  0.00    +0.000 A 
ATOM      2  N   UNL     1       4.267   5.805  17.671  0.00  0.00    +0.000 NA
ATOM      3  C   UNL     1       5.562   6.217  17.792  0.00  0.00    +0.000 A 
ATOM      4  N   UNL     1       6.205   7.103  16.998  0.00  0.00    +0.000 NA
ATOM      5  C   UNL     1       7.483   7.342  17.373  0.00  0.00    +0.000 A 
ATOM      6  C   UNL     1       8.133   6.774  18.470  0.00  0.00    +0.000 A 
ATOM      7  C   UNL     1       7.459   5.854  19.277  0.00  0.00    +0.000 A 
ATOM      8  C   UNL     1       6.157   5.600  18.877  0.00  0.00    +0.000 A 
ATOM      9  O   UNL     1       5.244   4.751  19.426  0.00  0.00    +0.000 OA
ENDROOT
BRANCH   1  17
ATOM     10 CL   UNL     1       1.919   6.265  20.501  0.00  0.00    +0.000 Cl
ATOM     11  C   UNL     1       1.907   4.662  19.838  0.00  0.00    +0.000 A 
ATOM     12  C   UNL     1       0.767   3.899  20.138  0.00  0.00    +0.000 A 
ATOM     13  C   UNL     1       0.616   2.618  19.617  0.00  0.00    +0.000 A 
ATOM     14  C   UNL     1       1.613   2.093  18.805  0.00  0.00    +0.000 A 
ATOM     15  C   UNL     1       2.763   2.844  18.512  0.00  0.00    +0.000 A 
ATOM     16 CL   UNL     1       3.951   2.038  17.538  0.00  0.00    +0.000 Cl
ATOM     17  C   UNL     1       2.935   4.150  19.017  0.00  0.00    +0.000 A 
ENDBRANCH   1  17
TORSDOF 1
ENDMDL
MODEL 7
REMARK VINA RESULT:      -7.0      1.098      1.439
REMARK  Name = 
REMARK  1 active torsions:
REMARK  status: ('A' for Active; 'I' for Inactive)
REMARK    1  A    between atoms: C_8  and  C_9
REMARK                            x       y       z     vdW  Elec       q    Type
REMARK                         _______ _______ _______ _____ _____    ______ ____
ROOT
ATOM      1  C   UNL     1       4.051   4.107  17.898  0.00  0.00    +0.000 A 
ATOM      2  N   UNL     1       3.842   4.013  16.595  0.00  0.00    +0.000 NA
ATOM      3  C   UNL     1       5.057   4.302  16.047  0.00  0.00    +0.000 A 
ATOM      4  N   UNL     1       5.363   4.326  14.730  0.00  0.00    +0.000 NA
ATOM      5  C   UNL     1       6.646   4.674  14.477  0.00  0.00    +0.000 A 
ATOM      6  C   UNL     1       7.609   5.003  15.434  0.00  0.00    +0.000 A 
ATOM      7  C   UNL     1       7.279   4.967  16.790  0.00  0.00    +0.000 A 
ATOM      8  C   UNL     1       5.970   4.592  17.044  0.00  0.00    +0.000 A 
ATOM      9  O   UNL     1       5.341   4.440  18.243  0.00  0.00    +0.000 OA
ENDROOT
BRANCH   1  17
ATOM     10 CL   UNL     1       2.756   6.617  19.315  0.00  0.00    +0.000 Cl
ATOM     11  C   UNL     1       2.488   4.944  19.689  0.00  0.00    +0.000 A 
ATOM     12  C   UNL     1       1.562   4.701  20.716  0.00  0.00    +0.000 A 
ATOM     13  C   UNL     1       1.222   3.399  21.068  0.00  0.00    +0.000 A 
ATOM     14  C   UNL     1       1.819   2.337  20.401  0.00  0.00    +0.000 A 
ATOM     15  C   UNL     1       2.757   2.571  19.383  0.00  0.00    +0.000 A 
ATOM     16 CL   UNL     1       3.466   1.151  18.683  0.00  0.00    +0.000 Cl
ATOM     17  C   UNL     1       3.109   3.882  18.997  0.00  0.00    +0.000 A 
ENDBRANCH   1  17
TORSDOF 1
ENDMDL
MODEL 8
REMARK VINA RESULT:      -6.9      1.114      1.192
REMARK  Name = 
REMARK  1 active torsions:
REMARK  status: ('A' for Active; 'I' for Inactive)
REMARK    1  A    between atoms: C_8  and  C_9
REMARK                            x       y       z     vdW  Elec       q    Type
REMARK                         _______ _______ _______ _____ _____    ______ ____
ROOT
ATOM      1  C   UNL     1       4.574   4.937  17.657  0.00  0.00    +0.000 A 
ATOM      2  N   UNL     1       5.762   5.507  17.538  0.00  0.00    +0.000 NA
ATOM      3  C   UNL     1       6.158   5.177  16.276  0.00  0.00    +0.000 A 
ATOM      4  N   UNL     1       7.314   5.538  15.673  0.00  0.00    +0.000 NA
ATOM      5  C   UNL     1       7.452   5.040  14.422  0.00  0.00    +0.000 A 
ATOM      6  C   UNL     1       6.536   4.217  13.763  0.00  0.00    +0.000 A 
ATOM      7  C   UNL     1       5.344   3.859  14.396  0.00  0.00    +0.000 A 
ATOM      8  C   UNL     1       5.200   4.386  15.669  0.00  0.00    +0.000 A 
ATOM      9  O   UNL     1       4.160   4.250  16.539  0.00  0.00    +0.000 OA
ENDROOT
BRANCH   1  17
ATOM     10 CL   UNL     1       2.853   7.542  18.142  0.00  0.00    +0.000 Cl
ATOM     11  C   UNL     1       2.848   6.088  19.088  0.00  0.00    +0.000 A 
ATOM     12  C   UNL     1       1.946   6.076  20.164  0.00  0.00    +0.000 A 
ATOM     13  C   UNL     1       1.811   4.945  20.962  0.00  0.00    +0.000 A 
ATOM     14  C   UNL     1       2.589   3.827  20.692  0.00  0.00    +0.000 A 
ATOM     15  C   UNL     1       3.504   3.835  19.627  0.00  0.00    +0.000 A 
ATOM     16 CL   UNL     1       4.452   2.393  19.448  0.00  0.00    +0.000 Cl
ATOM     17  C   UNL     1       3.651   4.965  18.795  0.00  0.00    +0.000 A 
ENDBRANCH   1  17
TORSDOF 1
ENDMDL
MODEL 9
REMARK VINA RESULT:      -6.9      1.104      2.658
REMARK  Name = 
REMARK  1 active torsions:
REMARK  status: ('A' for Active; 'I' for Inactive)
REMARK    1  A    between atoms: C_8  and  C_9
REMARK                            x       y       z     vdW  Elec       q    Type
REMARK                         _______ _______ _______ _____ _____    ______ ____
ROOT
ATOM      1  C   UNL     1       4.032   4.089  17.892  0.00  0.00    +0.000 A 
ATOM      2  N   UNL     1       3.827   4.036  16.586  0.00  0.00    +0.000 NA
ATOM      3  C   UNL     1       5.050   4.318  16.052  0.00  0.00    +0.000 A 
ATOM      4  N   UNL     1       5.364   4.373  14.737  0.00  0.00    +0.000 NA
ATOM      5  C   UNL     1       6.655   4.703  14.500  0.00  0.00    +0.000 A 
ATOM      6  C   UNL     1       7.618   4.986  15.470  0.00  0.00    +0.000 A 
ATOM      7  C   UNL     1       7.281   4.918  16.824  0.00  0.00    +0.000 A 
ATOM      8  C   UNL     1       5.964   4.561  17.061  0.00  0.00    +0.000 A 
ATOM      9  O   UNL     1       5.326   4.387  18.252  0.00  0.00    +0.000 OA
ENDROOT
BRANCH   1  17
ATOM     10 CL   UNL     1       3.407   1.106  18.726  0.00  0.00    +0.000 Cl
ATOM     11  C   UNL     1       2.739   2.552  19.415  0.00  0.00    +0.000 A 
ATOM     12  C   UNL     1       1.852   2.351  20.484  0.00  0.00    +0.000 A 
ATOM     13  C   UNL     1       1.296   3.436  21.154  0.00  0.00    +0.000 A 
ATOM     14  C   UNL     1       1.617   4.724  20.746  0.00  0.00    +0.000 A 
ATOM     15  C   UNL     1       2.493   4.933  19.669  0.00  0.00    +0.000 A 
ATOM     16 CL   UNL     1       2.753   6.591  19.232  0.00  0.00    +0.000 Cl
ATOM     17  C   UNL     1       3.081   3.850  18.980  0.00  0.00    +0.000 A 
ENDBRANCH   1  17
TORSDOF 1
ENDMDL
