MODEL 1
REMARK VINA RESULT:      -8.3      0.000      0.000
REMARK  Name = 
REMARK  8 active torsions:
REMARK  status: ('A' for Active; 'I' for Inactive)
REMARK    1  A    between atoms: C_1  and  O_2
REMARK    2  A    between atoms: O_2  and  C_3
REMARK    3  A    between atoms: C_6  and  C_7
REMARK    4  A    between atoms: C_11  and  C_12
REMARK    5  A    between atoms: C_14  and  N_15
REMARK    6  A    between atoms: N_15  and  C_16
REMARK    7  A    between atoms: C_24  and  O_25
REMARK    8  A    between atoms: O_25  and  C_26
REMARK                            x       y       z     vdW  Elec       q    Type
REMARK                         _______ _______ _______ _____ _____    ______ ____
ROOT
ATOM      1  C   UNL     1       2.894   7.526  18.247  0.00  0.00    +0.000 A 
ATOM      2  C   UNL     1       2.465   8.635  17.498  0.00  0.00    +0.000 A 
ATOM      3  N   UNL     1       1.595   9.586  17.908  0.00  0.00    +0.000 NA
ATOM      4  C   UNL     1       1.113   9.452  19.154  0.00  0.00    +0.000 A 
ATOM      5  C   UNL     1       1.451   8.414  20.010  0.00  0.00    +0.000 A 
ATOM      6  C   UNL     1       2.345   7.412  19.560  0.00  0.00    +0.000 A 
ENDROOT
BRANCH   1  10
ATOM      7  C   UNL     1       5.768   4.828  16.400  0.00  0.00    +0.000 A 
ATOM      8  C   UNL     1       4.466   4.401  16.689  0.00  0.00    +0.000 A 
ATOM      9  C   UNL     1       3.538   5.257  17.299  0.00  0.00    +0.000 A 
ATOM     10  C   UNL     1       3.867   6.577  17.629  0.00  0.00    +0.000 A 
ATOM     11  C   UNL     1       5.205   6.958  17.391  0.00  0.00    +0.000 A 
ATOM     12  C   UNL     1       6.163   6.103  16.813  0.00  0.00    +0.000 A 
BRANCH   7  14
ATOM     13  C   UNL     1       6.455   3.881  14.350  0.00  0.00    +0.000 C 
ATOM     14  O   UNL     1       6.658   4.012  15.756  0.00  0.00    +0.000 OA
ENDBRANCH   7  14
BRANCH  12  15
ATOM     15  O   UNL     1       7.394   6.697  16.727  0.00  0.00    +0.000 OA
ATOM     16  C   UNL     1       7.675   7.834  17.527  0.00  0.00    +0.000 C 
ENDBRANCH  12  15
ENDBRANCH   1  10
BRANCH   5  17
ATOM     17  C   UNL     1       0.800   8.394  21.282  0.00  0.00    +0.000 C 
ATOM     18  N   UNL     1       0.247   8.440  22.303  0.00  0.00    +0.000 NA
ENDBRANCH   5  17
BRANCH   6  19
ATOM     19  N   UNL     1       2.693   6.314  20.391  0.00  0.00    +0.000 N 
ATOM     20  H   UNL     1       3.372   6.545  21.112  0.00  0.00    +0.000 HD
BRANCH  19  21
ATOM     21  C   UNL     1       2.153   5.016  20.499  0.00  0.00    +0.000 A 
ATOM     22  C   UNL     1       2.496   4.231  21.612  0.00  0.00    +0.000 A 
ATOM     23  C   UNL     1       2.056   2.905  21.733  0.00  0.00    +0.000 A 
ATOM     24  C   UNL     1       1.271   2.344  20.731  0.00  0.00    +0.000 A 
ATOM     25  C   UNL     1       0.928   3.113  19.628  0.00  0.00    +0.000 A 
ATOM     26  F   UNL     1       0.171   2.575  18.662  0.00  0.00    +0.000 F 
ATOM     27  C   UNL     1       1.355   4.435  19.507  0.00  0.00    +0.000 A 
ENDBRANCH  19  21
ENDBRANCH   6  19
TORSDOF 6
ENDMDL
MODEL 2
REMARK VINA RESULT:      -8.1      1.027      1.248
REMARK  Name = 
REMARK  8 active torsions:
REMARK  status: ('A' for Active; 'I' for Inactive)
REMARK    1  A    between atoms: C_1  and  O_2
REMARK    2  A    between atoms: O_2  and  C_3
REMARK    3  A    between atoms: C_6  and  C_7
REMARK    4  A    between atoms: C_11  and  C_12
REMARK    5  A    between atoms: C_14  and  N_15
REMARK    6  A    between atoms: N_15  and  C_16
REMARK    7  A    between atoms: C_24  and  O_25
REMARK    8  A    between atoms: O_25  and  C_26
REMARK                            x       y       z     vdW  Elec       q    Type
REMARK                         _______ _______ _______ _____ _____    ______ ____
ROOT
ATOM      1  C   UNL     1       2.694   7.592  18.303  0.00  0.00    +0.000 A 
ATOM      2  C   UNL     1       2.252   8.667  17.513  0.00  0.00    +0.000 A 
ATOM      3  N   UNL     1       1.407   9.649  17.902  0.00  0.00    +0.000 NA
ATOM      4  C   UNL     1       0.968   9.586  19.170  0.00  0.00    +0.000 A 
ATOM      5  C   UNL     1       1.324   8.589  20.066  0.00  0.00    +0.000 A 
ATOM      6  C   UNL     1       2.190   7.553  19.637  0.00  0.00    +0.000 A 
ENDROOT
BRANCH   1  10
ATOM      7  C   UNL     1       5.471   4.766  16.500  0.00  0.00    +0.000 A 
ATOM      8  C   UNL     1       4.169   4.377  16.835  0.00  0.00    +0.000 A 
ATOM      9  C   UNL     1       3.272   5.275  17.431  0.00  0.00    +0.000 A 
ATOM     10  C   UNL     1       3.634   6.600  17.700  0.00  0.00    +0.000 A 
ATOM     11  C   UNL     1       4.973   6.944  17.418  0.00  0.00    +0.000 A 
ATOM     12  C   UNL     1       5.900   6.049  16.852  0.00  0.00    +0.000 A 
BRANCH   7  14
ATOM     13  C   UNL     1       6.302   3.958  14.443  0.00  0.00    +0.000 C 
ATOM     14  O   UNL     1       6.330   3.908  15.869  0.00  0.00    +0.000 OA
ENDBRANCH   7  14
BRANCH  12  15
ATOM     15  O   UNL     1       7.140   6.614  16.715  0.00  0.00    +0.000 OA
ATOM     16  C   UNL     1       7.486   7.736  17.510  0.00  0.00    +0.000 C 
ENDBRANCH  12  15
ENDBRANCH   1  10
BRANCH   5  17
ATOM     17  C   UNL     1       0.718   8.642  21.359  0.00  0.00    +0.000 C 
ATOM     18  N   UNL     1       0.171   8.712  22.382  0.00  0.00    +0.000 NA
ENDBRANCH   5  17
BRANCH   6  19
ATOM     19  N   UNL     1       2.555   6.495  20.511  0.00  0.00    +0.000 N 
ATOM     20  H   UNL     1       2.925   6.810  21.404  0.00  0.00    +0.000 HD
BRANCH  19  21
ATOM     21  C   UNL     1       2.349   5.102  20.430  0.00  0.00    +0.000 A 
ATOM     22  C   UNL     1       1.037   4.618  20.307  0.00  0.00    +0.000 A 
ATOM     23  C   UNL     1       0.763   3.242  20.303  0.00  0.00    +0.000 A 
ATOM     24  C   UNL     1       1.807   2.332  20.430  0.00  0.00    +0.000 A 
ATOM     25  C   UNL     1       3.107   2.802  20.550  0.00  0.00    +0.000 A 
ATOM     26  F   UNL     1       4.114   1.926  20.671  0.00  0.00    +0.000 F 
ATOM     27  C   UNL     1       3.385   4.168  20.546  0.00  0.00    +0.000 A 
ENDBRANCH  19  21
ENDBRANCH   6  19
TORSDOF 6
ENDMDL
MODEL 3
REMARK VINA RESULT:      -7.8      3.338      6.397
REMARK  Name = 
REMARK  8 active torsions:
REMARK  status: ('A' for Active; 'I' for Inactive)
REMARK    1  A    between atoms: C_1  and  O_2
REMARK    2  A    between atoms: O_2  and  C_3
REMARK    3  A    between atoms: C_6  and  C_7
REMARK    4  A    between atoms: C_11  and  C_12
REMARK    5  A    between atoms: C_14  and  N_15
REMARK    6  A    between atoms: N_15  and  C_16
REMARK    7  A    between atoms: C_24  and  O_25
REMARK    8  A    between atoms: O_25  and  C_26
REMARK                            x       y       z     vdW  Elec       q    Type
REMARK                         _______ _______ _______ _____ _____    ______ ____
ROOT
ATOM      1  C   UNL     1       2.044   5.146  20.008  0.00  0.00    +0.000 A 
ATOM      2  C   UNL     1       0.900   4.444  20.425  0.00  0.00    +0.000 A 
ATOM      3  N   UNL     1       0.850   3.142  20.787  0.00  0.00    +0.000 NA
ATOM      4  C   UNL     1       2.014   2.472  20.752  0.00  0.00    +0.000 A 
ATOM      5  C   UNL     1       3.223   3.034  20.369  0.00  0.00    +0.000 A 
ATOM      6  C   UNL     1       3.256   4.393  19.968  0.00  0.00    +0.000 A 
ENDROOT
BRANCH   1  10
ATOM      7  C   UNL     1       1.577   9.359  19.017  0.00  0.00    +0.000 A 
ATOM      8  C   UNL     1       2.010   8.439  18.054  0.00  0.00    +0.000 A 
ATOM      9  C   UNL     1       2.179   7.083  18.367  0.00  0.00    +0.000 A 
ATOM     10  C   UNL     1       1.907   6.589  19.649  0.00  0.00    +0.000 A 
ATOM     11  C   UNL     1       1.542   7.549  20.616  0.00  0.00    +0.000 A 
ATOM     12  C   UNL     1       1.400   8.921  20.332  0.00  0.00    +0.000 A 
BRANCH   7  14
ATOM     13  C   UNL     1      -0.009  11.039  18.533  0.00  0.00    +0.000 C 
ATOM     14  O   UNL     1       1.360  10.672  18.699  0.00  0.00    +0.000 OA
ENDBRANCH   7  14
BRANCH  12  15
ATOM     15  O   UNL     1       1.078   9.645  21.449  0.00  0.00    +0.000 OA
ATOM     16  C   UNL     1      -0.236   9.565  21.975  0.00  0.00    +0.000 C 
ENDBRANCH  12  15
ENDBRANCH   1  10
BRANCH   5  17
ATOM     17  C   UNL     1       4.353   2.162  20.334  0.00  0.00    +0.000 C 
ATOM     18  N   UNL     1       5.271   1.455  20.238  0.00  0.00    +0.000 NA
ENDBRANCH   5  17
BRANCH   6  19
ATOM     19  N   UNL     1       4.465   5.000  19.538  0.00  0.00    +0.000 N 
ATOM     20  H   UNL     1       4.879   5.623  20.226  0.00  0.00    +0.000 HD
BRANCH  19  21
ATOM     21  C   UNL     1       5.271   4.775  18.402  0.00  0.00    +0.000 A 
ATOM     22  C   UNL     1       6.667   4.823  18.544  0.00  0.00    +0.000 A 
ATOM     23  C   UNL     1       7.518   4.688  17.437  0.00  0.00    +0.000 A 
ATOM     24  C   UNL     1       6.976   4.510  16.168  0.00  0.00    +0.000 A 
ATOM     25  C   UNL     1       5.597   4.460  16.021  0.00  0.00    +0.000 A 
ATOM     26  F   UNL     1       5.073   4.288  14.799  0.00  0.00    +0.000 F 
ATOM     27  C   UNL     1       4.747   4.585  17.119  0.00  0.00    +0.000 A 
ENDBRANCH  19  21
ENDBRANCH   6  19
TORSDOF 6
ENDMDL
MODEL 4
REMARK VINA RESULT:      -7.7      3.500      6.541
REMARK  Name = 
REMARK  8 active torsions:
REMARK  status: ('A' for Active; 'I' for Inactive)
REMARK    1  A    between atoms: C_1  and  O_2
REMARK    2  A    between atoms: O_2  and  C_3
REMARK    3  A    between atoms: C_6  and  C_7
REMARK    4  A    between atoms: C_11  and  C_12
REMARK    5  A    between atoms: C_14  and  N_15
REMARK    6  A    between atoms: N_15  and  C_16
REMARK    7  A    between atoms: C_24  and  O_25
REMARK    8  A    between atoms: O_25  and  C_26
REMARK                            x       y       z     vdW  Elec       q    Type
REMARK                         _______ _______ _______ _____ _____    ______ ____
ROOT
ATOM      1  C   UNL     1       2.053   5.082  19.894  0.00  0.00    +0.000 A 
ATOM      2  C   UNL     1       0.881   4.365  20.190  0.00  0.00    +0.000 A 
ATOM      3  N   UNL     1       0.808   3.055  20.515  0.00  0.00    +0.000 NA
ATOM      4  C   UNL     1       1.974   2.391  20.569  0.00  0.00    +0.000 A 
ATOM      5  C   UNL     1       3.209   2.968  20.309  0.00  0.00    +0.000 A 
ATOM      6  C   UNL     1       3.268   4.336  19.945  0.00  0.00    +0.000 A 
ENDROOT
BRANCH   1  10
ATOM      7  C   UNL     1       1.653   9.317  18.970  0.00  0.00    +0.000 A 
ATOM      8  C   UNL     1       2.071   8.406  17.992  0.00  0.00    +0.000 A 
ATOM      9  C   UNL     1       2.218   7.043  18.283  0.00  0.00    +0.000 A 
ATOM     10  C   UNL     1       1.939   6.533  19.557  0.00  0.00    +0.000 A 
ATOM     11  C   UNL     1       1.589   7.483  20.540  0.00  0.00    +0.000 A 
ATOM     12  C   UNL     1       1.469   8.861  20.277  0.00  0.00    +0.000 A 
BRANCH   7  14
ATOM     13  C   UNL     1       0.092  11.048  18.598  0.00  0.00    +0.000 C 
ATOM     14  O   UNL     1       1.457  10.639  18.673  0.00  0.00    +0.000 OA
ENDBRANCH   7  14
BRANCH  12  15
ATOM     15  O   UNL     1       1.159   9.572  21.406  0.00  0.00    +0.000 OA
ATOM     16  C   UNL     1      -0.034   9.273  22.112  0.00  0.00    +0.000 C 
ENDBRANCH  12  15
ENDBRANCH   1  10
BRANCH   5  17
ATOM     17  C   UNL     1       4.344   2.101  20.355  0.00  0.00    +0.000 C 
ATOM     18  N   UNL     1       5.286   1.421  20.333  0.00  0.00    +0.000 NA
ENDBRANCH   5  17
BRANCH   6  19
ATOM     19  N   UNL     1       4.507   4.958  19.639  0.00  0.00    +0.000 N 
ATOM     20  H   UNL     1       5.055   5.207  20.459  0.00  0.00    +0.000 HD
BRANCH  19  21
ATOM     21  C   UNL     1       5.180   5.147  18.414  0.00  0.00    +0.000 A 
ATOM     22  C   UNL     1       4.876   4.299  17.337  0.00  0.00    +0.000 A 
ATOM     23  C   UNL     1       5.570   4.386  16.121  0.00  0.00    +0.000 A 
ATOM     24  C   UNL     1       6.587   5.323  15.973  0.00  0.00    +0.000 A 
ATOM     25  C   UNL     1       6.892   6.165  17.032  0.00  0.00    +0.000 A 
ATOM     26  F   UNL     1       7.871   7.070  16.891  0.00  0.00    +0.000 F 
ATOM     27  C   UNL     1       6.200   6.089  18.240  0.00  0.00    +0.000 A 
ENDBRANCH  19  21
ENDBRANCH   6  19
TORSDOF 6
ENDMDL
MODEL 5
REMARK VINA RESULT:      -7.6      1.445      2.447
REMARK  Name = 
REMARK  8 active torsions:
REMARK  status: ('A' for Active; 'I' for Inactive)
REMARK    1  A    between atoms: C_1  and  O_2
REMARK    2  A    between atoms: O_2  and  C_3
REMARK    3  A    between atoms: C_6  and  C_7
REMARK    4  A    between atoms: C_11  and  C_12
REMARK    5  A    between atoms: C_14  and  N_15
REMARK    6  A    between atoms: N_15  and  C_16
REMARK    7  A    between atoms: C_24  and  O_25
REMARK    8  A    between atoms: O_25  and  C_26
REMARK                            x       y       z     vdW  Elec       q    Type
REMARK                         _______ _______ _______ _____ _____    ______ ____
ROOT
ATOM      1  C   UNL     1       2.421   7.668  18.462  0.00  0.00    +0.000 A 
ATOM      2  C   UNL     1       1.958   8.738  17.676  0.00  0.00    +0.000 A 
ATOM      3  N   UNL     1       1.162   9.748  18.094  0.00  0.00    +0.000 NA
ATOM      4  C   UNL     1       0.796   9.720  19.386  0.00  0.00    +0.000 A 
ATOM      5  C   UNL     1       1.181   8.732  20.280  0.00  0.00    +0.000 A 
ATOM      6  C   UNL     1       1.995   7.667  19.824  0.00  0.00    +0.000 A 
ENDROOT
BRANCH   1  10
ATOM      7  C   UNL     1       4.954   4.616  16.669  0.00  0.00    +0.000 A 
ATOM      8  C   UNL     1       5.363   5.954  16.710  0.00  0.00    +0.000 A 
ATOM      9  C   UNL     1       4.548   6.947  17.270  0.00  0.00    +0.000 A 
ATOM     10  C   UNL     1       3.300   6.642  17.827  0.00  0.00    +0.000 A 
ATOM     11  C   UNL     1       2.883   5.299  17.708  0.00  0.00    +0.000 A 
ATOM     12  C   UNL     1       3.671   4.292  17.118  0.00  0.00    +0.000 A 
BRANCH   7  14
ATOM     13  C   UNL     1       6.497   3.990  14.995  0.00  0.00    +0.000 C 
ATOM     14  O   UNL     1       5.771   3.637  16.172  0.00  0.00    +0.000 OA
ENDBRANCH   7  14
BRANCH  12  15
ATOM     15  O   UNL     1       3.024   3.085  17.090  0.00  0.00    +0.000 OA
ATOM     16  C   UNL     1       3.502   2.020  17.896  0.00  0.00    +0.000 C 
ENDBRANCH  12  15
ENDBRANCH   1  10
BRANCH   5  17
ATOM     17  C   UNL     1       0.653   8.826  21.605  0.00  0.00    +0.000 C 
ATOM     18  N   UNL     1       0.180   8.949  22.660  0.00  0.00    +0.000 NA
ENDBRANCH   5  17
BRANCH   6  19
ATOM     19  N   UNL     1       2.385   6.618  20.697  0.00  0.00    +0.000 N 
ATOM     20  H   UNL     1       2.862   6.938  21.536  0.00  0.00    +0.000 HD
BRANCH  19  21
ATOM     21  C   UNL     1       2.093   5.238  20.690  0.00  0.00    +0.000 A 
ATOM     22  C   UNL     1       0.853   4.812  20.187  0.00  0.00    +0.000 A 
ATOM     23  C   UNL     1       0.473   3.462  20.228  0.00  0.00    +0.000 A 
ATOM     24  C   UNL     1       1.334   2.521  20.783  0.00  0.00    +0.000 A 
ATOM     25  C   UNL     1       2.561   2.934  21.281  0.00  0.00    +0.000 A 
ATOM     26  F   UNL     1       3.392   2.028  21.815  0.00  0.00    +0.000 F 
ATOM     27  C   UNL     1       2.947   4.273  21.234  0.00  0.00    +0.000 A 
ENDBRANCH  19  21
ENDBRANCH   6  19
TORSDOF 6
ENDMDL
MODEL 6
REMARK VINA RESULT:      -7.5      1.114      2.077
REMARK  Name = 
REMARK  8 active torsions:
REMARK  status: ('A' for Active; 'I' for Inactive)
REMARK    1  A    between atoms: C_1  and  O_2
REMARK    2  A    between atoms: O_2  and  C_3
REMARK    3  A    between atoms: C_6  and  C_7
REMARK    4  A    between atoms: C_11  and  C_12
REMARK    5  A    between atoms: C_14  and  N_15
REMARK    6  A    between atoms: N_15  and  C_16
REMARK    7  A    between atoms: C_24  and  O_25
REMARK    8  A    between atoms: O_25  and  C_26
REMARK                            x       y       z     vdW  Elec       q    Type
REMARK                         _______ _______ _______ _____ _____    ______ ____
ROOT
ATOM      1  C   UNL     1       2.373   7.677  18.475  0.00  0.00    +0.000 A 
ATOM      2  C   UNL     1       1.882   8.752  17.712  0.00  0.00    +0.000 A 
ATOM      3  N   UNL     1       1.042   9.719  18.144  0.00  0.00    +0.000 NA
ATOM      4  C   UNL     1       0.659   9.641  19.429  0.00  0.00    +0.000 A 
ATOM      5  C   UNL     1       1.067   8.644  20.302  0.00  0.00    +0.000 A 
ATOM      6  C   UNL     1       1.927   7.622  19.830  0.00  0.00    +0.000 A 
ENDROOT
BRANCH   1  10
ATOM      7  C   UNL     1       5.047   4.774  16.641  0.00  0.00    +0.000 A 
ATOM      8  C   UNL     1       5.388   6.130  16.692  0.00  0.00    +0.000 A 
ATOM      9  C   UNL     1       4.527   7.076  17.265  0.00  0.00    +0.000 A 
ATOM     10  C   UNL     1       3.299   6.703  17.826  0.00  0.00    +0.000 A 
ATOM     11  C   UNL     1       2.951   5.341  17.698  0.00  0.00    +0.000 A 
ATOM     12  C   UNL     1       3.785   4.381  17.095  0.00  0.00    +0.000 A 
BRANCH   7  14
ATOM     13  C   UNL     1       7.184   4.346  15.734  0.00  0.00    +0.000 C 
ATOM     14  O   UNL     1       5.910   3.842  16.131  0.00  0.00    +0.000 OA
ENDBRANCH   7  14
BRANCH  12  15
ATOM     15  O   UNL     1       3.200   3.143  17.060  0.00  0.00    +0.000 OA
ATOM     16  C   UNL     1       3.616   2.150  17.983  0.00  0.00    +0.000 C 
ENDBRANCH  12  15
ENDBRANCH   1  10
BRANCH   5  17
ATOM     17  C   UNL     1       0.516   8.680  21.620  0.00  0.00    +0.000 C 
ATOM     18  N   UNL     1       0.011   8.686  22.667  0.00  0.00    +0.000 NA
ENDBRANCH   5  17
BRANCH   6  19
ATOM     19  N   UNL     1       2.343   6.564  20.680  0.00  0.00    +0.000 N 
ATOM     20  H   UNL     1       2.925   6.867  21.457  0.00  0.00    +0.000 HD
BRANCH  19  21
ATOM     21  C   UNL     1       1.969   5.205  20.733  0.00  0.00    +0.000 A 
ATOM     22  C   UNL     1       2.643   4.352  21.621  0.00  0.00    +0.000 A 
ATOM     23  C   UNL     1       2.371   2.976  21.660  0.00  0.00    +0.000 A 
ATOM     24  C   UNL     1       1.421   2.437  20.799  0.00  0.00    +0.000 A 
ATOM     25  C   UNL     1       0.749   3.274  19.920  0.00  0.00    +0.000 A 
ATOM     26  F   UNL     1      -0.167   2.756  19.091  0.00  0.00    +0.000 F 
ATOM     27  C   UNL     1       1.010   4.643  19.883  0.00  0.00    +0.000 A 
ENDBRANCH  19  21
ENDBRANCH   6  19
TORSDOF 6
ENDMDL
MODEL 7
REMARK VINA RESULT:      -7.5      3.274      6.282
REMARK  Name = 
REMARK  8 active torsions:
REMARK  status: ('A' for Active; 'I' for Inactive)
REMARK    1  A    between atoms: C_1  and  O_2
REMARK    2  A    between atoms: O_2  and  C_3
REMARK    3  A    between atoms: C_6  and  C_7
REMARK    4  A    between atoms: C_11  and  C_12
REMARK    5  A    between atoms: C_14  and  N_15
REMARK    6  A    between atoms: N_15  and  C_16
REMARK    7  A    between atoms: C_24  and  O_25
REMARK    8  A    between atoms: O_25  and  C_26
REMARK                            x       y       z     vdW  Elec       q    Type
REMARK                         _______ _______ _______ _____ _____    ______ ____
ROOT
ATOM      1  C   UNL     1       2.035   5.228  19.947  0.00  0.00    +0.000 A 
ATOM      2  C   UNL     1       0.904   4.536  20.414  0.00  0.00    +0.000 A 
ATOM      3  N   UNL     1       0.871   3.250  20.831  0.00  0.00    +0.000 NA
ATOM      4  C   UNL     1       2.039   2.587  20.804  0.00  0.00    +0.000 A 
ATOM      5  C   UNL     1       3.236   3.142  20.376  0.00  0.00    +0.000 A 
ATOM      6  C   UNL     1       3.251   4.482  19.918  0.00  0.00    +0.000 A 
ENDROOT
BRANCH   1  10
ATOM      7  C   UNL     1       1.515   9.390  18.784  0.00  0.00    +0.000 A 
ATOM      8  C   UNL     1       1.970   8.440  17.863  0.00  0.00    +0.000 A 
ATOM      9  C   UNL     1       2.156   7.100  18.231  0.00  0.00    +0.000 A 
ATOM     10  C   UNL     1       1.880   6.653  19.529  0.00  0.00    +0.000 A 
ATOM     11  C   UNL     1       1.492   7.645  20.454  0.00  0.00    +0.000 A 
ATOM     12  C   UNL     1       1.332   9.002  20.114  0.00  0.00    +0.000 A 
BRANCH   7  14
ATOM     13  C   UNL     1       2.445  11.445  18.087  0.00  0.00    +0.000 C 
ATOM     14  O   UNL     1       1.281  10.686  18.413  0.00  0.00    +0.000 OA
ENDBRANCH   7  14
BRANCH  12  15
ATOM     15  O   UNL     1       0.990   9.765  21.198  0.00  0.00    +0.000 OA
ATOM     16  C   UNL     1       1.154   9.234  22.503  0.00  0.00    +0.000 C 
ENDBRANCH  12  15
ENDBRANCH   1  10
BRANCH   5  17
ATOM     17  C   UNL     1       4.373   2.277  20.358  0.00  0.00    +0.000 C 
ATOM     18  N   UNL     1       5.256   1.521  20.331  0.00  0.00    +0.000 NA
ENDBRANCH   5  17
BRANCH   6  19
ATOM     19  N   UNL     1       4.448   5.079  19.440  0.00  0.00    +0.000 N 
ATOM     20  H   UNL     1       5.073   5.392  20.178  0.00  0.00    +0.000 HD
BRANCH  19  21
ATOM     21  C   UNL     1       4.993   5.171  18.142  0.00  0.00    +0.000 A 
ATOM     22  C   UNL     1       5.212   6.443  17.589  0.00  0.00    +0.000 A 
ATOM     23  C   UNL     1       5.676   6.598  16.275  0.00  0.00    +0.000 A 
ATOM     24  C   UNL     1       5.918   5.473  15.493  0.00  0.00    +0.000 A 
ATOM     25  C   UNL     1       5.705   4.213  16.032  0.00  0.00    +0.000 A 
ATOM     26  F   UNL     1       5.939   3.128  15.281  0.00  0.00    +0.000 F 
ATOM     27  C   UNL     1       5.253   4.054  17.341  0.00  0.00    +0.000 A 
ENDBRANCH  19  21
ENDBRANCH   6  19
TORSDOF 6
ENDMDL
MODEL 8
REMARK VINA RESULT:      -7.4      1.067      1.621
REMARK  Name = 
REMARK  8 active torsions:
REMARK  status: ('A' for Active; 'I' for Inactive)
REMARK    1  A    between atoms: C_1  and  O_2
REMARK    2  A    between atoms: O_2  and  C_3
REMARK    3  A    between atoms: C_6  and  C_7
REMARK    4  A    between atoms: C_11  and  C_12
REMARK    5  A    between atoms: C_14  and  N_15
REMARK    6  A    between atoms: N_15  and  C_16
REMARK    7  A    between atoms: C_24  and  O_25
REMARK    8  A    between atoms: O_25  and  C_26
REMARK                            x       y       z     vdW  Elec       q    Type
REMARK                         _______ _______ _______ _____ _____    ______ ____
ROOT
ATOM      1  C   UNL     1       2.753   7.784  18.358  0.00  0.00    +0.000 A 
ATOM      2  C   UNL     1       2.324   8.898  17.615  0.00  0.00    +0.000 A 
ATOM      3  N   UNL     1       1.399   9.806  18.001  0.00  0.00    +0.000 NA
ATOM      4  C   UNL     1       0.856   9.621  19.216  0.00  0.00    +0.000 A 
ATOM      5  C   UNL     1       1.187   8.573  20.062  0.00  0.00    +0.000 A 
ATOM      6  C   UNL     1       2.139   7.615  19.635  0.00  0.00    +0.000 A 
ENDROOT
BRANCH   1  10
ATOM      7  C   UNL     1       5.819   5.166  16.720  0.00  0.00    +0.000 A 
ATOM      8  C   UNL     1       5.242   6.171  15.936  0.00  0.00    +0.000 A 
ATOM      9  C   UNL     1       4.242   7.009  16.449  0.00  0.00    +0.000 A 
ATOM     10  C   UNL     1       3.791   6.888  17.769  0.00  0.00    +0.000 A 
ATOM     11  C   UNL     1       4.340   5.822  18.513  0.00  0.00    +0.000 A 
ATOM     12  C   UNL     1       5.319   4.947  18.006  0.00  0.00    +0.000 A 
BRANCH   7  14
ATOM     13  C   UNL     1       6.621   3.848  14.933  0.00  0.00    +0.000 C 
ATOM     14  O   UNL     1       6.833   4.382  16.238  0.00  0.00    +0.000 OA
ENDBRANCH   7  14
BRANCH  12  15
ATOM     15  O   UNL     1       5.656   3.975  18.911  0.00  0.00    +0.000 OA
ATOM     16  C   UNL     1       4.717   2.958  19.221  0.00  0.00    +0.000 C 
ENDBRANCH  12  15
ENDBRANCH   1  10
BRANCH   5  17
ATOM     17  C   UNL     1       0.470   8.495  21.296  0.00  0.00    +0.000 C 
ATOM     18  N   UNL     1      -0.063   8.395  22.324  0.00  0.00    +0.000 NA
ENDBRANCH   5  17
BRANCH   6  19
ATOM     19  N   UNL     1       2.482   6.508  20.456  0.00  0.00    +0.000 N 
ATOM     20  H   UNL     1       3.099   6.746  21.229  0.00  0.00    +0.000 HD
BRANCH  19  21
ATOM     21  C   UNL     1       2.000   5.183  20.487  0.00  0.00    +0.000 A 
ATOM     22  C   UNL     1       2.270   4.392  21.616  0.00  0.00    +0.000 A 
ATOM     23  C   UNL     1       1.887   3.044  21.671  0.00  0.00    +0.000 A 
ATOM     24  C   UNL     1       1.234   2.469  20.586  0.00  0.00    +0.000 A 
ATOM     25  C   UNL     1       0.963   3.244  19.468  0.00  0.00    +0.000 A 
ATOM     26  F   UNL     1       0.333   2.691  18.422  0.00  0.00    +0.000 F 
ATOM     27  C   UNL     1       1.334   4.587  19.412  0.00  0.00    +0.000 A 
ENDBRANCH  19  21
ENDBRANCH   6  19
TORSDOF 6
ENDMDL
MODEL 9
REMARK VINA RESULT:      -7.4      1.301      1.649
REMARK  Name = 
REMARK  8 active torsions:
REMARK  status: ('A' for Active; 'I' for Inactive)
REMARK    1  A    between atoms: C_1  and  O_2
REMARK    2  A    between atoms: O_2  and  C_3
REMARK    3  A    between atoms: C_6  and  C_7
REMARK    4  A    between atoms: C_11  and  C_12
REMARK    5  A    between atoms: C_14  and  N_15
REMARK    6  A    between atoms: N_15  and  C_16
REMARK    7  A    between atoms: C_24  and  O_25
REMARK    8  A    between atoms: O_25  and  C_26
REMARK                            x       y       z     vdW  Elec       q    Type
REMARK                         _______ _______ _______ _____ _____    ______ ____
ROOT
ATOM      1  C   UNL     1       2.986   7.899  18.187  0.00  0.00    +0.000 A 
ATOM      2  C   UNL     1       2.572   9.067  17.522  0.00  0.00    +0.000 A 
ATOM      3  N   UNL     1       1.611   9.923  17.937  0.00  0.00    +0.000 NA
ATOM      4  C   UNL     1       1.013   9.624  19.102  0.00  0.00    +0.000 A 
ATOM      5  C   UNL     1       1.322   8.512  19.871  0.00  0.00    +0.000 A 
ATOM      6  C   UNL     1       2.313   7.610  19.412  0.00  0.00    +0.000 A 
ENDROOT
BRANCH   1  10
ATOM      7  C   UNL     1       6.201   5.518  16.473  0.00  0.00    +0.000 A 
ATOM      8  C   UNL     1       5.259   6.147  15.651  0.00  0.00    +0.000 A 
ATOM      9  C   UNL     1       4.210   6.903  16.194  0.00  0.00    +0.000 A 
ATOM     10  C   UNL     1       4.070   7.074  17.577  0.00  0.00    +0.000 A 
ATOM     11  C   UNL     1       4.992   6.372  18.382  0.00  0.00    +0.000 A 
ATOM     12  C   UNL     1       6.032   5.579  17.859  0.00  0.00    +0.000 A 
BRANCH   7  14
ATOM     13  C   UNL     1       7.171   4.562  14.545  0.00  0.00    +0.000 C 
ATOM     14  O   UNL     1       7.257   4.826  15.944  0.00  0.00    +0.000 OA
ENDBRANCH   7  14
BRANCH  12  15
ATOM     15  O   UNL     1       6.760   4.973  18.847  0.00  0.00    +0.000 OA
ATOM     16  C   UNL     1       7.865   5.656  19.416  0.00  0.00    +0.000 C 
ENDBRANCH  12  15
ENDBRANCH   1  10
BRANCH   5  17
ATOM     17  C   UNL     1       0.547   8.315  21.055  0.00  0.00    +0.000 C 
ATOM     18  N   UNL     1      -0.070   8.090  22.014  0.00  0.00    +0.000 NA
ENDBRANCH   5  17
BRANCH   6  19
ATOM     19  N   UNL     1       2.638   6.441  20.150  0.00  0.00    +0.000 N 
ATOM     20  H   UNL     1       3.245   6.615  20.947  0.00  0.00    +0.000 HD
BRANCH  19  21
ATOM     21  C   UNL     1       2.147   5.121  20.074  0.00  0.00    +0.000 A 
ATOM     22  C   UNL     1       1.786   4.605  18.819  0.00  0.00    +0.000 A 
ATOM     23  C   UNL     1       1.217   3.329  18.691  0.00  0.00    +0.000 A 
ATOM     24  C   UNL     1       0.994   2.557  19.826  0.00  0.00    +0.000 A 
ATOM     25  C   UNL     1       1.349   3.059  21.069  0.00  0.00    +0.000 A 
ATOM     26  F   UNL     1       1.136   2.316  22.163  0.00  0.00    +0.000 F 
ATOM     27  C   UNL     1       1.923   4.323  21.201  0.00  0.00    +0.000 A 
ENDBRANCH  19  21
ENDBRANCH   6  19
TORSDOF 6
ENDMDL
