MODEL 1
REMARK VINA RESULT:      -7.7      0.000      0.000
REMARK  Name = 
REMARK  8 active torsions:
REMARK  status: ('A' for Active; 'I' for Inactive)
REMARK    1  A    between atoms: C_1  and  O_2
REMARK    2  A    between atoms: O_2  and  C_3
REMARK    3  A    between atoms: C_6  and  C_7
REMARK    4  A    between atoms: C_9  and  C_10
REMARK    5  A    between atoms: C_15  and  O_16
REMARK    6  A    between atoms: C_19  and  C_21
REMARK    7  A    between atoms: C_28  and  O_29
REMARK    8  A    between atoms: O_29  and  C_30
REMARK                            x       y       z     vdW  Elec       q    Type
REMARK                         _______ _______ _______ _____ _____    ______ ____
ROOT
ATOM      1  C   UNL     1       1.096   9.919  19.042  0.00  0.00    +0.000 C 
ATOM      2  C   UNL     1       0.263   9.783  17.763  0.00  0.00    +0.000 C 
ATOM      3  C   UNL     1      -0.979  10.528  18.160  0.00  0.00    +0.000 C 
ATOM      4  N   UNL     1      -0.964  11.019  19.357  0.00  0.00    +0.000 NA
ATOM      5  N   UNL     1       0.207  10.642  19.953  0.00  0.00    +0.000 N 
ATOM      6  C   UNL     1       0.575  11.080  21.227  0.00  0.00    +0.000 C 
ATOM      7  O   UNL     1       1.704  10.899  21.688  0.00  0.00    +0.000 OA
ENDROOT
BRANCH   1  11
ATOM      8  C   UNL     1       2.186   5.880  20.171  0.00  0.00    +0.000 A 
ATOM      9  C   UNL     1       1.485   6.698  21.071  0.00  0.00    +0.000 A 
ATOM     10  C   UNL     1       1.142   8.006  20.734  0.00  0.00    +0.000 A 
ATOM     11  C   UNL     1       1.544   8.548  19.513  0.00  0.00    +0.000 A 
ATOM     12  C   UNL     1       2.336   7.759  18.663  0.00  0.00    +0.000 A 
ATOM     13  C   UNL     1       2.670   6.432  18.978  0.00  0.00    +0.000 A 
BRANCH   8  15
ATOM     14  C   UNL     1       1.261   3.714  20.256  0.00  0.00    +0.000 C 
ATOM     15  O   UNL     1       2.397   4.556  20.451  0.00  0.00    +0.000 OA
ENDBRANCH   8  15
BRANCH  13  16
ATOM     16  O   UNL     1       3.422   5.843  17.996  0.00  0.00    +0.000 OA
ATOM     17  C   UNL     1       4.558   6.531  17.497  0.00  0.00    +0.000 C 
ENDBRANCH  13  16
ENDBRANCH   1  11
BRANCH   3  18
ATOM     18  C   UNL     1      -2.183  10.627  17.302  0.00  0.00    +0.000 A 
ATOM     19  C   UNL     1      -2.216   9.839  16.136  0.00  0.00    +0.000 A 
ATOM     20  C   UNL     1      -3.291   9.923  15.250  0.00  0.00    +0.000 A 
ATOM     21  C   UNL     1      -4.348  10.783  15.530  0.00  0.00    +0.000 A 
ATOM     22  C   UNL     1      -4.336  11.552  16.694  0.00  0.00    +0.000 A 
ATOM     23  C   UNL     1      -3.257  11.476  17.577  0.00  0.00    +0.000 A 
BRANCH  23  24
ATOM     24  O   UNL     1      -3.276  12.225  18.719  0.00  0.00    +0.000 OA
ATOM     25  H   UNL     1      -2.745  11.782  19.404  0.00  0.00    +0.000 HD
ENDBRANCH  23  24
ENDBRANCH   3  18
BRANCH   6  26
ATOM     26  C   UNL     1      -0.434  11.807  22.062  0.00  0.00    +0.000 A 
ATOM     27  C   UNL     1      -1.456  11.161  22.777  0.00  0.00    +0.000 A 
ATOM     28  C   UNL     1      -2.435  11.892  23.448  0.00  0.00    +0.000 A 
ATOM     29  C   UNL     1      -2.363  13.280  23.475  0.00  0.00    +0.000 A 
ATOM     30  C   UNL     1      -1.309  13.934  22.837  0.00  0.00    +0.000 A 
ATOM     31  C   UNL     1      -0.351  13.205  22.131  0.00  0.00    +0.000 A 
ENDBRANCH   6  26
TORSDOF 6
ENDMDL
MODEL 2
REMARK VINA RESULT:      -7.4      3.094      7.319
REMARK  Name = 
REMARK  8 active torsions:
REMARK  status: ('A' for Active; 'I' for Inactive)
REMARK    1  A    between atoms: C_1  and  O_2
REMARK    2  A    between atoms: O_2  and  C_3
REMARK    3  A    between atoms: C_6  and  C_7
REMARK    4  A    between atoms: C_9  and  C_10
REMARK    5  A    between atoms: C_15  and  O_16
REMARK    6  A    between atoms: C_19  and  C_21
REMARK    7  A    between atoms: C_28  and  O_29
REMARK    8  A    between atoms: O_29  and  C_30
REMARK                            x       y       z     vdW  Elec       q    Type
REMARK                         _______ _______ _______ _____ _____    ______ ____
ROOT
ATOM      1  C   UNL     1      -0.552  11.854  21.945  0.00  0.00    +0.000 C 
ATOM      2  C   UNL     1      -0.402  10.386  21.534  0.00  0.00    +0.000 C 
ATOM      3  C   UNL     1       0.784  10.475  20.617  0.00  0.00    +0.000 C 
ATOM      4  N   UNL     1       1.276  11.663  20.472  0.00  0.00    +0.000 NA
ATOM      5  N   UNL     1       0.495  12.533  21.180  0.00  0.00    +0.000 N 
ATOM      6  C   UNL     1       0.804  13.889  21.302  0.00  0.00    +0.000 C 
ATOM      7  O   UNL     1       0.214  14.633  22.088  0.00  0.00    +0.000 OA
ENDROOT
BRANCH   1  11
ATOM      8  C   UNL     1      -4.702  12.922  21.298  0.00  0.00    +0.000 A 
ATOM      9  C   UNL     1      -3.853  12.700  20.203  0.00  0.00    +0.000 A 
ATOM     10  C   UNL     1      -2.511  12.374  20.390  0.00  0.00    +0.000 A 
ATOM     11  C   UNL     1      -1.970  12.323  21.674  0.00  0.00    +0.000 A 
ATOM     12  C   UNL     1      -2.800  12.651  22.760  0.00  0.00    +0.000 A 
ATOM     13  C   UNL     1      -4.160  12.958  22.589  0.00  0.00    +0.000 A 
BRANCH   8  15
ATOM     14  C   UNL     1      -6.742  11.961  20.612  0.00  0.00    +0.000 C 
ATOM     15  O   UNL     1      -6.047  13.103  21.112  0.00  0.00    +0.000 OA
ENDBRANCH   8  15
BRANCH  13  16
ATOM     16  O   UNL     1      -4.782  13.218  23.781  0.00  0.00    +0.000 OA
ATOM     17  C   UNL     1      -4.632  12.295  24.848  0.00  0.00    +0.000 C 
ENDBRANCH  13  16
ENDBRANCH   1  11
BRANCH   3  18
ATOM     18  C   UNL     1       1.312   9.324  19.848  0.00  0.00    +0.000 A 
ATOM     19  C   UNL     1       1.563   8.131  20.554  0.00  0.00    +0.000 A 
ATOM     20  C   UNL     1       2.116   7.025  19.908  0.00  0.00    +0.000 A 
ATOM     21  C   UNL     1       2.407   7.095  18.549  0.00  0.00    +0.000 A 
ATOM     22  C   UNL     1       2.141   8.264  17.836  0.00  0.00    +0.000 A 
ATOM     23  C   UNL     1       1.597   9.376  18.482  0.00  0.00    +0.000 A 
BRANCH  23  24
ATOM     24  O   UNL     1       1.329  10.502  17.758  0.00  0.00    +0.000 OA
ATOM     25  H   UNL     1       0.656  11.031  18.223  0.00  0.00    +0.000 HD
ENDBRANCH  23  24
ENDBRANCH   3  18
BRANCH   6  26
ATOM     26  C   UNL     1       1.898  14.461  20.455  0.00  0.00    +0.000 A 
ATOM     27  C   UNL     1       1.698  14.938  19.149  0.00  0.00    +0.000 A 
ATOM     28  C   UNL     1       2.771  15.357  18.365  0.00  0.00    +0.000 A 
ATOM     29  C   UNL     1       4.053  15.376  18.902  0.00  0.00    +0.000 A 
ATOM     30  C   UNL     1       4.259  14.981  20.225  0.00  0.00    +0.000 A 
ATOM     31  C   UNL     1       3.190  14.523  20.998  0.00  0.00    +0.000 A 
ENDBRANCH   6  26
TORSDOF 6
ENDMDL
MODEL 3
REMARK VINA RESULT:      -7.3      2.610      3.842
REMARK  Name = 
REMARK  8 active torsions:
REMARK  status: ('A' for Active; 'I' for Inactive)
REMARK    1  A    between atoms: C_1  and  O_2
REMARK    2  A    between atoms: O_2  and  C_3
REMARK    3  A    between atoms: C_6  and  C_7
REMARK    4  A    between atoms: C_9  and  C_10
REMARK    5  A    between atoms: C_15  and  O_16
REMARK    6  A    between atoms: C_19  and  C_21
REMARK    7  A    between atoms: C_28  and  O_29
REMARK    8  A    between atoms: O_29  and  C_30
REMARK                            x       y       z     vdW  Elec       q    Type
REMARK                         _______ _______ _______ _____ _____    ______ ____
ROOT
ATOM      1  C   UNL     1       0.282  10.593  18.496  0.00  0.00    +0.000 C 
ATOM      2  C   UNL     1      -1.161  10.515  19.004  0.00  0.00    +0.000 C 
ATOM      3  C   UNL     1      -1.298  11.861  19.656  0.00  0.00    +0.000 C 
ATOM      4  N   UNL     1      -0.245  12.611  19.590  0.00  0.00    +0.000 NA
ATOM      5  N   UNL     1       0.743  11.897  18.972  0.00  0.00    +0.000 N 
ATOM      6  C   UNL     1       1.988  12.451  18.666  0.00  0.00    +0.000 C 
ATOM      7  O   UNL     1       2.808  11.877  17.946  0.00  0.00    +0.000 OA
ENDROOT
BRANCH   1  11
ATOM      8  C   UNL     1       2.329   6.992  19.769  0.00  0.00    +0.000 A 
ATOM      9  C   UNL     1       1.678   7.802  20.712  0.00  0.00    +0.000 A 
ATOM     10  C   UNL     1       1.030   8.974  20.324  0.00  0.00    +0.000 A 
ATOM     11  C   UNL     1       1.070   9.396  18.996  0.00  0.00    +0.000 A 
ATOM     12  C   UNL     1       1.813   8.636  18.078  0.00  0.00    +0.000 A 
ATOM     13  C   UNL     1       2.451   7.440  18.448  0.00  0.00    +0.000 A 
BRANCH   8  15
ATOM     14  C   UNL     1       1.888   4.861  20.677  0.00  0.00    +0.000 C 
ATOM     15  O   UNL     1       2.842   5.774  20.132  0.00  0.00    +0.000 OA
ENDBRANCH   8  15
BRANCH  13  16
ATOM     16  O   UNL     1       3.091   6.850  17.391  0.00  0.00    +0.000 OA
ATOM     17  C   UNL     1       4.500   6.982  17.281  0.00  0.00    +0.000 C 
ENDBRANCH  13  16
ENDBRANCH   1  11
BRANCH   3  18
ATOM     18  C   UNL     1      -2.501  12.287  20.410  0.00  0.00    +0.000 A 
ATOM     19  C   UNL     1      -2.371  12.446  21.803  0.00  0.00    +0.000 A 
ATOM     20  C   UNL     1      -3.474  12.787  22.586  0.00  0.00    +0.000 A 
ATOM     21  C   UNL     1      -4.712  12.988  21.981  0.00  0.00    +0.000 A 
ATOM     22  C   UNL     1      -4.846  12.855  20.600  0.00  0.00    +0.000 A 
ATOM     23  C   UNL     1      -3.745  12.504  19.815  0.00  0.00    +0.000 A 
BRANCH  23  24
ATOM     24  O   UNL     1      -3.897  12.398  18.463  0.00  0.00    +0.000 OA
ATOM     25  H   UNL     1      -4.619  12.983  18.173  0.00  0.00    +0.000 HD
ENDBRANCH  23  24
ENDBRANCH   3  18
BRANCH   6  26
ATOM     26  C   UNL     1       2.339  13.796  19.224  0.00  0.00    +0.000 A 
ATOM     27  C   UNL     1       2.790  13.996  20.538  0.00  0.00    +0.000 A 
ATOM     28  C   UNL     1       2.997  15.279  21.040  0.00  0.00    +0.000 A 
ATOM     29  C   UNL     1       2.825  16.381  20.210  0.00  0.00    +0.000 A 
ATOM     30  C   UNL     1       2.454  16.196  18.878  0.00  0.00    +0.000 A 
ATOM     31  C   UNL     1       2.208  14.913  18.386  0.00  0.00    +0.000 A 
ENDBRANCH   6  26
TORSDOF 6
ENDMDL
MODEL 4
REMARK VINA RESULT:      -7.3      2.627      4.153
REMARK  Name = 
REMARK  8 active torsions:
REMARK  status: ('A' for Active; 'I' for Inactive)
REMARK    1  A    between atoms: C_1  and  O_2
REMARK    2  A    between atoms: O_2  and  C_3
REMARK    3  A    between atoms: C_6  and  C_7
REMARK    4  A    between atoms: C_9  and  C_10
REMARK    5  A    between atoms: C_15  and  O_16
REMARK    6  A    between atoms: C_19  and  C_21
REMARK    7  A    between atoms: C_28  and  O_29
REMARK    8  A    between atoms: O_29  and  C_30
REMARK                            x       y       z     vdW  Elec       q    Type
REMARK                         _______ _______ _______ _____ _____    ______ ____
ROOT
ATOM      1  C   UNL     1       0.313  10.537  18.797  0.00  0.00    +0.000 C 
ATOM      2  C   UNL     1      -1.049  10.470  19.496  0.00  0.00    +0.000 C 
ATOM      3  C   UNL     1      -1.071  11.801  20.190  0.00  0.00    +0.000 C 
ATOM      4  N   UNL     1      -0.023  12.536  19.997  0.00  0.00    +0.000 NA
ATOM      5  N   UNL     1       0.859  11.823  19.235  0.00  0.00    +0.000 N 
ATOM      6  C   UNL     1       2.060  12.365  18.774  0.00  0.00    +0.000 C 
ATOM      7  O   UNL     1       2.764  11.796  17.937  0.00  0.00    +0.000 OA
ENDROOT
BRANCH   1  11
ATOM      8  C   UNL     1       2.469   6.880  19.663  0.00  0.00    +0.000 A 
ATOM      9  C   UNL     1       1.824   7.578  20.695  0.00  0.00    +0.000 A 
ATOM     10  C   UNL     1       1.141   8.766  20.440  0.00  0.00    +0.000 A 
ATOM     11  C   UNL     1       1.139   9.317  19.159  0.00  0.00    +0.000 A 
ATOM     12  C   UNL     1       1.877   8.669  18.154  0.00  0.00    +0.000 A 
ATOM     13  C   UNL     1       2.550   7.459  18.390  0.00  0.00    +0.000 A 
BRANCH   8  15
ATOM     14  C   UNL     1       2.223   4.779  20.703  0.00  0.00    +0.000 C 
ATOM     15  O   UNL     1       3.018   5.645  19.893  0.00  0.00    +0.000 OA
ENDBRANCH   8  15
BRANCH  13  16
ATOM     16  O   UNL     1       3.177   6.991  17.266  0.00  0.00    +0.000 OA
ATOM     17  C   UNL     1       4.595   6.966  17.232  0.00  0.00    +0.000 C 
ENDBRANCH  13  16
ENDBRANCH   1  11
BRANCH   3  18
ATOM     18  C   UNL     1      -2.152  12.228  21.109  0.00  0.00    +0.000 A 
ATOM     19  C   UNL     1      -3.345  12.705  20.532  0.00  0.00    +0.000 A 
ATOM     20  C   UNL     1      -4.383  13.178  21.334  0.00  0.00    +0.000 A 
ATOM     21  C   UNL     1      -4.246  13.163  22.719  0.00  0.00    +0.000 A 
ATOM     22  C   UNL     1      -3.078  12.672  23.302  0.00  0.00    +0.000 A 
ATOM     23  C   UNL     1      -2.033  12.206  22.500  0.00  0.00    +0.000 A 
BRANCH  23  24
ATOM     24  O   UNL     1      -0.907  11.713  23.094  0.00  0.00    +0.000 OA
ATOM     25  H   UNL     1      -0.945  10.741  23.100  0.00  0.00    +0.000 HD
ENDBRANCH  23  24
ENDBRANCH   3  18
BRANCH   6  26
ATOM     26  C   UNL     1       2.508  13.690  19.308  0.00  0.00    +0.000 A 
ATOM     27  C   UNL     1       3.033  13.868  20.598  0.00  0.00    +0.000 A 
ATOM     28  C   UNL     1       3.331  15.140  21.084  0.00  0.00    +0.000 A 
ATOM     29  C   UNL     1       3.178  16.247  20.258  0.00  0.00    +0.000 A 
ATOM     30  C   UNL     1       2.734  16.080  18.945  0.00  0.00    +0.000 A 
ATOM     31  C   UNL     1       2.397  14.811  18.472  0.00  0.00    +0.000 A 
ENDBRANCH   6  26
TORSDOF 6
ENDMDL
MODEL 5
REMARK VINA RESULT:      -7.3      3.327      7.717
REMARK  Name = 
REMARK  8 active torsions:
REMARK  status: ('A' for Active; 'I' for Inactive)
REMARK    1  A    between atoms: C_1  and  O_2
REMARK    2  A    between atoms: O_2  and  C_3
REMARK    3  A    between atoms: C_6  and  C_7
REMARK    4  A    between atoms: C_9  and  C_10
REMARK    5  A    between atoms: C_15  and  O_16
REMARK    6  A    between atoms: C_19  and  C_21
REMARK    7  A    between atoms: C_28  and  O_29
REMARK    8  A    between atoms: O_29  and  C_30
REMARK                            x       y       z     vdW  Elec       q    Type
REMARK                         _______ _______ _______ _____ _____    ______ ____
ROOT
ATOM      1  C   UNL     1      -0.896  12.864  18.894  0.00  0.00    +0.000 C 
ATOM      2  C   UNL     1      -0.003  14.108  18.940  0.00  0.00    +0.000 C 
ATOM      3  C   UNL     1       1.357  13.473  18.947  0.00  0.00    +0.000 C 
ATOM      4  N   UNL     1       1.358  12.179  18.912  0.00  0.00    +0.000 NA
ATOM      5  N   UNL     1       0.058  11.756  18.942  0.00  0.00    +0.000 N 
ATOM      6  C   UNL     1      -0.294  10.410  18.830  0.00  0.00    +0.000 C 
ATOM      7  O   UNL     1      -1.460  10.042  18.667  0.00  0.00    +0.000 OA
ENDROOT
BRANCH   1  11
ATOM      8  C   UNL     1      -3.651  12.727  22.236  0.00  0.00    +0.000 A 
ATOM      9  C   UNL     1      -4.133  12.619  20.922  0.00  0.00    +0.000 A 
ATOM     10  C   UNL     1      -3.264  12.680  19.833  0.00  0.00    +0.000 A 
ATOM     11  C   UNL     1      -1.903  12.911  20.028  0.00  0.00    +0.000 A 
ATOM     12  C   UNL     1      -1.445  13.125  21.340  0.00  0.00    +0.000 A 
ATOM     13  C   UNL     1      -2.304  13.043  22.449  0.00  0.00    +0.000 A 
BRANCH   8  15
ATOM     14  C   UNL     1      -5.709  13.266  23.254  0.00  0.00    +0.000 C 
ATOM     15  O   UNL     1      -4.488  12.527  23.303  0.00  0.00    +0.000 OA
ENDBRANCH   8  15
BRANCH  13  16
ATOM     16  O   UNL     1      -1.642  13.257  23.628  0.00  0.00    +0.000 OA
ATOM     17  C   UNL     1      -1.633  14.562  24.184  0.00  0.00    +0.000 C 
ENDBRANCH  13  16
ENDBRANCH   1  11
BRANCH   3  18
ATOM     18  C   UNL     1       2.618  14.240  19.083  0.00  0.00    +0.000 A 
ATOM     19  C   UNL     1       3.060  14.967  17.961  0.00  0.00    +0.000 A 
ATOM     20  C   UNL     1       4.268  15.664  17.996  0.00  0.00    +0.000 A 
ATOM     21  C   UNL     1       5.036  15.655  19.157  0.00  0.00    +0.000 A 
ATOM     22  C   UNL     1       4.597  14.956  20.281  0.00  0.00    +0.000 A 
ATOM     23  C   UNL     1       3.392  14.249  20.245  0.00  0.00    +0.000 A 
BRANCH  23  24
ATOM     24  O   UNL     1       2.974  13.588  21.364  0.00  0.00    +0.000 OA
ATOM     25  H   UNL     1       3.750  13.314  21.885  0.00  0.00    +0.000 HD
ENDBRANCH  23  24
ENDBRANCH   3  18
BRANCH   6  26
ATOM     26  C   UNL     1       0.783   9.371  18.899  0.00  0.00    +0.000 A 
ATOM     27  C   UNL     1       1.569   8.996  17.797  0.00  0.00    +0.000 A 
ATOM     28  C   UNL     1       2.482   7.947  17.889  0.00  0.00    +0.000 A 
ATOM     29  C   UNL     1       2.674   7.304  19.107  0.00  0.00    +0.000 A 
ATOM     30  C   UNL     1       1.959   7.717  20.232  0.00  0.00    +0.000 A 
ATOM     31  C   UNL     1       1.015   8.741  20.131  0.00  0.00    +0.000 A 
ENDBRANCH   6  26
TORSDOF 6
ENDMDL
MODEL 6
REMARK VINA RESULT:      -7.2      3.268      7.827
REMARK  Name = 
REMARK  8 active torsions:
REMARK  status: ('A' for Active; 'I' for Inactive)
REMARK    1  A    between atoms: C_1  and  O_2
REMARK    2  A    between atoms: O_2  and  C_3
REMARK    3  A    between atoms: C_6  and  C_7
REMARK    4  A    between atoms: C_9  and  C_10
REMARK    5  A    between atoms: C_15  and  O_16
REMARK    6  A    between atoms: C_19  and  C_21
REMARK    7  A    between atoms: C_28  and  O_29
REMARK    8  A    between atoms: O_29  and  C_30
REMARK                            x       y       z     vdW  Elec       q    Type
REMARK                         _______ _______ _______ _____ _____    ______ ____
ROOT
ATOM      1  C   UNL     1      -1.092  12.935  19.266  0.00  0.00    +0.000 C 
ATOM      2  C   UNL     1      -0.231  14.200  19.339  0.00  0.00    +0.000 C 
ATOM      3  C   UNL     1       1.143  13.608  19.217  0.00  0.00    +0.000 C 
ATOM      4  N   UNL     1       1.175  12.320  19.095  0.00  0.00    +0.000 NA
ATOM      5  N   UNL     1      -0.108  11.856  19.179  0.00  0.00    +0.000 N 
ATOM      6  C   UNL     1      -0.431  10.510  18.998  0.00  0.00    +0.000 C 
ATOM      7  O   UNL     1      -1.595  10.118  18.885  0.00  0.00    +0.000 OA
ENDROOT
BRANCH   1  11
ATOM      8  C   UNL     1      -3.829  13.068  22.624  0.00  0.00    +0.000 A 
ATOM      9  C   UNL     1      -2.452  12.908  22.844  0.00  0.00    +0.000 A 
ATOM     10  C   UNL     1      -1.558  12.844  21.776  0.00  0.00    +0.000 A 
ATOM     11  C   UNL     1      -2.024  12.877  20.462  0.00  0.00    +0.000 A 
ATOM     12  C   UNL     1      -3.412  12.929  20.250  0.00  0.00    +0.000 A 
ATOM     13  C   UNL     1      -4.324  13.018  21.315  0.00  0.00    +0.000 A 
BRANCH   8  15
ATOM     14  C   UNL     1      -4.514  12.367  24.767  0.00  0.00    +0.000 C 
ATOM     15  O   UNL     1      -4.684  13.271  23.675  0.00  0.00    +0.000 OA
ENDBRANCH   8  15
BRANCH  13  16
ATOM     16  O   UNL     1      -5.620  13.088  20.878  0.00  0.00    +0.000 OA
ATOM     17  C   UNL     1      -6.313  11.884  20.590  0.00  0.00    +0.000 C 
ENDBRANCH  13  16
ENDBRANCH   1  11
BRANCH   3  18
ATOM     18  C   UNL     1       2.389  14.403  19.324  0.00  0.00    +0.000 A 
ATOM     19  C   UNL     1       2.678  15.301  18.279  0.00  0.00    +0.000 A 
ATOM     20  C   UNL     1       3.862  16.039  18.282  0.00  0.00    +0.000 A 
ATOM     21  C   UNL     1       4.758  15.898  19.338  0.00  0.00    +0.000 A 
ATOM     22  C   UNL     1       4.472  15.028  20.389  0.00  0.00    +0.000 A 
ATOM     23  C   UNL     1       3.291  14.281  20.383  0.00  0.00    +0.000 A 
BRANCH  23  24
ATOM     24  O   UNL     1       3.024  13.450  21.432  0.00  0.00    +0.000 OA
ATOM     25  H   UNL     1       2.282  13.811  21.949  0.00  0.00    +0.000 HD
ENDBRANCH  23  24
ENDBRANCH   3  18
BRANCH   6  26
ATOM     26  C   UNL     1       0.676   9.502  18.930  0.00  0.00    +0.000 A 
ATOM     27  C   UNL     1       1.397   9.224  17.758  0.00  0.00    +0.000 A 
ATOM     28  C   UNL     1       2.341   8.199  17.721  0.00  0.00    +0.000 A 
ATOM     29  C   UNL     1       2.630   7.485  18.878  0.00  0.00    +0.000 A 
ATOM     30  C   UNL     1       1.979   7.802  20.071  0.00  0.00    +0.000 A 
ATOM     31  C   UNL     1       1.005   8.802  20.099  0.00  0.00    +0.000 A 
ENDBRANCH   6  26
TORSDOF 6
ENDMDL
MODEL 7
REMARK VINA RESULT:      -7.2      2.523      3.358
REMARK  Name = 
REMARK  8 active torsions:
REMARK  status: ('A' for Active; 'I' for Inactive)
REMARK    1  A    between atoms: C_1  and  O_2
REMARK    2  A    between atoms: O_2  and  C_3
REMARK    3  A    between atoms: C_6  and  C_7
REMARK    4  A    between atoms: C_9  and  C_10
REMARK    5  A    between atoms: C_15  and  O_16
REMARK    6  A    between atoms: C_19  and  C_21
REMARK    7  A    between atoms: C_28  and  O_29
REMARK    8  A    between atoms: O_29  and  C_30
REMARK                            x       y       z     vdW  Elec       q    Type
REMARK                         _______ _______ _______ _____ _____    ______ ____
ROOT
ATOM      1  C   UNL     1       0.451  10.513  18.077  0.00  0.00    +0.000 C 
ATOM      2  C   UNL     1      -1.064  10.339  18.226  0.00  0.00    +0.000 C 
ATOM      3  C   UNL     1      -1.433  11.656  18.847  0.00  0.00    +0.000 C 
ATOM      4  N   UNL     1      -0.443  12.465  19.045  0.00  0.00    +0.000 NA
ATOM      5  N   UNL     1       0.705  11.827  18.669  0.00  0.00    +0.000 N 
ATOM      6  C   UNL     1       1.950  12.459  18.676  0.00  0.00    +0.000 C 
ATOM      7  O   UNL     1       2.951  11.953  18.163  0.00  0.00    +0.000 OA
ENDROOT
BRANCH   1  11
ATOM      8  C   UNL     1       2.309   6.995  19.794  0.00  0.00    +0.000 A 
ATOM      9  C   UNL     1       1.614   7.895  20.615  0.00  0.00    +0.000 A 
ATOM     10  C   UNL     1       1.026   9.043  20.084  0.00  0.00    +0.000 A 
ATOM     11  C   UNL     1       1.170   9.348  18.732  0.00  0.00    +0.000 A 
ATOM     12  C   UNL     1       1.958   8.498  17.937  0.00  0.00    +0.000 A 
ATOM     13  C   UNL     1       2.537   7.326  18.452  0.00  0.00    +0.000 A 
BRANCH   8  15
ATOM     14  C   UNL     1       1.748   4.830  20.539  0.00  0.00    +0.000 C 
ATOM     15  O   UNL     1       2.764   5.803  20.294  0.00  0.00    +0.000 OA
ENDBRANCH   8  15
BRANCH  13  16
ATOM     16  O   UNL     1       3.235   6.636  17.498  0.00  0.00    +0.000 OA
ATOM     17  C   UNL     1       4.591   6.977  17.258  0.00  0.00    +0.000 C 
ENDBRANCH  13  16
ENDBRANCH   1  11
BRANCH   3  18
ATOM     18  C   UNL     1      -2.804  11.991  19.300  0.00  0.00    +0.000 A 
ATOM     19  C   UNL     1      -3.872  11.645  18.449  0.00  0.00    +0.000 A 
ATOM     20  C   UNL     1      -5.184  11.982  18.781  0.00  0.00    +0.000 A 
ATOM     21  C   UNL     1      -5.443  12.651  19.973  0.00  0.00    +0.000 A 
ATOM     22  C   UNL     1      -4.395  12.979  20.834  0.00  0.00    +0.000 A 
ATOM     23  C   UNL     1      -3.079  12.651  20.499  0.00  0.00    +0.000 A 
BRANCH  23  24
ATOM     24  O   UNL     1      -2.073  12.966  21.366  0.00  0.00    +0.000 OA
ATOM     25  H   UNL     1      -1.999  12.268  22.040  0.00  0.00    +0.000 HD
ENDBRANCH  23  24
ENDBRANCH   3  18
BRANCH   6  26
ATOM     26  C   UNL     1       2.076  13.804  19.320  0.00  0.00    +0.000 A 
ATOM     27  C   UNL     1       1.958  15.014  18.616  0.00  0.00    +0.000 A 
ATOM     28  C   UNL     1       2.194  16.236  19.244  0.00  0.00    +0.000 A 
ATOM     29  C   UNL     1       2.479  16.270  20.604  0.00  0.00    +0.000 A 
ATOM     30  C   UNL     1       2.520  15.083  21.336  0.00  0.00    +0.000 A 
ATOM     31  C   UNL     1       2.324  13.856  20.700  0.00  0.00    +0.000 A 
ENDBRANCH   6  26
TORSDOF 6
ENDMDL
MODEL 8
REMARK VINA RESULT:      -7.2      2.889      7.219
REMARK  Name = 
REMARK  8 active torsions:
REMARK  status: ('A' for Active; 'I' for Inactive)
REMARK    1  A    between atoms: C_1  and  O_2
REMARK    2  A    between atoms: O_2  and  C_3
REMARK    3  A    between atoms: C_6  and  C_7
REMARK    4  A    between atoms: C_9  and  C_10
REMARK    5  A    between atoms: C_15  and  O_16
REMARK    6  A    between atoms: C_19  and  C_21
REMARK    7  A    between atoms: C_28  and  O_29
REMARK    8  A    between atoms: O_29  and  C_30
REMARK                            x       y       z     vdW  Elec       q    Type
REMARK                         _______ _______ _______ _____ _____    ______ ____
ROOT
ATOM      1  C   UNL     1      -0.874  11.852  22.700  0.00  0.00    +0.000 C 
ATOM      2  C   UNL     1      -0.629  10.461  22.106  0.00  0.00    +0.000 C 
ATOM      3  C   UNL     1       0.433  10.775  21.093  0.00  0.00    +0.000 C 
ATOM      4  N   UNL     1       0.788  12.018  21.039  0.00  0.00    +0.000 NA
ATOM      5  N   UNL     1       0.011  12.718  21.919  0.00  0.00    +0.000 N 
ATOM      6  C   UNL     1       0.199  14.078  22.167  0.00  0.00    +0.000 C 
ATOM      7  O   UNL     1      -0.369  14.667  23.090  0.00  0.00    +0.000 OA
ENDROOT
BRANCH   1  11
ATOM      8  C   UNL     1      -5.011  13.109  22.416  0.00  0.00    +0.000 A 
ATOM      9  C   UNL     1      -4.472  12.738  23.658  0.00  0.00    +0.000 A 
ATOM     10  C   UNL     1      -3.149  12.312  23.766  0.00  0.00    +0.000 A 
ATOM     11  C   UNL     1      -2.352  12.190  22.629  0.00  0.00    +0.000 A 
ATOM     12  C   UNL     1      -2.931  12.461  21.378  0.00  0.00    +0.000 A 
ATOM     13  C   UNL     1      -4.255  12.913  21.254  0.00  0.00    +0.000 A 
BRANCH   8  15
ATOM     14  C   UNL     1      -6.527  14.691  23.286  0.00  0.00    +0.000 C 
ATOM     15  O   UNL     1      -6.265  13.658  22.337  0.00  0.00    +0.000 OA
ENDBRANCH   8  15
BRANCH  13  16
ATOM     16  O   UNL     1      -4.600  13.142  19.949  0.00  0.00    +0.000 OA
ATOM     17  C   UNL     1      -5.236  12.108  19.216  0.00  0.00    +0.000 C 
ENDBRANCH  13  16
ENDBRANCH   1  11
BRANCH   3  18
ATOM     18  C   UNL     1       0.981   9.776  20.145  0.00  0.00    +0.000 A 
ATOM     19  C   UNL     1       1.413   8.546  20.676  0.00  0.00    +0.000 A 
ATOM     20  C   UNL     1       1.994   7.580  19.854  0.00  0.00    +0.000 A 
ATOM     21  C   UNL     1       2.132   7.829  18.491  0.00  0.00    +0.000 A 
ATOM     22  C   UNL     1       1.687   9.035  17.951  0.00  0.00    +0.000 A 
ATOM     23  C   UNL     1       1.114  10.007  18.775  0.00  0.00    +0.000 A 
BRANCH  23  24
ATOM     24  O   UNL     1       0.669  11.172  18.219  0.00  0.00    +0.000 OA
ATOM     25  H   UNL     1       1.204  11.913  18.555  0.00  0.00    +0.000 HD
ENDBRANCH  23  24
ENDBRANCH   3  18
BRANCH   6  26
ATOM     26  C   UNL     1       1.132  14.853  21.288  0.00  0.00    +0.000 A 
ATOM     27  C   UNL     1       0.761  15.382  20.042  0.00  0.00    +0.000 A 
ATOM     28  C   UNL     1       1.698  15.999  19.215  0.00  0.00    +0.000 A 
ATOM     29  C   UNL     1       3.007  16.160  19.655  0.00  0.00    +0.000 A 
ATOM     30  C   UNL     1       3.374  15.712  20.925  0.00  0.00    +0.000 A 
ATOM     31  C   UNL     1       2.445  15.058  21.737  0.00  0.00    +0.000 A 
ENDBRANCH   6  26
TORSDOF 6
ENDMDL
MODEL 9
REMARK VINA RESULT:      -7.2      3.118      7.902
REMARK  Name = 
REMARK  8 active torsions:
REMARK  status: ('A' for Active; 'I' for Inactive)
REMARK    1  A    between atoms: C_1  and  O_2
REMARK    2  A    between atoms: O_2  and  C_3
REMARK    3  A    between atoms: C_6  and  C_7
REMARK    4  A    between atoms: C_9  and  C_10
REMARK    5  A    between atoms: C_15  and  O_16
REMARK    6  A    between atoms: C_19  and  C_21
REMARK    7  A    between atoms: C_28  and  O_29
REMARK    8  A    between atoms: O_29  and  C_30
REMARK                            x       y       z     vdW  Elec       q    Type
REMARK                         _______ _______ _______ _____ _____    ______ ____
ROOT
ATOM      1  C   UNL     1      -0.862  12.804  19.520  0.00  0.00    +0.000 C 
ATOM      2  C   UNL     1       0.008  14.017  19.863  0.00  0.00    +0.000 C 
ATOM      3  C   UNL     1       1.376  13.399  19.818  0.00  0.00    +0.000 C 
ATOM      4  N   UNL     1       1.398  12.139  19.524  0.00  0.00    +0.000 NA
ATOM      5  N   UNL     1       0.105  11.712  19.398  0.00  0.00    +0.000 N 
ATOM      6  C   UNL     1      -0.220  10.415  18.999  0.00  0.00    +0.000 C 
ATOM      7  O   UNL     1      -1.370  10.083  18.703  0.00  0.00    +0.000 OA
ENDROOT
BRANCH   1  11
ATOM      8  C   UNL     1      -3.959  12.584  22.544  0.00  0.00    +0.000 A 
ATOM      9  C   UNL     1      -2.628  12.289  22.877  0.00  0.00    +0.000 A 
ATOM     10  C   UNL     1      -1.620  12.335  21.914  0.00  0.00    +0.000 A 
ATOM     11  C   UNL     1      -1.929  12.618  20.584  0.00  0.00    +0.000 A 
ATOM     12  C   UNL     1      -3.277  12.808  20.239  0.00  0.00    +0.000 A 
ATOM     13  C   UNL     1      -4.301  12.787  21.201  0.00  0.00    +0.000 A 
BRANCH   8  15
ATOM     14  C   UNL     1      -4.449  12.426  24.844  0.00  0.00    +0.000 C 
ATOM     15  O   UNL     1      -4.917  12.673  23.519  0.00  0.00    +0.000 OA
ENDBRANCH   8  15
BRANCH  13  16
ATOM     16  O   UNL     1      -5.531  13.023  20.649  0.00  0.00    +0.000 OA
ATOM     17  C   UNL     1      -5.905  12.314  19.479  0.00  0.00    +0.000 C 
ENDBRANCH  13  16
ENDBRANCH   1  11
BRANCH   3  18
ATOM     18  C   UNL     1       2.616  14.128  20.173  0.00  0.00    +0.000 A 
ATOM     19  C   UNL     1       2.735  14.601  21.494  0.00  0.00    +0.000 A 
ATOM     20  C   UNL     1       3.847  15.347  21.886  0.00  0.00    +0.000 A 
ATOM     21  C   UNL     1       4.857  15.612  20.966  0.00  0.00    +0.000 A 
ATOM     22  C   UNL     1       4.760  15.129  19.661  0.00  0.00    +0.000 A 
ATOM     23  C   UNL     1       3.643  14.390  19.265  0.00  0.00    +0.000 A 
BRANCH  23  24
ATOM     24  O   UNL     1       3.579  13.913  17.987  0.00  0.00    +0.000 OA
ATOM     25  H   UNL     1       3.584  14.660  17.363  0.00  0.00    +0.000 HD
ENDBRANCH  23  24
ENDBRANCH   3  18
BRANCH   6  26
ATOM     26  C   UNL     1       0.867   9.388  18.919  0.00  0.00    +0.000 A 
ATOM     27  C   UNL     1       1.641   9.168  17.768  0.00  0.00    +0.000 A 
ATOM     28  C   UNL     1       2.564   8.126  17.710  0.00  0.00    +0.000 A 
ATOM     29  C   UNL     1       2.779   7.332  18.831  0.00  0.00    +0.000 A 
ATOM     30  C   UNL     1       2.077   7.588  20.010  0.00  0.00    +0.000 A 
ATOM     31  C   UNL     1       1.123   8.606  20.055  0.00  0.00    +0.000 A 
ENDBRANCH   6  26
TORSDOF 6
ENDMDL
