MODEL 1
REMARK VINA RESULT:      -7.8      0.000      0.000
REMARK  Name = 
REMARK  6 active torsions:
REMARK  status: ('A' for Active; 'I' for Inactive)
REMARK    1  A    between atoms: S_2  and  C_4
REMARK    2  A    between atoms: S_2  and  N_20
REMARK    3  A    between atoms: C_7  and  N_8
REMARK    4  A    between atoms: N_8  and  C_9
REMARK    5  A    between atoms: C_9  and  N_11
REMARK    6  A    between atoms: N_11  and  C_12
REMARK                            x       y       z     vdW  Elec       q    Type
REMARK                         _______ _______ _______ _____ _____    ______ ____
ROOT
ATOM      1  C   UNL     1       2.391   6.765  19.084  0.00  0.00    +0.000 A 
ATOM      2  C   UNL     1       1.885   7.110  20.343  0.00  0.00    +0.000 A 
ATOM      3  C   UNL     1       1.352   8.399  20.553  0.00  0.00    +0.000 A 
ATOM      4  C   UNL     1       1.333   9.346  19.513  0.00  0.00    +0.000 A 
ATOM      5  C   UNL     1       1.806   8.942  18.266  0.00  0.00    +0.000 A 
ATOM      6  C   UNL     1       2.386   7.697  18.061  0.00  0.00    +0.000 A 
ENDROOT
BRANCH   1   8
ATOM      7  O   UNL     1       3.336   4.522  20.046  0.00  0.00    +0.000 OA
ATOM      8  S   UNL     1       3.167   5.202  18.767  0.00  0.00    +0.000 S 
ATOM      9  O   UNL     1       2.435   4.564  17.700  0.00  0.00    +0.000 OA
BRANCH   8  10
ATOM     10  N   UNL     1       4.770   5.579  18.184  0.00  0.00    +0.000 NA
ATOM     11  C   UNL     1       5.862   5.324  19.184  0.00  0.00    +0.000 C 
ATOM     12  C   UNL     1       7.255   5.544  18.595  0.00  0.00    +0.000 C 
ATOM     13  C   UNL     1       7.469   4.750  17.316  0.00  0.00    +0.000 C 
ATOM     14  C   UNL     1       6.385   5.117  16.318  0.00  0.00    +0.000 C 
ATOM     15  C   UNL     1       5.003   4.848  16.894  0.00  0.00    +0.000 C 
ENDBRANCH   8  10
ENDBRANCH   1   8
BRANCH   4  16
ATOM     16  N   UNL     1       0.902  10.664  19.799  0.00  0.00    +0.000 N 
ATOM     17  H   UNL     1       1.407  11.152  20.527  0.00  0.00    +0.000 HD
BRANCH  16  18
ATOM     18  C   UNL     1      -0.072  11.444  19.153  0.00  0.00    +0.000 C 
ATOM     19  S   UNL     1       0.027  13.043  18.637  0.00  0.00    +0.000 S 
BRANCH  18  20
ATOM     20  N   UNL     1      -1.287  10.744  19.136  0.00  0.00    +0.000 N 
ATOM     21  H   UNL     1      -1.699  10.645  20.058  0.00  0.00    +0.000 HD
BRANCH  20  22
ATOM     22  C   UNL     1      -2.199  10.717  18.050  0.00  0.00    +0.000 A 
ATOM     23  C   UNL     1      -3.342  11.521  18.063  0.00  0.00    +0.000 A 
ATOM     24  C   UNL     1      -4.238  11.503  16.992  0.00  0.00    +0.000 A 
ATOM     25  C   UNL     1      -3.979  10.700  15.888  0.00  0.00    +0.000 A 
ATOM     26  C   UNL     1      -2.826   9.911  15.861  0.00  0.00    +0.000 A 
ATOM     27  C   UNL     1      -1.936   9.916  16.934  0.00  0.00    +0.000 A 
ENDBRANCH  20  22
ENDBRANCH  18  20
ENDBRANCH  16  18
ENDBRANCH   4  16
TORSDOF 6
ENDMDL
MODEL 2
REMARK VINA RESULT:      -7.8      0.669      1.184
REMARK  Name = 
REMARK  6 active torsions:
REMARK  status: ('A' for Active; 'I' for Inactive)
REMARK    1  A    between atoms: S_2  and  C_4
REMARK    2  A    between atoms: S_2  and  N_20
REMARK    3  A    between atoms: C_7  and  N_8
REMARK    4  A    between atoms: N_8  and  C_9
REMARK    5  A    between atoms: C_9  and  N_11
REMARK    6  A    between atoms: N_11  and  C_12
REMARK                            x       y       z     vdW  Elec       q    Type
REMARK                         _______ _______ _______ _____ _____    ______ ____
ROOT
ATOM      1  C   UNL     1       2.497   6.694  18.794  0.00  0.00    +0.000 A 
ATOM      2  C   UNL     1       2.381   7.745  17.876  0.00  0.00    +0.000 A 
ATOM      3  C   UNL     1       1.849   8.983  18.295  0.00  0.00    +0.000 A 
ATOM      4  C   UNL     1       1.424   9.169  19.623  0.00  0.00    +0.000 A 
ATOM      5  C   UNL     1       1.602   8.109  20.511  0.00  0.00    +0.000 A 
ATOM      6  C   UNL     1       2.069   6.868  20.099  0.00  0.00    +0.000 A 
ENDROOT
BRANCH   1   8
ATOM      7  O   UNL     1       3.614   4.438  19.509  0.00  0.00    +0.000 OA
ATOM      8  S   UNL     1       3.060   5.080  18.323  0.00  0.00    +0.000 S 
ATOM      9  O   UNL     1       1.991   4.445  17.590  0.00  0.00    +0.000 OA
BRANCH   8  10
ATOM     10  N   UNL     1       4.394   5.345  17.227  0.00  0.00    +0.000 NA
ATOM     11  C   UNL     1       5.622   5.911  17.881  0.00  0.00    +0.000 C 
ATOM     12  C   UNL     1       6.804   6.009  16.917  0.00  0.00    +0.000 C 
ATOM     13  C   UNL     1       7.095   4.684  16.230  0.00  0.00    +0.000 C 
ATOM     14  C   UNL     1       5.841   4.211  15.517  0.00  0.00    +0.000 C 
ATOM     15  C   UNL     1       4.682   4.068  16.493  0.00  0.00    +0.000 C 
ENDBRANCH   8  10
ENDBRANCH   1   8
BRANCH   4  16
ATOM     16  N   UNL     1       0.786  10.384  19.971  0.00  0.00    +0.000 N 
ATOM     17  H   UNL     1       1.074  10.808  20.842  0.00  0.00    +0.000 HD
BRANCH  16  18
ATOM     18  C   UNL     1      -0.134  11.151  19.236  0.00  0.00    +0.000 C 
ATOM     19  S   UNL     1      -0.012  12.753  18.735  0.00  0.00    +0.000 S 
BRANCH  18  20
ATOM     20  N   UNL     1      -1.331  10.432  19.100  0.00  0.00    +0.000 N 
ATOM     21  H   UNL     1      -1.758  10.203  19.991  0.00  0.00    +0.000 HD
BRANCH  20  22
ATOM     22  C   UNL     1      -2.220  10.527  17.999  0.00  0.00    +0.000 A 
ATOM     23  C   UNL     1      -3.361  11.330  18.075  0.00  0.00    +0.000 A 
ATOM     24  C   UNL     1      -4.234  11.432  16.990  0.00  0.00    +0.000 A 
ATOM     25  C   UNL     1      -3.954  10.752  15.811  0.00  0.00    +0.000 A 
ATOM     26  C   UNL     1      -2.804   9.965  15.723  0.00  0.00    +0.000 A 
ATOM     27  C   UNL     1      -1.936   9.849  16.808  0.00  0.00    +0.000 A 
ENDBRANCH  20  22
ENDBRANCH  18  20
ENDBRANCH  16  18
ENDBRANCH   4  16
TORSDOF 6
ENDMDL
MODEL 3
REMARK VINA RESULT:      -7.7      0.716      1.536
REMARK  Name = 
REMARK  6 active torsions:
REMARK  status: ('A' for Active; 'I' for Inactive)
REMARK    1  A    between atoms: S_2  and  C_4
REMARK    2  A    between atoms: S_2  and  N_20
REMARK    3  A    between atoms: C_7  and  N_8
REMARK    4  A    between atoms: N_8  and  C_9
REMARK    5  A    between atoms: C_9  and  N_11
REMARK    6  A    between atoms: N_11  and  C_12
REMARK                            x       y       z     vdW  Elec       q    Type
REMARK                         _______ _______ _______ _____ _____    ______ ____
ROOT
ATOM      1  C   UNL     1       2.460   7.213  18.914  0.00  0.00    +0.000 A 
ATOM      2  C   UNL     1       2.405   8.095  17.827  0.00  0.00    +0.000 A 
ATOM      3  C   UNL     1       1.785   9.353  17.979  0.00  0.00    +0.000 A 
ATOM      4  C   UNL     1       1.212   9.727  19.207  0.00  0.00    +0.000 A 
ATOM      5  C   UNL     1       1.332   8.836  20.272  0.00  0.00    +0.000 A 
ATOM      6  C   UNL     1       1.887   7.572  20.121  0.00  0.00    +0.000 A 
ENDROOT
BRANCH   1   8
ATOM      7  O   UNL     1       3.266   5.038  20.125  0.00  0.00    +0.000 OA
ATOM      8  S   UNL     1       3.132   5.578  18.777  0.00  0.00    +0.000 S 
ATOM      9  O   UNL     1       2.352   4.872  17.790  0.00  0.00    +0.000 OA
BRANCH   8  10
ATOM     10  N   UNL     1       4.750   5.781  18.154  0.00  0.00    +0.000 NA
ATOM     11  C   UNL     1       5.826   5.234  19.050  0.00  0.00    +0.000 C 
ATOM     12  C   UNL     1       7.213   5.317  18.414  0.00  0.00    +0.000 C 
ATOM     13  C   UNL     1       7.251   4.675  17.036  0.00  0.00    +0.000 C 
ATOM     14  C   UNL     1       6.202   5.330  16.156  0.00  0.00    +0.000 C 
ATOM     15  C   UNL     1       4.817   5.199  16.772  0.00  0.00    +0.000 C 
ENDBRANCH   8  10
ENDBRANCH   1   8
BRANCH   4  16
ATOM     16  N   UNL     1       0.494  10.946  19.282  0.00  0.00    +0.000 N 
ATOM     17  H   UNL     1       0.977  11.771  18.953  0.00  0.00    +0.000 HD
BRANCH  16  18
ATOM     18  C   UNL     1      -0.839  11.174  19.662  0.00  0.00    +0.000 C 
ATOM     19  S   UNL     1      -1.441  12.238  20.819  0.00  0.00    +0.000 S 
BRANCH  18  20
ATOM     20  N   UNL     1      -1.665  10.223  19.044  0.00  0.00    +0.000 N 
ATOM     21  H   UNL     1      -2.063   9.559  19.701  0.00  0.00    +0.000 HD
BRANCH  20  22
ATOM     22  C   UNL     1      -2.413  10.438  17.859  0.00  0.00    +0.000 A 
ATOM     23  C   UNL     1      -2.020   9.849  16.654  0.00  0.00    +0.000 A 
ATOM     24  C   UNL     1      -2.759  10.053  15.487  0.00  0.00    +0.000 A 
ATOM     25  C   UNL     1      -3.913  10.825  15.526  0.00  0.00    +0.000 A 
ATOM     26  C   UNL     1      -4.323  11.398  16.732  0.00  0.00    +0.000 A 
ATOM     27  C   UNL     1      -3.580  11.209  17.897  0.00  0.00    +0.000 A 
ENDBRANCH  20  22
ENDBRANCH  18  20
ENDBRANCH  16  18
ENDBRANCH   4  16
TORSDOF 6
ENDMDL
MODEL 4
REMARK VINA RESULT:      -7.7      0.869      1.329
REMARK  Name = 
REMARK  6 active torsions:
REMARK  status: ('A' for Active; 'I' for Inactive)
REMARK    1  A    between atoms: S_2  and  C_4
REMARK    2  A    between atoms: S_2  and  N_20
REMARK    3  A    between atoms: C_7  and  N_8
REMARK    4  A    between atoms: N_8  and  C_9
REMARK    5  A    between atoms: C_9  and  N_11
REMARK    6  A    between atoms: N_11  and  C_12
REMARK                            x       y       z     vdW  Elec       q    Type
REMARK                         _______ _______ _______ _____ _____    ______ ____
ROOT
ATOM      1  C   UNL     1       2.620   6.625  19.000  0.00  0.00    +0.000 A 
ATOM      2  C   UNL     1       2.494   7.624  18.026  0.00  0.00    +0.000 A 
ATOM      3  C   UNL     1       1.844   8.834  18.346  0.00  0.00    +0.000 A 
ATOM      4  C   UNL     1       1.310   9.044  19.630  0.00  0.00    +0.000 A 
ATOM      5  C   UNL     1       1.499   8.040  20.578  0.00  0.00    +0.000 A 
ATOM      6  C   UNL     1       2.085   6.822  20.261  0.00  0.00    +0.000 A 
ENDROOT
BRANCH   1   8
ATOM      7  O   UNL     1       3.463   4.320  19.909  0.00  0.00    +0.000 OA
ATOM      8  S   UNL     1       3.333   5.040  18.648  0.00  0.00    +0.000 S 
ATOM      9  O   UNL     1       2.585   4.461  17.558  0.00  0.00    +0.000 OA
BRANCH   8  10
ATOM     10  N   UNL     1       4.955   5.365  18.087  0.00  0.00    +0.000 NA
ATOM     11  C   UNL     1       5.993   5.354  19.173  0.00  0.00    +0.000 C 
ATOM     12  C   UNL     1       7.412   5.516  18.626  0.00  0.00    +0.000 C 
ATOM     13  C   UNL     1       7.726   4.500  17.540  0.00  0.00    +0.000 C 
ATOM     14  C   UNL     1       6.693   4.622  16.435  0.00  0.00    +0.000 C 
ATOM     15  C   UNL     1       5.288   4.410  16.978  0.00  0.00    +0.000 C 
ENDBRANCH   8  10
ENDBRANCH   1   8
BRANCH   4  16
ATOM     16  N   UNL     1       0.560  10.220  19.873  0.00  0.00    +0.000 N 
ATOM     17  H   UNL     1      -0.171  10.149  20.569  0.00  0.00    +0.000 HD
BRANCH  16  18
ATOM     18  C   UNL     1       0.738  11.515  19.357  0.00  0.00    +0.000 C 
ATOM     19  S   UNL     1       1.563  12.817  20.031  0.00  0.00    +0.000 S 
BRANCH  18  20
ATOM     20  N   UNL     1      -0.052  11.666  18.207  0.00  0.00    +0.000 N 
ATOM     21  H   UNL     1       0.491  11.646  17.349  0.00  0.00    +0.000 HD
BRANCH  20  22
ATOM     22  C   UNL     1      -1.405  11.258  18.087  0.00  0.00    +0.000 A 
ATOM     23  C   UNL     1      -2.425  11.999  18.690  0.00  0.00    +0.000 A 
ATOM     24  C   UNL     1      -3.759  11.604  18.567  0.00  0.00    +0.000 A 
ATOM     25  C   UNL     1      -4.082  10.482  17.814  0.00  0.00    +0.000 A 
ATOM     26  C   UNL     1      -3.067   9.751  17.191  0.00  0.00    +0.000 A 
ATOM     27  C   UNL     1      -1.733  10.133  17.323  0.00  0.00    +0.000 A 
ENDBRANCH  20  22
ENDBRANCH  18  20
ENDBRANCH  16  18
ENDBRANCH   4  16
TORSDOF 6
ENDMDL
MODEL 5
REMARK VINA RESULT:      -7.6      2.475      8.667
REMARK  Name = 
REMARK  6 active torsions:
REMARK  status: ('A' for Active; 'I' for Inactive)
REMARK    1  A    between atoms: S_2  and  C_4
REMARK    2  A    between atoms: S_2  and  N_20
REMARK    3  A    between atoms: C_7  and  N_8
REMARK    4  A    between atoms: N_8  and  C_9
REMARK    5  A    between atoms: C_9  and  N_11
REMARK    6  A    between atoms: N_11  and  C_12
REMARK                            x       y       z     vdW  Elec       q    Type
REMARK                         _______ _______ _______ _____ _____    ______ ____
ROOT
ATOM      1  C   UNL     1       1.048   9.448  19.523  0.00  0.00    +0.000 A 
ATOM      2  C   UNL     1       1.767   8.959  18.425  0.00  0.00    +0.000 A 
ATOM      3  C   UNL     1       2.438   7.721  18.523  0.00  0.00    +0.000 A 
ATOM      4  C   UNL     1       2.400   6.978  19.716  0.00  0.00    +0.000 A 
ATOM      5  C   UNL     1       1.635   7.483  20.766  0.00  0.00    +0.000 A 
ATOM      6  C   UNL     1       1.019   8.725  20.703  0.00  0.00    +0.000 A 
ENDROOT
BRANCH   1   8
ATOM      7  O   UNL     1       0.215  11.519  20.888  0.00  0.00    +0.000 OA
ATOM      8  S   UNL     1       0.264  11.038  19.512  0.00  0.00    +0.000 S 
ATOM      9  O   UNL     1       0.905  11.830  18.491  0.00  0.00    +0.000 OA
BRANCH   8  10
ATOM     10  N   UNL     1      -1.388  10.747  19.024  0.00  0.00    +0.000 NA
ATOM     11  C   UNL     1      -2.285  11.945  19.155  0.00  0.00    +0.000 C 
ATOM     12  C   UNL     1      -3.687  11.688  18.600  0.00  0.00    +0.000 C 
ATOM     13  C   UNL     1      -3.650  11.167  17.172  0.00  0.00    +0.000 C 
ATOM     14  C   UNL     1      -2.800   9.911  17.124  0.00  0.00    +0.000 C 
ATOM     15  C   UNL     1      -1.392  10.188  17.631  0.00  0.00    +0.000 C 
ENDBRANCH   8  10
ENDBRANCH   1   8
BRANCH   4  16
ATOM     16  N   UNL     1       3.185   5.803  19.813  0.00  0.00    +0.000 N 
ATOM     17  H   UNL     1       4.007   5.861  20.399  0.00  0.00    +0.000 HD
BRANCH  16  18
ATOM     18  C   UNL     1       2.944   4.523  19.286  0.00  0.00    +0.000 C 
ATOM     19  S   UNL     1       1.480   3.713  19.106  0.00  0.00    +0.000 S 
BRANCH  18  20
ATOM     20  N   UNL     1       4.169   3.876  19.065  0.00  0.00    +0.000 N 
ATOM     21  H   UNL     1       4.180   2.922  19.413  0.00  0.00    +0.000 HD
BRANCH  20  22
ATOM     22  C   UNL     1       5.055   4.149  17.992  0.00  0.00    +0.000 A 
ATOM     23  C   UNL     1       4.637   3.989  16.668  0.00  0.00    +0.000 A 
ATOM     24  C   UNL     1       5.504   4.264  15.609  0.00  0.00    +0.000 A 
ATOM     25  C   UNL     1       6.787   4.730  15.869  0.00  0.00    +0.000 A 
ATOM     26  C   UNL     1       7.203   4.912  17.191  0.00  0.00    +0.000 A 
ATOM     27  C   UNL     1       6.344   4.625  18.252  0.00  0.00    +0.000 A 
ENDBRANCH  20  22
ENDBRANCH  18  20
ENDBRANCH  16  18
ENDBRANCH   4  16
TORSDOF 6
ENDMDL
MODEL 6
REMARK VINA RESULT:      -7.6      0.418      1.050
REMARK  Name = 
REMARK  6 active torsions:
REMARK  status: ('A' for Active; 'I' for Inactive)
REMARK    1  A    between atoms: S_2  and  C_4
REMARK    2  A    between atoms: S_2  and  N_20
REMARK    3  A    between atoms: C_7  and  N_8
REMARK    4  A    between atoms: N_8  and  C_9
REMARK    5  A    between atoms: C_9  and  N_11
REMARK    6  A    between atoms: N_11  and  C_12
REMARK                            x       y       z     vdW  Elec       q    Type
REMARK                         _______ _______ _______ _____ _____    ______ ____
ROOT
ATOM      1  C   UNL     1       2.343   6.971  19.059  0.00  0.00    +0.000 A 
ATOM      2  C   UNL     1       1.853   7.353  20.314  0.00  0.00    +0.000 A 
ATOM      3  C   UNL     1       1.338   8.654  20.497  0.00  0.00    +0.000 A 
ATOM      4  C   UNL     1       1.324   9.576  19.435  0.00  0.00    +0.000 A 
ATOM      5  C   UNL     1       1.781   9.135  18.194  0.00  0.00    +0.000 A 
ATOM      6  C   UNL     1       2.342   7.878  18.014  0.00  0.00    +0.000 A 
ENDROOT
BRANCH   1   8
ATOM      7  O   UNL     1       3.218   4.718  20.062  0.00  0.00    +0.000 OA
ATOM      8  S   UNL     1       3.095   5.391  18.775  0.00  0.00    +0.000 S 
ATOM      9  O   UNL     1       2.378   4.759  17.694  0.00  0.00    +0.000 OA
BRANCH   8  10
ATOM     10  N   UNL     1       4.719   5.731  18.230  0.00  0.00    +0.000 NA
ATOM     11  C   UNL     1       5.794   5.235  19.156  0.00  0.00    +0.000 C 
ATOM     12  C   UNL     1       7.197   5.438  18.584  0.00  0.00    +0.000 C 
ATOM     13  C   UNL     1       7.339   4.845  17.191  0.00  0.00    +0.000 C 
ATOM     14  C   UNL     1       6.283   5.450  16.285  0.00  0.00    +0.000 C 
ATOM     15  C   UNL     1       4.886   5.200  16.836  0.00  0.00    +0.000 C 
ENDBRANCH   8  10
ENDBRANCH   1   8
BRANCH   4  16
ATOM     16  N   UNL     1       0.914  10.907  19.692  0.00  0.00    +0.000 N 
ATOM     17  H   UNL     1       1.649  11.571  19.893  0.00  0.00    +0.000 HD
BRANCH  16  18
ATOM     18  C   UNL     1      -0.370  11.475  19.619  0.00  0.00    +0.000 C 
ATOM     19  S   UNL     1      -0.877  13.005  20.100  0.00  0.00    +0.000 S 
BRANCH  18  20
ATOM     20  N   UNL     1      -1.289  10.490  19.226  0.00  0.00    +0.000 N 
ATOM     21  H   UNL     1      -1.647   9.950  20.007  0.00  0.00    +0.000 HD
BRANCH  20  22
ATOM     22  C   UNL     1      -2.139  10.572  18.094  0.00  0.00    +0.000 A 
ATOM     23  C   UNL     1      -1.832   9.875  16.923  0.00  0.00    +0.000 A 
ATOM     24  C   UNL     1      -2.671   9.948  15.809  0.00  0.00    +0.000 A 
ATOM     25  C   UNL     1      -3.840  10.697  15.872  0.00  0.00    +0.000 A 
ATOM     26  C   UNL     1      -4.163  11.379  17.048  0.00  0.00    +0.000 A 
ATOM     27  C   UNL     1      -3.320  11.320  18.158  0.00  0.00    +0.000 A 
ENDBRANCH  20  22
ENDBRANCH  18  20
ENDBRANCH  16  18
ENDBRANCH   4  16
TORSDOF 6
ENDMDL
MODEL 7
REMARK VINA RESULT:      -7.6      2.743      8.455
REMARK  Name = 
REMARK  6 active torsions:
REMARK  status: ('A' for Active; 'I' for Inactive)
REMARK    1  A    between atoms: S_2  and  C_4
REMARK    2  A    between atoms: S_2  and  N_20
REMARK    3  A    between atoms: C_7  and  N_8
REMARK    4  A    between atoms: N_8  and  C_9
REMARK    5  A    between atoms: C_9  and  N_11
REMARK    6  A    between atoms: N_11  and  C_12
REMARK                            x       y       z     vdW  Elec       q    Type
REMARK                         _______ _______ _______ _____ _____    ______ ____
ROOT
ATOM      1  C   UNL     1       1.576   7.607  20.445  0.00  0.00    +0.000 A 
ATOM      2  C   UNL     1       1.491   6.293  20.922  0.00  0.00    +0.000 A 
ATOM      3  C   UNL     1       2.054   5.239  20.171  0.00  0.00    +0.000 A 
ATOM      4  C   UNL     1       2.689   5.494  18.943  0.00  0.00    +0.000 A 
ATOM      5  C   UNL     1       2.789   6.822  18.532  0.00  0.00    +0.000 A 
ATOM      6  C   UNL     1       2.189   7.861  19.231  0.00  0.00    +0.000 A 
ENDROOT
BRANCH   1   8
ATOM      7  O   UNL     1      -0.532   8.555  21.673  0.00  0.00    +0.000 OA
ATOM      8  S   UNL     1       0.808   8.971  21.279  0.00  0.00    +0.000 S 
ATOM      9  O   UNL     1       1.739   9.449  22.273  0.00  0.00    +0.000 OA
BRANCH   8  10
ATOM     10  N   UNL     1       0.612  10.216  20.069  0.00  0.00    +0.000 NA
ATOM     11  C   UNL     1      -0.740  10.226  19.413  0.00  0.00    +0.000 C 
ATOM     12  C   UNL     1      -0.915  11.404  18.455  0.00  0.00    +0.000 C 
ATOM     13  C   UNL     1      -0.605  12.735  19.122  0.00  0.00    +0.000 C 
ATOM     14  C   UNL     1       0.802  12.690  19.687  0.00  0.00    +0.000 C 
ATOM     15  C   UNL     1       0.954  11.544  20.678  0.00  0.00    +0.000 C 
ENDBRANCH   8  10
ENDBRANCH   1   8
BRANCH   4  16
ATOM     16  N   UNL     1       3.132   4.397  18.164  0.00  0.00    +0.000 N 
ATOM     17  H   UNL     1       2.682   4.275  17.267  0.00  0.00    +0.000 HD
BRANCH  16  18
ATOM     18  C   UNL     1       4.180   3.494  18.409  0.00  0.00    +0.000 C 
ATOM     19  S   UNL     1       4.309   2.328  19.616  0.00  0.00    +0.000 S 
BRANCH  18  20
ATOM     20  N   UNL     1       5.265   3.808  17.577  0.00  0.00    +0.000 N 
ATOM     21  H   UNL     1       5.137   3.488  16.622  0.00  0.00    +0.000 HD
BRANCH  20  22
ATOM     22  C   UNL     1       6.121   4.927  17.740  0.00  0.00    +0.000 A 
ATOM     23  C   UNL     1       6.070   5.996  16.841  0.00  0.00    +0.000 A 
ATOM     24  C   UNL     1       6.906   7.103  17.003  0.00  0.00    +0.000 A 
ATOM     25  C   UNL     1       7.779   7.158  18.083  0.00  0.00    +0.000 A 
ATOM     26  C   UNL     1       7.818   6.101  18.996  0.00  0.00    +0.000 A 
ATOM     27  C   UNL     1       6.995   4.988  18.830  0.00  0.00    +0.000 A 
ENDBRANCH  20  22
ENDBRANCH  18  20
ENDBRANCH  16  18
ENDBRANCH   4  16
TORSDOF 6
ENDMDL
MODEL 8
REMARK VINA RESULT:      -7.5      3.057      8.255
REMARK  Name = 
REMARK  6 active torsions:
REMARK  status: ('A' for Active; 'I' for Inactive)
REMARK    1  A    between atoms: S_2  and  C_4
REMARK    2  A    between atoms: S_2  and  N_20
REMARK    3  A    between atoms: C_7  and  N_8
REMARK    4  A    between atoms: N_8  and  C_9
REMARK    5  A    between atoms: C_9  and  N_11
REMARK    6  A    between atoms: N_11  and  C_12
REMARK                            x       y       z     vdW  Elec       q    Type
REMARK                         _______ _______ _______ _____ _____    ______ ____
ROOT
ATOM      1  C   UNL     1       1.075   9.635  19.150  0.00  0.00    +0.000 A 
ATOM      2  C   UNL     1       1.831   9.415  17.992  0.00  0.00    +0.000 A 
ATOM      3  C   UNL     1       2.650   8.270  17.899  0.00  0.00    +0.000 A 
ATOM      4  C   UNL     1       2.724   7.352  18.962  0.00  0.00    +0.000 A 
ATOM      5  C   UNL     1       1.919   7.590  20.075  0.00  0.00    +0.000 A 
ATOM      6  C   UNL     1       1.153   8.741  20.203  0.00  0.00    +0.000 A 
ENDROOT
BRANCH   1   8
ATOM      7  O   UNL     1       0.022  11.356  20.817  0.00  0.00    +0.000 OA
ATOM      8  S   UNL     1       0.100  11.098  19.384  0.00  0.00    +0.000 S 
ATOM      9  O   UNL     1       0.617  12.109  18.494  0.00  0.00    +0.000 OA
BRANCH   8  10
ATOM     10  N   UNL     1      -1.513  10.680  18.862  0.00  0.00    +0.000 NA
ATOM     11  C   UNL     1      -2.497  11.813  18.942  0.00  0.00    +0.000 C 
ATOM     12  C   UNL     1      -3.861  11.445  18.359  0.00  0.00    +0.000 C 
ATOM     13  C   UNL     1      -3.750  10.897  16.944  0.00  0.00    +0.000 C 
ATOM     14  C   UNL     1      -2.812   9.704  16.947  0.00  0.00    +0.000 C 
ATOM     15  C   UNL     1      -1.441  10.092  17.483  0.00  0.00    +0.000 C 
ENDBRANCH   8  10
ENDBRANCH   1   8
BRANCH   4  16
ATOM     16  N   UNL     1       3.649   6.284  18.877  0.00  0.00    +0.000 N 
ATOM     17  H   UNL     1       4.102   6.014  19.740  0.00  0.00    +0.000 HD
BRANCH  16  18
ATOM     18  C   UNL     1       3.970   5.466  17.780  0.00  0.00    +0.000 C 
ATOM     19  S   UNL     1       4.941   5.816  16.451  0.00  0.00    +0.000 S 
BRANCH  18  20
ATOM     20  N   UNL     1       3.198   4.296  17.834  0.00  0.00    +0.000 N 
ATOM     21  H   UNL     1       3.449   3.624  17.116  0.00  0.00    +0.000 HD
BRANCH  20  22
ATOM     22  C   UNL     1       2.619   3.753  19.009  0.00  0.00    +0.000 A 
ATOM     23  C   UNL     1       3.420   3.141  19.977  0.00  0.00    +0.000 A 
ATOM     24  C   UNL     1       2.854   2.612  21.138  0.00  0.00    +0.000 A 
ATOM     25  C   UNL     1       1.485   2.719  21.352  0.00  0.00    +0.000 A 
ATOM     26  C   UNL     1       0.683   3.350  20.397  0.00  0.00    +0.000 A 
ATOM     27  C   UNL     1       1.242   3.867  19.229  0.00  0.00    +0.000 A 
ENDBRANCH  20  22
ENDBRANCH  18  20
ENDBRANCH  16  18
ENDBRANCH   4  16
TORSDOF 6
ENDMDL
MODEL 9
REMARK VINA RESULT:      -7.5      2.375      3.042
REMARK  Name = 
REMARK  6 active torsions:
REMARK  status: ('A' for Active; 'I' for Inactive)
REMARK    1  A    between atoms: S_2  and  C_4
REMARK    2  A    between atoms: S_2  and  N_20
REMARK    3  A    between atoms: C_7  and  N_8
REMARK    4  A    between atoms: N_8  and  C_9
REMARK    5  A    between atoms: C_9  and  N_11
REMARK    6  A    between atoms: N_11  and  C_12
REMARK                            x       y       z     vdW  Elec       q    Type
REMARK                         _______ _______ _______ _____ _____    ______ ____
ROOT
ATOM      1  C   UNL     1       2.269   7.483  19.074  0.00  0.00    +0.000 A 
ATOM      2  C   UNL     1       1.749   7.817  20.331  0.00  0.00    +0.000 A 
ATOM      3  C   UNL     1       1.178   9.091  20.536  0.00  0.00    +0.000 A 
ATOM      4  C   UNL     1       1.136  10.034  19.494  0.00  0.00    +0.000 A 
ATOM      5  C   UNL     1       1.624   9.640  18.249  0.00  0.00    +0.000 A 
ATOM      6  C   UNL     1       2.241   8.412  18.049  0.00  0.00    +0.000 A 
ENDROOT
BRANCH   1   8
ATOM      7  O   UNL     1       3.314   5.838  17.328  0.00  0.00    +0.000 OA
ATOM      8  S   UNL     1       3.092   5.943  18.765  0.00  0.00    +0.000 S 
ATOM      9  O   UNL     1       4.206   5.857  19.677  0.00  0.00    +0.000 OA
BRANCH   8  10
ATOM     10  N   UNL     1       1.941   4.699  19.186  0.00  0.00    +0.000 NA
ATOM     11  C   UNL     1       1.822   3.602  18.167  0.00  0.00    +0.000 C 
ATOM     12  C   UNL     1       0.902   2.472  18.629  0.00  0.00    +0.000 C 
ATOM     13  C   UNL     1       1.303   1.930  19.992  0.00  0.00    +0.000 C 
ATOM     14  C   UNL     1       1.319   3.070  20.993  0.00  0.00    +0.000 C 
ATOM     15  C   UNL     1       2.275   4.168  20.550  0.00  0.00    +0.000 C 
ENDBRANCH   8  10
ENDBRANCH   1   8
BRANCH   4  16
ATOM     16  N   UNL     1       0.666  11.340  19.774  0.00  0.00    +0.000 N 
ATOM     17  H   UNL     1       1.337  11.980  20.176  0.00  0.00    +0.000 HD
BRANCH  16  18
ATOM     18  C   UNL     1      -0.582  11.920  19.489  0.00  0.00    +0.000 C 
ATOM     19  S   UNL     1      -1.047  13.533  19.599  0.00  0.00    +0.000 S 
BRANCH  18  20
ATOM     20  N   UNL     1      -1.519  10.903  19.248  0.00  0.00    +0.000 N 
ATOM     21  H   UNL     1      -1.938  10.541  20.099  0.00  0.00    +0.000 HD
BRANCH  20  22
ATOM     22  C   UNL     1      -2.308  10.782  18.075  0.00  0.00    +0.000 A 
ATOM     23  C   UNL     1      -3.507  11.488  17.951  0.00  0.00    +0.000 A 
ATOM     24  C   UNL     1      -4.282  11.377  16.795  0.00  0.00    +0.000 A 
ATOM     25  C   UNL     1      -3.846  10.580  15.744  0.00  0.00    +0.000 A 
ATOM     26  C   UNL     1      -2.637   9.888  15.855  0.00  0.00    +0.000 A 
ATOM     27  C   UNL     1      -1.867   9.986  17.013  0.00  0.00    +0.000 A 
ENDBRANCH  20  22
ENDBRANCH  18  20
ENDBRANCH  16  18
ENDBRANCH   4  16
TORSDOF 6
ENDMDL
