MODEL 1
REMARK VINA RESULT:      -7.3      0.000      0.000
REMARK  Name = 
REMARK  7 active torsions:
REMARK  status: ('A' for Active; 'I' for Inactive)
REMARK    1  A    between atoms: C_1  and  C_2
REMARK    2  A    between atoms: C_5  and  C_6
REMARK    3  A    between atoms: C_19  and  O_20
REMARK    4  A    between atoms: O_20  and  C_21
REMARK    5  A    between atoms: C_21  and  C_22
REMARK    6  A    between atoms: C_22  and  C_23
REMARK    7  A    between atoms: C_22  and  C_24
REMARK                            x       y       z     vdW  Elec       q    Type
REMARK                         _______ _______ _______ _____ _____    ______ ____
ROOT
ATOM      1  C   UNL     1       4.941   4.079  17.793  0.00  0.00    +0.000 A 
ATOM      2  O   UNL     1       4.708   3.571  16.522  0.00  0.00    +0.000 OA
ATOM      3  C   UNL     1       5.519   3.993  15.498  0.00  0.00    +0.000 A 
ATOM      4  C   UNL     1       5.218   3.544  14.211  0.00  0.00    +0.000 A 
ATOM      5  C   UNL     1       5.986   3.973  13.123  0.00  0.00    +0.000 A 
ATOM      6  C   UNL     1       7.064   4.838  13.329  0.00  0.00    +0.000 A 
ATOM      7 CL   UNL     1       7.993   5.380  11.987  0.00  0.00    +0.000 Cl
ATOM      8  C   UNL     1       7.385   5.270  14.613  0.00  0.00    +0.000 A 
ATOM      9  C   UNL     1       6.602   4.846  15.694  0.00  0.00    +0.000 A 
ATOM     10  C   UNL     1       6.910   5.305  17.055  0.00  0.00    +0.000 A 
ATOM     11  O   UNL     1       7.900   5.999  17.264  0.00  0.00    +0.000 OA
ATOM     12  C   UNL     1       5.965   4.888  18.117  0.00  0.00    +0.000 A 
ATOM     13 CL   UNL     1       6.271   5.485  19.708  0.00  0.00    +0.000 Cl
ENDROOT
BRANCH   1  18
ATOM     14  C   UNL     1       1.357   2.546  22.066  0.00  0.00    +0.000 C 
ATOM     15  C   UNL     1       2.240   2.890  20.901  0.00  0.00    +0.000 A 
ATOM     16  C   UNL     1       3.320   2.080  20.546  0.00  0.00    +0.000 A 
ATOM     17  C   UNL     1       4.167   2.453  19.500  0.00  0.00    +0.000 A 
ATOM     18  C   UNL     1       3.945   3.645  18.794  0.00  0.00    +0.000 A 
ATOM     19  C   UNL     1       2.831   4.445  19.118  0.00  0.00    +0.000 A 
ATOM     20  C   UNL     1       1.994   4.062  20.172  0.00  0.00    +0.000 A 
BRANCH  19  21
ATOM     21  O   UNL     1       2.654   5.577  18.365  0.00  0.00    +0.000 OA
BRANCH  21  22
ATOM     22  C   UNL     1       2.497   6.817  19.058  0.00  0.00    +0.000 C 
BRANCH  22  23
ATOM     23  C   UNL     1       2.953   7.971  18.153  0.00  0.00    +0.000 C 
ATOM     24  C   UNL     1       3.744   7.450  16.952  0.00  0.00    +0.000 C 
ATOM     25  C   UNL     1       1.755   8.795  17.680  0.00  0.00    +0.000 C 
ENDBRANCH  22  23
ENDBRANCH  21  22
ENDBRANCH  19  21
ENDBRANCH   1  18
TORSDOF 4
ENDMDL
MODEL 2
REMARK VINA RESULT:      -7.1      3.051      6.754
REMARK  Name = 
REMARK  7 active torsions:
REMARK  status: ('A' for Active; 'I' for Inactive)
REMARK    1  A    between atoms: C_1  and  C_2
REMARK    2  A    between atoms: C_5  and  C_6
REMARK    3  A    between atoms: C_19  and  O_20
REMARK    4  A    between atoms: O_20  and  C_21
REMARK    5  A    between atoms: C_21  and  C_22
REMARK    6  A    between atoms: C_22  and  C_23
REMARK    7  A    between atoms: C_22  and  C_24
REMARK                            x       y       z     vdW  Elec       q    Type
REMARK                         _______ _______ _______ _____ _____    ______ ____
ROOT
ATOM      1  C   UNL     1       2.298   6.561  19.251  0.00  0.00    +0.000 A 
ATOM      2  O   UNL     1       1.597   6.886  20.406  0.00  0.00    +0.000 OA
ATOM      3  C   UNL     1       1.246   8.198  20.603  0.00  0.00    +0.000 A 
ATOM      4  C   UNL     1       0.621   8.525  21.807  0.00  0.00    +0.000 A 
ATOM      5  C   UNL     1       0.278   9.853  22.079  0.00  0.00    +0.000 A 
ATOM      6  C   UNL     1       0.546  10.850  21.138  0.00  0.00    +0.000 A 
ATOM      7 CL   UNL     1       0.142  12.485  21.484  0.00  0.00    +0.000 Cl
ATOM      8  C   UNL     1       1.147  10.528  19.924  0.00  0.00    +0.000 A 
ATOM      9  C   UNL     1       1.500   9.198  19.666  0.00  0.00    +0.000 A 
ATOM     10  C   UNL     1       2.153   8.837  18.400  0.00  0.00    +0.000 A 
ATOM     11  O   UNL     1       2.323   9.685  17.530  0.00  0.00    +0.000 OA
ATOM     12  C   UNL     1       2.581   7.426  18.262  0.00  0.00    +0.000 A 
ATOM     13 CL   UNL     1       3.420   7.007  16.811  0.00  0.00    +0.000 Cl
ENDROOT
BRANCH   1  18
ATOM     14  C   UNL     1       3.908   1.054  18.526  0.00  0.00    +0.000 C 
ATOM     15  C   UNL     1       3.473   2.465  18.801  0.00  0.00    +0.000 A 
ATOM     16  C   UNL     1       2.126   2.829  18.758  0.00  0.00    +0.000 A 
ATOM     17  C   UNL     1       1.750   4.160  18.953  0.00  0.00    +0.000 A 
ATOM     18  C   UNL     1       2.718   5.146  19.194  0.00  0.00    +0.000 A 
ATOM     19  C   UNL     1       4.075   4.778  19.283  0.00  0.00    +0.000 A 
ATOM     20  C   UNL     1       4.439   3.442  19.079  0.00  0.00    +0.000 A 
BRANCH  19  21
ATOM     21  O   UNL     1       4.963   5.786  19.555  0.00  0.00    +0.000 OA
BRANCH  21  22
ATOM     22  C   UNL     1       6.348   5.535  19.309  0.00  0.00    +0.000 C 
BRANCH  22  23
ATOM     23  C   UNL     1       6.678   5.873  17.848  0.00  0.00    +0.000 C 
ATOM     24  C   UNL     1       7.571   7.111  17.757  0.00  0.00    +0.000 C 
ATOM     25  C   UNL     1       7.348   4.687  17.154  0.00  0.00    +0.000 C 
ENDBRANCH  22  23
ENDBRANCH  21  22
ENDBRANCH  19  21
ENDBRANCH   1  18
TORSDOF 4
ENDMDL
MODEL 3
REMARK VINA RESULT:      -6.9      1.941      6.576
REMARK  Name = 
REMARK  7 active torsions:
REMARK  status: ('A' for Active; 'I' for Inactive)
REMARK    1  A    between atoms: C_1  and  C_2
REMARK    2  A    between atoms: C_5  and  C_6
REMARK    3  A    between atoms: C_19  and  O_20
REMARK    4  A    between atoms: O_20  and  C_21
REMARK    5  A    between atoms: C_21  and  C_22
REMARK    6  A    between atoms: C_22  and  C_23
REMARK    7  A    between atoms: C_22  and  C_24
REMARK                            x       y       z     vdW  Elec       q    Type
REMARK                         _______ _______ _______ _____ _____    ______ ____
ROOT
ATOM      1  C   UNL     1       4.689   4.492  16.297  0.00  0.00    +0.000 A 
ATOM      2  O   UNL     1       4.389   3.263  16.871  0.00  0.00    +0.000 OA
ATOM      3  C   UNL     1       3.697   3.253  18.056  0.00  0.00    +0.000 A 
ATOM      4  C   UNL     1       3.481   2.016  18.666  0.00  0.00    +0.000 A 
ATOM      5  C   UNL     1       2.816   1.950  19.895  0.00  0.00    +0.000 A 
ATOM      6  C   UNL     1       2.356   3.120  20.504  0.00  0.00    +0.000 A 
ATOM      7 CL   UNL     1       1.559   3.036  22.024  0.00  0.00    +0.000 Cl
ATOM      8  C   UNL     1       2.547   4.355  19.889  0.00  0.00    +0.000 A 
ATOM      9  C   UNL     1       3.225   4.413  18.666  0.00  0.00    +0.000 A 
ATOM     10  C   UNL     1       3.455   5.707  18.008  0.00  0.00    +0.000 A 
ATOM     11  O   UNL     1       2.988   6.735  18.488  0.00  0.00    +0.000 OA
ATOM     12  C   UNL     1       4.271   5.678  16.772  0.00  0.00    +0.000 A 
ATOM     13 CL   UNL     1       4.615   7.201  16.032  0.00  0.00    +0.000 Cl
ENDROOT
BRANCH   1  18
ATOM     14  C   UNL     1       7.698   4.463  11.359  0.00  0.00    +0.000 C 
ATOM     15  C   UNL     1       6.952   4.389  12.659  0.00  0.00    +0.000 A 
ATOM     16  C   UNL     1       5.718   3.742  12.751  0.00  0.00    +0.000 A 
ATOM     17  C   UNL     1       5.011   3.741  13.955  0.00  0.00    +0.000 A 
ATOM     18  C   UNL     1       5.528   4.390  15.086  0.00  0.00    +0.000 A 
ATOM     19  C   UNL     1       6.793   5.006  15.013  0.00  0.00    +0.000 A 
ATOM     20  C   UNL     1       7.489   5.005  13.799  0.00  0.00    +0.000 A 
BRANCH  19  21
ATOM     21  O   UNL     1       7.253   5.591  16.165  0.00  0.00    +0.000 OA
BRANCH  21  22
ATOM     22  C   UNL     1       7.616   4.731  17.247  0.00  0.00    +0.000 C 
BRANCH  22  23
ATOM     23  C   UNL     1       7.794   5.565  18.525  0.00  0.00    +0.000 C 
ATOM     24  C   UNL     1       7.861   7.058  18.204  0.00  0.00    +0.000 C 
ATOM     25  C   UNL     1       6.663   5.287  19.516  0.00  0.00    +0.000 C 
ENDBRANCH  22  23
ENDBRANCH  21  22
ENDBRANCH  19  21
ENDBRANCH   1  18
TORSDOF 4
ENDMDL
MODEL 4
REMARK VINA RESULT:      -6.8      2.381      6.566
REMARK  Name = 
REMARK  7 active torsions:
REMARK  status: ('A' for Active; 'I' for Inactive)
REMARK    1  A    between atoms: C_1  and  C_2
REMARK    2  A    between atoms: C_5  and  C_6
REMARK    3  A    between atoms: C_19  and  O_20
REMARK    4  A    between atoms: O_20  and  C_21
REMARK    5  A    between atoms: C_21  and  C_22
REMARK    6  A    between atoms: C_22  and  C_23
REMARK    7  A    between atoms: C_22  and  C_24
REMARK                            x       y       z     vdW  Elec       q    Type
REMARK                         _______ _______ _______ _____ _____    ______ ____
ROOT
ATOM      1  C   UNL     1       4.525   4.988  16.703  0.00  0.00    +0.000 A 
ATOM      2  O   UNL     1       4.225   6.342  16.772  0.00  0.00    +0.000 OA
ATOM      3  C   UNL     1       3.440   6.780  17.810  0.00  0.00    +0.000 A 
ATOM      4  C   UNL     1       3.073   8.126  17.818  0.00  0.00    +0.000 A 
ATOM      5  C   UNL     1       2.241   8.618  18.829  0.00  0.00    +0.000 A 
ATOM      6  C   UNL     1       1.791   7.765  19.839  0.00  0.00    +0.000 A 
ATOM      7 CL   UNL     1       0.752   8.368  21.069  0.00  0.00    +0.000 Cl
ATOM      8  C   UNL     1       2.173   6.426  19.852  0.00  0.00    +0.000 A 
ATOM      9  C   UNL     1       2.995   5.939  18.828  0.00  0.00    +0.000 A 
ATOM     10  C   UNL     1       3.395   4.525  18.809  0.00  0.00    +0.000 A 
ATOM     11  O   UNL     1       3.076   3.781  19.731  0.00  0.00    +0.000 OA
ATOM     12  C   UNL     1       4.178   4.080  17.633  0.00  0.00    +0.000 A 
ATOM     13 CL   UNL     1       4.587   2.404  17.560  0.00  0.00    +0.000 Cl
ENDROOT
BRANCH   1  18
ATOM     14  C   UNL     1       7.269   3.903  11.729  0.00  0.00    +0.000 C 
ATOM     15  C   UNL     1       6.577   4.101  13.047  0.00  0.00    +0.000 A 
ATOM     16  C   UNL     1       5.258   3.688  13.243  0.00  0.00    +0.000 A 
ATOM     17  C   UNL     1       4.613   3.940  14.456  0.00  0.00    +0.000 A 
ATOM     18  C   UNL     1       5.281   4.611  15.492  0.00  0.00    +0.000 A 
ATOM     19  C   UNL     1       6.626   4.990  15.317  0.00  0.00    +0.000 A 
ATOM     20  C   UNL     1       7.259   4.737  14.094  0.00  0.00    +0.000 A 
BRANCH  19  21
ATOM     21  O   UNL     1       7.228   5.610  16.382  0.00  0.00    +0.000 OA
BRANCH  21  22
ATOM     22  C   UNL     1       7.688   4.788  17.456  0.00  0.00    +0.000 C 
BRANCH  22  23
ATOM     23  C   UNL     1       7.867   5.646  18.718  0.00  0.00    +0.000 C 
ATOM     24  C   UNL     1       7.972   7.130  18.364  0.00  0.00    +0.000 C 
ATOM     25  C   UNL     1       6.716   5.415  19.698  0.00  0.00    +0.000 C 
ENDBRANCH  22  23
ENDBRANCH  21  22
ENDBRANCH  19  21
ENDBRANCH   1  18
TORSDOF 4
ENDMDL
MODEL 5
REMARK VINA RESULT:      -6.8      2.379      6.529
REMARK  Name = 
REMARK  7 active torsions:
REMARK  status: ('A' for Active; 'I' for Inactive)
REMARK    1  A    between atoms: C_1  and  C_2
REMARK    2  A    between atoms: C_5  and  C_6
REMARK    3  A    between atoms: C_19  and  O_20
REMARK    4  A    between atoms: O_20  and  C_21
REMARK    5  A    between atoms: C_21  and  C_22
REMARK    6  A    between atoms: C_22  and  C_23
REMARK    7  A    between atoms: C_22  and  C_24
REMARK                            x       y       z     vdW  Elec       q    Type
REMARK                         _______ _______ _______ _____ _____    ______ ____
ROOT
ATOM      1  C   UNL     1       4.481   5.190  17.019  0.00  0.00    +0.000 A 
ATOM      2  O   UNL     1       4.048   6.507  16.949  0.00  0.00    +0.000 OA
ATOM      3  C   UNL     1       3.263   6.986  17.969  0.00  0.00    +0.000 A 
ATOM      4  C   UNL     1       2.761   8.282  17.842  0.00  0.00    +0.000 A 
ATOM      5  C   UNL     1       1.924   8.808  18.832  0.00  0.00    +0.000 A 
ATOM      6  C   UNL     1       1.605   8.041  19.955  0.00  0.00    +0.000 A 
ATOM      7 CL   UNL     1       0.559   8.682  21.159  0.00  0.00    +0.000 Cl
ATOM      8  C   UNL     1       2.122   6.756  20.100  0.00  0.00    +0.000 A 
ATOM      9  C   UNL     1       2.948   6.233  19.098  0.00  0.00    +0.000 A 
ATOM     10  C   UNL     1       3.489   4.873  19.219  0.00  0.00    +0.000 A 
ATOM     11  O   UNL     1       3.285   4.216  20.235  0.00  0.00    +0.000 OA
ATOM     12  C   UNL     1       4.266   4.370  18.063  0.00  0.00    +0.000 A 
ATOM     13 CL   UNL     1       4.842   2.744  18.160  0.00  0.00    +0.000 Cl
ENDROOT
BRANCH   1  18
ATOM     14  C   UNL     1       7.200   3.859  12.091  0.00  0.00    +0.000 C 
ATOM     15  C   UNL     1       6.509   4.120  13.399  0.00  0.00    +0.000 A 
ATOM     16  C   UNL     1       5.163   3.801  13.583  0.00  0.00    +0.000 A 
ATOM     17  C   UNL     1       4.523   4.112  14.785  0.00  0.00    +0.000 A 
ATOM     18  C   UNL     1       5.223   4.748  15.821  0.00  0.00    +0.000 A 
ATOM     19  C   UNL     1       6.594   5.031  15.659  0.00  0.00    +0.000 A 
ATOM     20  C   UNL     1       7.221   4.720  14.447  0.00  0.00    +0.000 A 
BRANCH  19  21
ATOM     21  O   UNL     1       7.225   5.620  16.724  0.00  0.00    +0.000 OA
BRANCH  21  22
ATOM     22  C   UNL     1       7.448   7.030  16.666  0.00  0.00    +0.000 C 
BRANCH  22  23
ATOM     23  C   UNL     1       7.556   7.591  18.092  0.00  0.00    +0.000 C 
ATOM     24  C   UNL     1       8.158   6.559  19.046  0.00  0.00    +0.000 C 
ATOM     25  C   UNL     1       8.386   8.875  18.108  0.00  0.00    +0.000 C 
ENDBRANCH  22  23
ENDBRANCH  21  22
ENDBRANCH  19  21
ENDBRANCH   1  18
TORSDOF 4
ENDMDL
MODEL 6
REMARK VINA RESULT:      -6.6      2.597      6.681
REMARK  Name = 
REMARK  7 active torsions:
REMARK  status: ('A' for Active; 'I' for Inactive)
REMARK    1  A    between atoms: C_1  and  C_2
REMARK    2  A    between atoms: C_5  and  C_6
REMARK    3  A    between atoms: C_19  and  O_20
REMARK    4  A    between atoms: O_20  and  C_21
REMARK    5  A    between atoms: C_21  and  C_22
REMARK    6  A    between atoms: C_22  and  C_23
REMARK    7  A    between atoms: C_22  and  C_24
REMARK                            x       y       z     vdW  Elec       q    Type
REMARK                         _______ _______ _______ _____ _____    ______ ____
ROOT
ATOM      1  C   UNL     1       3.943   5.819  17.653  0.00  0.00    +0.000 A 
ATOM      2  O   UNL     1       3.474   7.107  17.427  0.00  0.00    +0.000 OA
ATOM      3  C   UNL     1       2.652   7.672  18.370  0.00  0.00    +0.000 A 
ATOM      4  C   UNL     1       2.117   8.930  18.088  0.00  0.00    +0.000 A 
ATOM      5  C   UNL     1       1.242   9.536  18.994  0.00  0.00    +0.000 A 
ATOM      6  C   UNL     1       0.916   8.890  20.189  0.00  0.00    +0.000 A 
ATOM      7 CL   UNL     1      -0.176   9.629  21.291  0.00  0.00    +0.000 Cl
ATOM      8  C   UNL     1       1.466   7.646  20.489  0.00  0.00    +0.000 A 
ATOM      9  C   UNL     1       2.331   7.040  19.569  0.00  0.00    +0.000 A 
ATOM     10  C   UNL     1       2.906   5.719  19.854  0.00  0.00    +0.000 A 
ATOM     11  O   UNL     1       2.695   5.173  20.932  0.00  0.00    +0.000 OA
ATOM     12  C   UNL     1       3.725   5.114  18.778  0.00  0.00    +0.000 A 
ATOM     13 CL   UNL     1       4.343   3.528  19.069  0.00  0.00    +0.000 Cl
ENDROOT
BRANCH   1  18
ATOM     14  C   UNL     1       6.679   3.880  12.941  0.00  0.00    +0.000 C 
ATOM     15  C   UNL     1       6.014   4.323  14.213  0.00  0.00    +0.000 A 
ATOM     16  C   UNL     1       4.887   3.665  14.709  0.00  0.00    +0.000 A 
ATOM     17  C   UNL     1       4.247   4.134  15.858  0.00  0.00    +0.000 A 
ATOM     18  C   UNL     1       4.726   5.269  16.529  0.00  0.00    +0.000 A 
ATOM     19  C   UNL     1       5.890   5.910  16.060  0.00  0.00    +0.000 A 
ATOM     20  C   UNL     1       6.518   5.434  14.903  0.00  0.00    +0.000 A 
BRANCH  19  21
ATOM     21  O   UNL     1       6.323   6.991  16.783  0.00  0.00    +0.000 OA
BRANCH  21  22
ATOM     22  C   UNL     1       7.527   6.846  17.539  0.00  0.00    +0.000 C 
BRANCH  22  23
ATOM     23  C   UNL     1       7.405   5.626  18.466  0.00  0.00    +0.000 C 
ATOM     24  C   UNL     1       8.069   4.396  17.847  0.00  0.00    +0.000 C 
ATOM     25  C   UNL     1       8.014   5.923  19.836  0.00  0.00    +0.000 C 
ENDBRANCH  22  23
ENDBRANCH  21  22
ENDBRANCH  19  21
ENDBRANCH   1  18
TORSDOF 4
ENDMDL
MODEL 7
REMARK VINA RESULT:      -6.5      3.061      7.242
REMARK  Name = 
REMARK  7 active torsions:
REMARK  status: ('A' for Active; 'I' for Inactive)
REMARK    1  A    between atoms: C_1  and  C_2
REMARK    2  A    between atoms: C_5  and  C_6
REMARK    3  A    between atoms: C_19  and  O_20
REMARK    4  A    between atoms: O_20  and  C_21
REMARK    5  A    between atoms: C_21  and  C_22
REMARK    6  A    between atoms: C_22  and  C_23
REMARK    7  A    between atoms: C_22  and  C_24
REMARK                            x       y       z     vdW  Elec       q    Type
REMARK                         _______ _______ _______ _____ _____    ______ ____
ROOT
ATOM      1  C   UNL     1       2.528   7.387  18.608  0.00  0.00    +0.000 A 
ATOM      2  O   UNL     1       2.037   8.501  17.939  0.00  0.00    +0.000 OA
ATOM      3  C   UNL     1       1.182   9.337  18.614  0.00  0.00    +0.000 A 
ATOM      4  C   UNL     1       0.626  10.401  17.903  0.00  0.00    +0.000 A 
ATOM      5  C   UNL     1      -0.282  11.262  18.529  0.00  0.00    +0.000 A 
ATOM      6  C   UNL     1      -0.618  11.065  19.870  0.00  0.00    +0.000 A 
ATOM      7 CL   UNL     1      -1.750  12.112  20.631  0.00  0.00    +0.000 Cl
ATOM      8  C   UNL     1      -0.048  10.020  20.593  0.00  0.00    +0.000 A 
ATOM      9  C   UNL     1       0.849   9.155  19.955  0.00  0.00    +0.000 A 
ATOM     10  C   UNL     1       1.448   8.034  20.691  0.00  0.00    +0.000 A 
ATOM     11  O   UNL     1       1.226   7.894  21.890  0.00  0.00    +0.000 OA
ATOM     12  C   UNL     1       2.303   7.114  19.905  0.00  0.00    +0.000 A 
ATOM     13 CL   UNL     1       2.949   5.748  20.741  0.00  0.00    +0.000 Cl
ENDROOT
BRANCH   1  18
ATOM     14  C   UNL     1       6.039   3.854  15.669  0.00  0.00    +0.000 C 
ATOM     15  C   UNL     1       5.093   4.799  16.353  0.00  0.00    +0.000 A 
ATOM     16  C   UNL     1       5.413   6.147  16.525  0.00  0.00    +0.000 A 
ATOM     17  C   UNL     1       4.547   6.993  17.221  0.00  0.00    +0.000 A 
ATOM     18  C   UNL     1       3.348   6.501  17.757  0.00  0.00    +0.000 A 
ATOM     19  C   UNL     1       2.997   5.153  17.549  0.00  0.00    +0.000 A 
ATOM     20  C   UNL     1       3.877   4.313  16.855  0.00  0.00    +0.000 A 
BRANCH  19  21
ATOM     21  O   UNL     1       1.796   4.747  18.070  0.00  0.00    +0.000 OA
BRANCH  21  22
ATOM     22  C   UNL     1       1.385   3.401  17.822  0.00  0.00    +0.000 C 
BRANCH  22  23
ATOM     23  C   UNL     1       1.318   2.634  19.151  0.00  0.00    +0.000 C 
ATOM     24  C   UNL     1       2.704   2.151  19.579  0.00  0.00    +0.000 C 
ATOM     25  C   UNL     1       0.698   3.501  20.247  0.00  0.00    +0.000 C 
ENDBRANCH  22  23
ENDBRANCH  21  22
ENDBRANCH  19  21
ENDBRANCH   1  18
TORSDOF 4
ENDMDL
MODEL 8
REMARK VINA RESULT:      -6.5      2.614      6.727
REMARK  Name = 
REMARK  7 active torsions:
REMARK  status: ('A' for Active; 'I' for Inactive)
REMARK    1  A    between atoms: C_1  and  C_2
REMARK    2  A    between atoms: C_5  and  C_6
REMARK    3  A    between atoms: C_19  and  O_20
REMARK    4  A    between atoms: O_20  and  C_21
REMARK    5  A    between atoms: C_21  and  C_22
REMARK    6  A    between atoms: C_22  and  C_23
REMARK    7  A    between atoms: C_22  and  C_24
REMARK                            x       y       z     vdW  Elec       q    Type
REMARK                         _______ _______ _______ _____ _____    ______ ____
ROOT
ATOM      1  C   UNL     1       3.849   5.529  18.133  0.00  0.00    +0.000 A 
ATOM      2  O   UNL     1       3.396   6.836  18.006  0.00  0.00    +0.000 OA
ATOM      3  C   UNL     1       2.539   7.320  18.963  0.00  0.00    +0.000 A 
ATOM      4  C   UNL     1       2.022   8.603  18.775  0.00  0.00    +0.000 A 
ATOM      5  C   UNL     1       1.112   9.131  19.697  0.00  0.00    +0.000 A 
ATOM      6  C   UNL     1       0.735   8.381  20.814  0.00  0.00    +0.000 A 
ATOM      7 CL   UNL     1      -0.399   9.026  21.934  0.00  0.00    +0.000 Cl
ATOM      8  C   UNL     1       1.266   7.111  21.020  0.00  0.00    +0.000 A 
ATOM      9  C   UNL     1       2.165   6.584  20.085  0.00  0.00    +0.000 A 
ATOM     10  C   UNL     1       2.723   5.238  20.271  0.00  0.00    +0.000 A 
ATOM     11  O   UNL     1       2.465   4.598  21.286  0.00  0.00    +0.000 OA
ATOM     12  C   UNL     1       3.582   4.727  19.178  0.00  0.00    +0.000 A 
ATOM     13 CL   UNL     1       4.181   3.115  19.349  0.00  0.00    +0.000 Cl
ENDROOT
BRANCH   1  18
ATOM     14  C   UNL     1       6.821   4.073  13.390  0.00  0.00    +0.000 C 
ATOM     15  C   UNL     1       6.082   4.376  14.661  0.00  0.00    +0.000 A 
ATOM     16  C   UNL     1       4.830   3.816  14.924  0.00  0.00    +0.000 A 
ATOM     17  C   UNL     1       4.131   4.162  16.082  0.00  0.00    +0.000 A 
ATOM     18  C   UNL     1       4.676   5.077  16.996  0.00  0.00    +0.000 A 
ATOM     19  C   UNL     1       5.958   5.612  16.760  0.00  0.00    +0.000 A 
ATOM     20  C   UNL     1       6.645   5.261  15.592  0.00  0.00    +0.000 A 
BRANCH  19  21
ATOM     21  O   UNL     1       6.443   6.473  17.711  0.00  0.00    +0.000 OA
BRANCH  21  22
ATOM     22  C   UNL     1       6.774   7.800  17.297  0.00  0.00    +0.000 C 
BRANCH  22  23
ATOM     23  C   UNL     1       8.175   8.163  17.814  0.00  0.00    +0.000 C 
ATOM     24  C   UNL     1       8.283   9.659  18.108  0.00  0.00    +0.000 C 
ATOM     25  C   UNL     1       8.519   7.352  19.063  0.00  0.00    +0.000 C 
ENDBRANCH  22  23
ENDBRANCH  21  22
ENDBRANCH  19  21
ENDBRANCH   1  18
TORSDOF 4
ENDMDL
MODEL 9
REMARK VINA RESULT:      -6.4      4.171      7.929
REMARK  Name = 
REMARK  7 active torsions:
REMARK  status: ('A' for Active; 'I' for Inactive)
REMARK    1  A    between atoms: C_1  and  C_2
REMARK    2  A    between atoms: C_5  and  C_6
REMARK    3  A    between atoms: C_19  and  O_20
REMARK    4  A    between atoms: O_20  and  C_21
REMARK    5  A    between atoms: C_21  and  C_22
REMARK    6  A    between atoms: C_22  and  C_23
REMARK    7  A    between atoms: C_22  and  C_24
REMARK                            x       y       z     vdW  Elec       q    Type
REMARK                         _______ _______ _______ _____ _____    ______ ____
ROOT
ATOM      1  C   UNL     1       1.170   9.843  19.472  0.00  0.00    +0.000 A 
ATOM      2  O   UNL     1       1.928   9.427  18.384  0.00  0.00    +0.000 OA
ATOM      3  C   UNL     1       2.493   8.177  18.428  0.00  0.00    +0.000 A 
ATOM      4  C   UNL     1       3.323   7.807  17.369  0.00  0.00    +0.000 A 
ATOM      5  C   UNL     1       3.957   6.560  17.381  0.00  0.00    +0.000 A 
ATOM      6  C   UNL     1       3.746   5.680  18.444  0.00  0.00    +0.000 A 
ATOM      7 CL   UNL     1       4.544   4.157  18.465  0.00  0.00    +0.000 Cl
ATOM      8  C   UNL     1       2.899   6.032  19.492  0.00  0.00    +0.000 A 
ATOM      9  C   UNL     1       2.279   7.287  19.479  0.00  0.00    +0.000 A 
ATOM     10  C   UNL     1       1.398   7.689  20.583  0.00  0.00    +0.000 A 
ATOM     11  O   UNL     1       1.138   6.898  21.484  0.00  0.00    +0.000 OA
ATOM     12  C   UNL     1       0.871   9.072  20.533  0.00  0.00    +0.000 A 
ATOM     13 CL   UNL     1      -0.104   9.583  21.864  0.00  0.00    +0.000 Cl
ENDROOT
BRANCH   1  18
ATOM     14  C   UNL     1      -0.390  15.349  18.641  0.00  0.00    +0.000 C 
ATOM     15  C   UNL     1      -0.013  13.927  18.942  0.00  0.00    +0.000 A 
ATOM     16  C   UNL     1       1.221  13.610  19.514  0.00  0.00    +0.000 A 
ATOM     17  C   UNL     1       1.577  12.277  19.726  0.00  0.00    +0.000 A 
ATOM     18  C   UNL     1       0.703  11.240  19.367  0.00  0.00    +0.000 A 
ATOM     19  C   UNL     1      -0.562  11.553  18.832  0.00  0.00    +0.000 A 
ATOM     20  C   UNL     1      -0.904  12.894  18.619  0.00  0.00    +0.000 A 
BRANCH  19  21
ATOM     21  O   UNL     1      -1.379  10.493  18.537  0.00  0.00    +0.000 OA
BRANCH  21  22
ATOM     22  C   UNL     1      -1.407  10.033  17.184  0.00  0.00    +0.000 C 
BRANCH  22  23
ATOM     23  C   UNL     1      -2.863   9.946  16.703  0.00  0.00    +0.000 C 
ATOM     24  C   UNL     1      -3.824  10.509  17.750  0.00  0.00    +0.000 C 
ATOM     25  C   UNL     1      -3.039  10.682  15.374  0.00  0.00    +0.000 C 
ENDBRANCH  22  23
ENDBRANCH  21  22
ENDBRANCH  19  21
ENDBRANCH   1  18
TORSDOF 4
ENDMDL
