MODEL 1
REMARK VINA RESULT:      -8.5      0.000      0.000
REMARK  Name = 
REMARK  8 active torsions:
REMARK  status: ('A' for Active; 'I' for Inactive)
REMARK    1  A    between atoms: C_1  and  O_2
REMARK    2  A    between atoms: O_2  and  C_3
REMARK    3  A    between atoms: C_6  and  N_7
REMARK    4  A    between atoms: N_7  and  C_8
REMARK    5  A    between atoms: N_7  and  C_9
REMARK    6  A    between atoms: C_9  and  C_10
REMARK    7  A    between atoms: C_14  and  C_15
REMARK    8  A    between atoms: C_23  and  C_24
REMARK                            x       y       z     vdW  Elec       q    Type
REMARK                         _______ _______ _______ _____ _____    ______ ____
ROOT
ATOM      1  C   UNL     1       4.105   5.947  17.814  0.00  0.00    +0.000 A 
ATOM      2  N   UNL     1       4.528   4.916  18.580  0.00  0.00    +0.000 NA
ATOM      3  C   UNL     1       3.565   4.021  18.881  0.00  0.00    +0.000 A 
ATOM      4  C   UNL     1       3.518   3.370  20.097  0.00  0.00    +0.000 A 
ATOM      5  C   UNL     1       2.408   2.566  20.394  0.00  0.00    +0.000 A 
ATOM      6  C   UNL     1       1.650   2.074  19.333  0.00  0.00    +0.000 A 
ATOM      7  C   UNL     1       1.664   2.790  18.146  0.00  0.00    +0.000 A 
ATOM      8  C   UNL     1       2.401   3.969  18.115  0.00  0.00    +0.000 A 
ATOM      9  N   UNL     1       1.915   5.135  17.617  0.00  0.00    +0.000 NA
ATOM     10  C   UNL     1       2.752   6.198  17.749  0.00  0.00    +0.000 A 
ENDROOT
BRANCH  10  11
ATOM     11  C   UNL     1       2.248   7.426  18.463  0.00  0.00    +0.000 A 
ATOM     12  C   UNL     1       1.990   8.629  17.739  0.00  0.00    +0.000 A 
ATOM     13  C   UNL     1       1.393   9.750  18.312  0.00  0.00    +0.000 A 
ATOM     14  C   UNL     1       1.090   9.731  19.657  0.00  0.00    +0.000 A 
ATOM     15  C   UNL     1       1.455   8.627  20.430  0.00  0.00    +0.000 A 
ATOM     16  C   UNL     1       2.040   7.489  19.844  0.00  0.00    +0.000 A 
ENDBRANCH  10  11
BRANCH   5  17
ATOM     17  C   UNL     1       1.866   2.504  21.795  0.00  0.00    +0.000 C 
ATOM     18  F   UNL     1       0.505   2.545  21.854  0.00  0.00    +0.000 F 
ATOM     19  F   UNL     1       2.211   1.336  22.417  0.00  0.00    +0.000 F 
ATOM     20  F   UNL     1       2.318   3.506  22.611  0.00  0.00    +0.000 F 
ENDBRANCH   5  17
BRANCH   1  21
ATOM     21  C   UNL     1       5.057   6.876  17.096  0.00  0.00    +0.000 C 
BRANCH  21  22
ATOM     22  N   UNL     1       6.334   6.223  16.738  0.00  0.00    +0.000 N 
ATOM     23  C   UNL     1       7.541   6.912  17.214  0.00  0.00    +0.000 C 
BRANCH  22  27
ATOM     24  C   UNL     1       6.478   3.946  13.160  0.00  0.00    +0.000 A 
ATOM     25  C   UNL     1       5.446   3.761  14.072  0.00  0.00    +0.000 A 
ATOM     26  C   UNL     1       5.405   4.496  15.261  0.00  0.00    +0.000 A 
ATOM     27  C   UNL     1       6.406   5.432  15.593  0.00  0.00    +0.000 A 
ATOM     28  C   UNL     1       7.455   5.551  14.676  0.00  0.00    +0.000 A 
ATOM     29  C   UNL     1       7.507   4.820  13.477  0.00  0.00    +0.000 A 
BRANCH  24  31
ATOM     30  C   UNL     1       5.065   2.857  11.618  0.00  0.00    +0.000 C 
ATOM     31  O   UNL     1       6.388   3.206  12.011  0.00  0.00    +0.000 OA
ENDBRANCH  24  31
ENDBRANCH  22  27
ENDBRANCH  21  22
ENDBRANCH   1  21
TORSDOF 6
ENDMDL
MODEL 2
REMARK VINA RESULT:      -8.5      0.197      1.100
REMARK  Name = 
REMARK  8 active torsions:
REMARK  status: ('A' for Active; 'I' for Inactive)
REMARK    1  A    between atoms: C_1  and  O_2
REMARK    2  A    between atoms: O_2  and  C_3
REMARK    3  A    between atoms: C_6  and  N_7
REMARK    4  A    between atoms: N_7  and  C_8
REMARK    5  A    between atoms: N_7  and  C_9
REMARK    6  A    between atoms: C_9  and  C_10
REMARK    7  A    between atoms: C_14  and  C_15
REMARK    8  A    between atoms: C_23  and  C_24
REMARK                            x       y       z     vdW  Elec       q    Type
REMARK                         _______ _______ _______ _____ _____    ______ ____
ROOT
ATOM      1  C   UNL     1       4.126   5.873  17.805  0.00  0.00    +0.000 A 
ATOM      2  N   UNL     1       4.540   4.839  18.569  0.00  0.00    +0.000 NA
ATOM      3  C   UNL     1       3.571   3.950  18.868  0.00  0.00    +0.000 A 
ATOM      4  C   UNL     1       3.518   3.297  20.083  0.00  0.00    +0.000 A 
ATOM      5  C   UNL     1       2.401   2.501  20.378  0.00  0.00    +0.000 A 
ATOM      6  C   UNL     1       1.641   2.016  19.315  0.00  0.00    +0.000 A 
ATOM      7  C   UNL     1       1.662   2.734  18.129  0.00  0.00    +0.000 A 
ATOM      8  C   UNL     1       2.408   3.907  18.100  0.00  0.00    +0.000 A 
ATOM      9  N   UNL     1       1.930   5.078  17.604  0.00  0.00    +0.000 NA
ATOM     10  C   UNL     1       2.774   6.134  17.738  0.00  0.00    +0.000 A 
ENDROOT
BRANCH  10  11
ATOM     11  C   UNL     1       2.279   7.365  18.454  0.00  0.00    +0.000 A 
ATOM     12  C   UNL     1       2.042   8.574  17.733  0.00  0.00    +0.000 A 
ATOM     13  C   UNL     1       1.453   9.700  18.306  0.00  0.00    +0.000 A 
ATOM     14  C   UNL     1       1.137   9.678  19.649  0.00  0.00    +0.000 A 
ATOM     15  C   UNL     1       1.482   8.567  20.420  0.00  0.00    +0.000 A 
ATOM     16  C   UNL     1       2.059   7.424  19.833  0.00  0.00    +0.000 A 
ENDBRANCH  10  11
BRANCH   5  17
ATOM     17  C   UNL     1       1.857   2.441  21.778  0.00  0.00    +0.000 C 
ATOM     18  F   UNL     1       2.129   1.268  22.417  0.00  0.00    +0.000 F 
ATOM     19  F   UNL     1       2.405   3.410  22.573  0.00  0.00    +0.000 F 
ATOM     20  F   UNL     1       0.503   2.619  21.856  0.00  0.00    +0.000 F 
ENDBRANCH   5  17
BRANCH   1  21
ATOM     21  C   UNL     1       5.085   6.797  17.089  0.00  0.00    +0.000 C 
BRANCH  21  22
ATOM     22  N   UNL     1       6.329   6.117  16.668  0.00  0.00    +0.000 N 
ATOM     23  C   UNL     1       7.568   6.696  17.202  0.00  0.00    +0.000 C 
BRANCH  22  27
ATOM     24  C   UNL     1       6.496   3.892  13.058  0.00  0.00    +0.000 A 
ATOM     25  C   UNL     1       7.518   4.772  13.392  0.00  0.00    +0.000 A 
ATOM     26  C   UNL     1       7.459   5.521  14.571  0.00  0.00    +0.000 A 
ATOM     27  C   UNL     1       6.363   5.433  15.454  0.00  0.00    +0.000 A 
ATOM     28  C   UNL     1       5.330   4.577  15.058  0.00  0.00    +0.000 A 
ATOM     29  C   UNL     1       5.379   3.817  13.877  0.00  0.00    +0.000 A 
BRANCH  24  31
ATOM     30  C   UNL     1       5.667   2.229  11.608  0.00  0.00    +0.000 C 
ATOM     31  O   UNL     1       6.686   3.178  11.905  0.00  0.00    +0.000 OA
ENDBRANCH  24  31
ENDBRANCH  22  27
ENDBRANCH  21  22
ENDBRANCH   1  21
TORSDOF 6
ENDMDL
MODEL 3
REMARK VINA RESULT:      -8.1      0.191      1.118
REMARK  Name = 
REMARK  8 active torsions:
REMARK  status: ('A' for Active; 'I' for Inactive)
REMARK    1  A    between atoms: C_1  and  O_2
REMARK    2  A    between atoms: O_2  and  C_3
REMARK    3  A    between atoms: C_6  and  N_7
REMARK    4  A    between atoms: N_7  and  C_8
REMARK    5  A    between atoms: N_7  and  C_9
REMARK    6  A    between atoms: C_9  and  C_10
REMARK    7  A    between atoms: C_14  and  C_15
REMARK    8  A    between atoms: C_23  and  C_24
REMARK                            x       y       z     vdW  Elec       q    Type
REMARK                         _______ _______ _______ _____ _____    ______ ____
ROOT
ATOM      1  C   UNL     1       4.109   5.940  17.840  0.00  0.00    +0.000 A 
ATOM      2  N   UNL     1       4.533   4.930  18.632  0.00  0.00    +0.000 NA
ATOM      3  C   UNL     1       3.584   4.012  18.910  0.00  0.00    +0.000 A 
ATOM      4  C   UNL     1       3.513   3.373  20.132  0.00  0.00    +0.000 A 
ATOM      5  C   UNL     1       2.415   2.542  20.400  0.00  0.00    +0.000 A 
ATOM      6  C   UNL     1       1.708   2.018  19.319  0.00  0.00    +0.000 A 
ATOM      7  C   UNL     1       1.744   2.721  18.124  0.00  0.00    +0.000 A 
ATOM      8  C   UNL     1       2.450   3.919  18.105  0.00  0.00    +0.000 A 
ATOM      9  N   UNL     1       1.950   5.067  17.577  0.00  0.00    +0.000 NA
ATOM     10  C   UNL     1       2.752   6.153  17.725  0.00  0.00    +0.000 A 
ENDROOT
BRANCH  10  11
ATOM     11  C   UNL     1       2.191   7.375  18.407  0.00  0.00    +0.000 A 
ATOM     12  C   UNL     1       1.928   7.362  19.810  0.00  0.00    +0.000 A 
ATOM     13  C   UNL     1       1.544   8.497  20.523  0.00  0.00    +0.000 A 
ATOM     14  C   UNL     1       1.346   9.679  19.841  0.00  0.00    +0.000 A 
ATOM     15  C   UNL     1       1.456   9.699  18.450  0.00  0.00    +0.000 A 
ATOM     16  C   UNL     1       1.863   8.555  17.735  0.00  0.00    +0.000 A 
ENDBRANCH  10  11
BRANCH   5  17
ATOM     17  C   UNL     1       1.827   2.480  21.782  0.00  0.00    +0.000 C 
ATOM     18  F   UNL     1       2.274   3.468  22.607  0.00  0.00    +0.000 F 
ATOM     19  F   UNL     1       0.467   2.630  21.757  0.00  0.00    +0.000 F 
ATOM     20  F   UNL     1       2.058   1.298  22.432  0.00  0.00    +0.000 F 
ENDBRANCH   5  17
BRANCH   1  21
ATOM     21  C   UNL     1       5.059   6.887  17.145  0.00  0.00    +0.000 C 
BRANCH  21  22
ATOM     22  N   UNL     1       6.340   6.247  16.777  0.00  0.00    +0.000 N 
ATOM     23  C   UNL     1       7.542   6.907  17.303  0.00  0.00    +0.000 C 
BRANCH  22  27
ATOM     24  C   UNL     1       6.552   4.147  13.095  0.00  0.00    +0.000 A 
ATOM     25  C   UNL     1       5.439   4.018  13.916  0.00  0.00    +0.000 A 
ATOM     26  C   UNL     1       5.373   4.693  15.139  0.00  0.00    +0.000 A 
ATOM     27  C   UNL     1       6.428   5.510  15.597  0.00  0.00    +0.000 A 
ATOM     28  C   UNL     1       7.552   5.572  14.767  0.00  0.00    +0.000 A 
ATOM     29  C   UNL     1       7.630   4.901  13.535  0.00  0.00    +0.000 A 
BRANCH  24  31
ATOM     30  C   UNL     1       5.535   2.417  11.856  0.00  0.00    +0.000 C 
ATOM     31  O   UNL     1       6.484   3.478  11.902  0.00  0.00    +0.000 OA
ENDBRANCH  24  31
ENDBRANCH  22  27
ENDBRANCH  21  22
ENDBRANCH   1  21
TORSDOF 6
ENDMDL
MODEL 4
REMARK VINA RESULT:      -7.8      4.157      6.412
REMARK  Name = 
REMARK  8 active torsions:
REMARK  status: ('A' for Active; 'I' for Inactive)
REMARK    1  A    between atoms: C_1  and  O_2
REMARK    2  A    between atoms: O_2  and  C_3
REMARK    3  A    between atoms: C_6  and  N_7
REMARK    4  A    between atoms: N_7  and  C_8
REMARK    5  A    between atoms: N_7  and  C_9
REMARK    6  A    between atoms: C_9  and  C_10
REMARK    7  A    between atoms: C_14  and  C_15
REMARK    8  A    between atoms: C_23  and  C_24
REMARK                            x       y       z     vdW  Elec       q    Type
REMARK                         _______ _______ _______ _____ _____    ______ ____
ROOT
ATOM      1  C   UNL     1       3.203   5.042  17.940  0.00  0.00    +0.000 A 
ATOM      2  N   UNL     1       4.256   5.183  17.105  0.00  0.00    +0.000 NA
ATOM      3  C   UNL     1       5.406   5.526  17.720  0.00  0.00    +0.000 A 
ATOM      4  C   UNL     1       6.333   6.367  17.136  0.00  0.00    +0.000 A 
ATOM      5  C   UNL     1       7.432   6.796  17.893  0.00  0.00    +0.000 A 
ATOM      6  C   UNL     1       7.813   6.028  18.993  0.00  0.00    +0.000 A 
ATOM      7  C   UNL     1       6.842   5.247  19.599  0.00  0.00    +0.000 A 
ATOM      8  C   UNL     1       5.549   5.319  19.091  0.00  0.00    +0.000 A 
ATOM      9  N   UNL     1       4.451   5.477  19.875  0.00  0.00    +0.000 NA
ATOM     10  C   UNL     1       3.284   5.610  19.193  0.00  0.00    +0.000 A 
ENDROOT
BRANCH  10  11
ATOM     11  C   UNL     1       2.436   6.830  19.446  0.00  0.00    +0.000 A 
ATOM     12  C   UNL     1       1.709   6.964  20.667  0.00  0.00    +0.000 A 
ATOM     13  C   UNL     1       1.023   8.124  21.022  0.00  0.00    +0.000 A 
ATOM     14  C   UNL     1       0.987   9.178  20.132  0.00  0.00    +0.000 A 
ATOM     15  C   UNL     1       1.567   9.034  18.871  0.00  0.00    +0.000 A 
ATOM     16  C   UNL     1       2.275   7.867  18.523  0.00  0.00    +0.000 A 
ENDBRANCH  10  11
BRANCH   5  17
ATOM     17  C   UNL     1       7.975   8.188  17.727  0.00  0.00    +0.000 C 
ATOM     18  F   UNL     1       7.005   9.141  17.631  0.00  0.00    +0.000 F 
ATOM     19  F   UNL     1       8.734   8.564  18.801  0.00  0.00    +0.000 F 
ATOM     20  F   UNL     1       8.780   8.344  16.631  0.00  0.00    +0.000 F 
ENDBRANCH   5  17
BRANCH   1  21
ATOM     21  C   UNL     1       1.919   4.358  17.528  0.00  0.00    +0.000 C 
BRANCH  21  22
ATOM     22  N   UNL     1       1.614   3.168  18.351  0.00  0.00    +0.000 N 
ATOM     23  C   UNL     1       0.198   3.000  18.701  0.00  0.00    +0.000 C 
BRANCH  22  27
ATOM     24  C   UNL     1       4.664   1.732  20.928  0.00  0.00    +0.000 A 
ATOM     25  C   UNL     1       4.797   1.622  19.550  0.00  0.00    +0.000 A 
ATOM     26  C   UNL     1       3.786   2.077  18.697  0.00  0.00    +0.000 A 
ATOM     27  C   UNL     1       2.593   2.643  19.192  0.00  0.00    +0.000 A 
ATOM     28  C   UNL     1       2.474   2.688  20.585  0.00  0.00    +0.000 A 
ATOM     29  C   UNL     1       3.483   2.236  21.452  0.00  0.00    +0.000 A 
BRANCH  24  31
ATOM     30  C   UNL     1       5.831  -0.116  21.813  0.00  0.00    +0.000 C 
ATOM     31  O   UNL     1       5.737   1.297  21.660  0.00  0.00    +0.000 OA
ENDBRANCH  24  31
ENDBRANCH  22  27
ENDBRANCH  21  22
ENDBRANCH   1  21
TORSDOF 6
ENDMDL
MODEL 5
REMARK VINA RESULT:      -7.8      3.143      5.405
REMARK  Name = 
REMARK  8 active torsions:
REMARK  status: ('A' for Active; 'I' for Inactive)
REMARK    1  A    between atoms: C_1  and  O_2
REMARK    2  A    between atoms: O_2  and  C_3
REMARK    3  A    between atoms: C_6  and  N_7
REMARK    4  A    between atoms: N_7  and  C_8
REMARK    5  A    between atoms: N_7  and  C_9
REMARK    6  A    between atoms: C_9  and  C_10
REMARK    7  A    between atoms: C_14  and  C_15
REMARK    8  A    between atoms: C_23  and  C_24
REMARK                            x       y       z     vdW  Elec       q    Type
REMARK                         _______ _______ _______ _____ _____    ______ ____
ROOT
ATOM      1  C   UNL     1       3.410   6.752  19.231  0.00  0.00    +0.000 A 
ATOM      2  N   UNL     1       3.164   7.813  18.431  0.00  0.00    +0.000 NA
ATOM      3  C   UNL     1       2.092   8.544  18.799  0.00  0.00    +0.000 A 
ATOM      4  C   UNL     1       1.259   9.147  17.878  0.00  0.00    +0.000 A 
ATOM      5  C   UNL     1       0.084   9.766  18.328  0.00  0.00    +0.000 A 
ATOM      6  C   UNL     1       0.023  10.168  19.662  0.00  0.00    +0.000 A 
ATOM      7  C   UNL     1       0.821   9.495  20.574  0.00  0.00    +0.000 A 
ATOM      8  C   UNL     1       1.595   8.442  20.097  0.00  0.00    +0.000 A 
ATOM      9  N   UNL     1       1.654   7.230  20.707  0.00  0.00    +0.000 NA
ATOM     10  C   UNL     1       2.396   6.302  20.049  0.00  0.00    +0.000 A 
ENDROOT
BRANCH  10  11
ATOM     11  C   UNL     1       1.748   4.993  19.677  0.00  0.00    +0.000 A 
ATOM     12  C   UNL     1       1.497   4.673  18.309  0.00  0.00    +0.000 A 
ATOM     13  C   UNL     1       1.033   3.427  17.891  0.00  0.00    +0.000 A 
ATOM     14  C   UNL     1       0.739   2.471  18.841  0.00  0.00    +0.000 A 
ATOM     15  C   UNL     1       0.837   2.792  20.195  0.00  0.00    +0.000 A 
ATOM     16  C   UNL     1       1.325   4.045  20.613  0.00  0.00    +0.000 A 
ENDBRANCH  10  11
BRANCH   5  17
ATOM     17  C   UNL     1      -1.171   9.707  17.504  0.00  0.00    +0.000 C 
ATOM     18  F   UNL     1      -1.513  10.904  16.948  0.00  0.00    +0.000 F 
ATOM     19  F   UNL     1      -1.039   8.852  16.445  0.00  0.00    +0.000 F 
ATOM     20  F   UNL     1      -2.270   9.274  18.195  0.00  0.00    +0.000 F 
ENDBRANCH   5  17
BRANCH   1  21
ATOM     21  C   UNL     1       4.720   5.997  19.207  0.00  0.00    +0.000 C 
BRANCH  21  22
ATOM     22  N   UNL     1       4.663   4.778  18.371  0.00  0.00    +0.000 N 
ATOM     23  C   UNL     1       4.612   3.513  19.115  0.00  0.00    +0.000 C 
BRANCH  22  27
ATOM     24  C   UNL     1       6.387   4.661  14.495  0.00  0.00    +0.000 A 
ATOM     25  C   UNL     1       7.094   5.194  15.564  0.00  0.00    +0.000 A 
ATOM     26  C   UNL     1       6.524   5.252  16.840  0.00  0.00    +0.000 A 
ATOM     27  C   UNL     1       5.213   4.795  17.091  0.00  0.00    +0.000 A 
ATOM     28  C   UNL     1       4.514   4.315  15.978  0.00  0.00    +0.000 A 
ATOM     29  C   UNL     1       5.077   4.250  14.693  0.00  0.00    +0.000 A 
BRANCH  24  31
ATOM     30  C   UNL     1       6.584   3.648  12.375  0.00  0.00    +0.000 C 
ATOM     31  O   UNL     1       7.064   4.613  13.305  0.00  0.00    +0.000 OA
ENDBRANCH  24  31
ENDBRANCH  22  27
ENDBRANCH  21  22
ENDBRANCH   1  21
TORSDOF 6
ENDMDL
MODEL 6
REMARK VINA RESULT:      -7.7      0.728      1.433
REMARK  Name = 
REMARK  8 active torsions:
REMARK  status: ('A' for Active; 'I' for Inactive)
REMARK    1  A    between atoms: C_1  and  O_2
REMARK    2  A    between atoms: O_2  and  C_3
REMARK    3  A    between atoms: C_6  and  N_7
REMARK    4  A    between atoms: N_7  and  C_8
REMARK    5  A    between atoms: N_7  and  C_9
REMARK    6  A    between atoms: C_9  and  C_10
REMARK    7  A    between atoms: C_14  and  C_15
REMARK    8  A    between atoms: C_23  and  C_24
REMARK                            x       y       z     vdW  Elec       q    Type
REMARK                         _______ _______ _______ _____ _____    ______ ____
ROOT
ATOM      1  C   UNL     1       4.196   6.415  18.261  0.00  0.00    +0.000 A 
ATOM      2  N   UNL     1       4.604   5.374  19.021  0.00  0.00    +0.000 NA
ATOM      3  C   UNL     1       3.699   4.379  19.125  0.00  0.00    +0.000 A 
ATOM      4  C   UNL     1       3.543   3.643  20.282  0.00  0.00    +0.000 A 
ATOM      5  C   UNL     1       2.485   2.726  20.366  0.00  0.00    +0.000 A 
ATOM      6  C   UNL     1       1.937   2.245  19.178  0.00  0.00    +0.000 A 
ATOM      7  C   UNL     1       2.050   3.041  18.048  0.00  0.00    +0.000 A 
ATOM      8  C   UNL     1       2.667   4.279  18.193  0.00  0.00    +0.000 A 
ATOM      9  N   UNL     1       2.146   5.430  17.696  0.00  0.00    +0.000 NA
ATOM     10  C   UNL     1       2.848   6.550  18.010  0.00  0.00    +0.000 A 
ENDROOT
BRANCH  10  11
ATOM     11  C   UNL     1       2.132   7.677  18.710  0.00  0.00    +0.000 A 
ATOM     12  C   UNL     1       1.833   7.588  20.103  0.00  0.00    +0.000 A 
ATOM     13  C   UNL     1       1.302   8.647  20.837  0.00  0.00    +0.000 A 
ATOM     14  C   UNL     1       0.988   9.821  20.184  0.00  0.00    +0.000 A 
ATOM     15  C   UNL     1       1.134   9.899  18.798  0.00  0.00    +0.000 A 
ATOM     16  C   UNL     1       1.689   8.834  18.063  0.00  0.00    +0.000 A 
ENDBRANCH  10  11
BRANCH   5  17
ATOM     17  C   UNL     1       1.758   2.519  21.665  0.00  0.00    +0.000 C 
ATOM     18  F   UNL     1       1.988   1.300  22.229  0.00  0.00    +0.000 F 
ATOM     19  F   UNL     1       2.151   3.425  22.612  0.00  0.00    +0.000 F 
ATOM     20  F   UNL     1       0.399   2.649  21.568  0.00  0.00    +0.000 F 
ENDBRANCH   5  17
BRANCH   1  21
ATOM     21  C   UNL     1       5.146   7.471  17.745  0.00  0.00    +0.000 C 
BRANCH  21  22
ATOM     22  N   UNL     1       6.406   6.903  17.220  0.00  0.00    +0.000 N 
ATOM     23  C   UNL     1       7.598   7.737  17.421  0.00  0.00    +0.000 C 
BRANCH  22  27
ATOM     24  C   UNL     1       6.160   4.111  14.034  0.00  0.00    +0.000 A 
ATOM     25  C   UNL     1       7.158   3.999  14.993  0.00  0.00    +0.000 A 
ATOM     26  C   UNL     1       7.255   4.927  16.034  0.00  0.00    +0.000 A 
ATOM     27  C   UNL     1       6.366   6.017  16.145  0.00  0.00    +0.000 A 
ATOM     28  C   UNL     1       5.408   6.126  15.131  0.00  0.00    +0.000 A 
ATOM     29  C   UNL     1       5.300   5.198  14.081  0.00  0.00    +0.000 A 
BRANCH  24  31
ATOM     30  C   UNL     1       5.183   3.300  12.046  0.00  0.00    +0.000 C 
ATOM     31  O   UNL     1       6.134   3.118  13.090  0.00  0.00    +0.000 OA
ENDBRANCH  24  31
ENDBRANCH  22  27
ENDBRANCH  21  22
ENDBRANCH   1  21
TORSDOF 6
ENDMDL
MODEL 7
REMARK VINA RESULT:      -7.6      3.620      6.497
REMARK  Name = 
REMARK  8 active torsions:
REMARK  status: ('A' for Active; 'I' for Inactive)
REMARK    1  A    between atoms: C_1  and  O_2
REMARK    2  A    between atoms: O_2  and  C_3
REMARK    3  A    between atoms: C_6  and  N_7
REMARK    4  A    between atoms: N_7  and  C_8
REMARK    5  A    between atoms: N_7  and  C_9
REMARK    6  A    between atoms: C_9  and  C_10
REMARK    7  A    between atoms: C_14  and  C_15
REMARK    8  A    between atoms: C_23  and  C_24
REMARK                            x       y       z     vdW  Elec       q    Type
REMARK                         _______ _______ _______ _____ _____    ______ ____
ROOT
ATOM      1  C   UNL     1       6.054   6.462  17.352  0.00  0.00    +0.000 A 
ATOM      2  N   UNL     1       4.869   6.616  17.983  0.00  0.00    +0.000 NA
ATOM      3  C   UNL     1       4.377   5.480  18.518  0.00  0.00    +0.000 A 
ATOM      4  C   UNL     1       3.024   5.207  18.552  0.00  0.00    +0.000 A 
ATOM      5  C   UNL     1       2.598   3.944  18.988  0.00  0.00    +0.000 A 
ATOM      6  C   UNL     1       3.460   3.201  19.794  0.00  0.00    +0.000 A 
ATOM      7  C   UNL     1       4.819   3.452  19.686  0.00  0.00    +0.000 A 
ATOM      8  C   UNL     1       5.225   4.398  18.750  0.00  0.00    +0.000 A 
ATOM      9  N   UNL     1       6.238   4.185  17.871  0.00  0.00    +0.000 NA
ATOM     10  C   UNL     1       6.434   5.191  16.980  0.00  0.00    +0.000 A 
ENDROOT
BRANCH  10  11
ATOM     11  C   UNL     1       6.394   4.868  15.508  0.00  0.00    +0.000 A 
ATOM     12  C   UNL     1       7.478   5.238  14.657  0.00  0.00    +0.000 A 
ATOM     13  C   UNL     1       7.567   4.847  13.322  0.00  0.00    +0.000 A 
ATOM     14  C   UNL     1       6.534   4.119  12.770  0.00  0.00    +0.000 A 
ATOM     15  C   UNL     1       5.392   3.857  13.529  0.00  0.00    +0.000 A 
ATOM     16  C   UNL     1       5.315   4.238  14.883  0.00  0.00    +0.000 A 
ENDBRANCH  10  11
BRANCH   5  17
ATOM     17  C   UNL     1       1.408   3.281  18.353  0.00  0.00    +0.000 C 
ATOM     18  F   UNL     1       0.803   4.047  17.402  0.00  0.00    +0.000 F 
ATOM     19  F   UNL     1       1.759   2.128  17.706  0.00  0.00    +0.000 F 
ATOM     20  F   UNL     1       0.430   2.924  19.242  0.00  0.00    +0.000 F 
ENDBRANCH   5  17
BRANCH   1  21
ATOM     21  C   UNL     1       6.934   7.630  16.970  0.00  0.00    +0.000 C 
BRANCH  21  22
ATOM     22  N   UNL     1       8.018   7.876  17.946  0.00  0.00    +0.000 N 
ATOM     23  C   UNL     1       8.197   6.825  18.955  0.00  0.00    +0.000 C 
BRANCH  22  27
ATOM     24  C   UNL     1       9.279  11.845  18.759  0.00  0.00    +0.000 A 
ATOM     25  C   UNL     1       9.632  10.806  19.610  0.00  0.00    +0.000 A 
ATOM     26  C   UNL     1       9.203   9.499  19.357  0.00  0.00    +0.000 A 
ATOM     27  C   UNL     1       8.387   9.185  18.250  0.00  0.00    +0.000 A 
ATOM     28  C   UNL     1       8.009  10.266  17.446  0.00  0.00    +0.000 A 
ATOM     29  C   UNL     1       8.436  11.583  17.689  0.00  0.00    +0.000 A 
BRANCH  24  31
ATOM     30  C   UNL     1       8.978  14.184  18.729  0.00  0.00    +0.000 C 
ATOM     31  O   UNL     1       9.796  13.072  19.081  0.00  0.00    +0.000 OA
ENDBRANCH  24  31
ENDBRANCH  22  27
ENDBRANCH  21  22
ENDBRANCH   1  21
TORSDOF 6
ENDMDL
MODEL 8
REMARK VINA RESULT:      -7.6      0.727      1.158
REMARK  Name = 
REMARK  8 active torsions:
REMARK  status: ('A' for Active; 'I' for Inactive)
REMARK    1  A    between atoms: C_1  and  O_2
REMARK    2  A    between atoms: O_2  and  C_3
REMARK    3  A    between atoms: C_6  and  N_7
REMARK    4  A    between atoms: N_7  and  C_8
REMARK    5  A    between atoms: N_7  and  C_9
REMARK    6  A    between atoms: C_9  and  C_10
REMARK    7  A    between atoms: C_14  and  C_15
REMARK    8  A    between atoms: C_23  and  C_24
REMARK                            x       y       z     vdW  Elec       q    Type
REMARK                         _______ _______ _______ _____ _____    ______ ____
ROOT
ATOM      1  C   UNL     1       4.083   6.433  18.218  0.00  0.00    +0.000 A 
ATOM      2  N   UNL     1       4.513   5.381  18.951  0.00  0.00    +0.000 NA
ATOM      3  C   UNL     1       3.603   4.396  19.090  0.00  0.00    +0.000 A 
ATOM      4  C   UNL     1       3.493   3.652  20.248  0.00  0.00    +0.000 A 
ATOM      5  C   UNL     1       2.429   2.747  20.374  0.00  0.00    +0.000 A 
ATOM      6  C   UNL     1       1.820   2.282  19.210  0.00  0.00    +0.000 A 
ATOM      7  C   UNL     1       1.889   3.086  18.082  0.00  0.00    +0.000 A 
ATOM      8  C   UNL     1       2.527   4.315  18.207  0.00  0.00    +0.000 A 
ATOM      9  N   UNL     1       1.997   5.477  17.744  0.00  0.00    +0.000 NA
ATOM     10  C   UNL     1       2.726   6.586  18.033  0.00  0.00    +0.000 A 
ENDROOT
BRANCH  10  11
ATOM     11  C   UNL     1       2.057   7.715  18.774  0.00  0.00    +0.000 A 
ATOM     12  C   UNL     1       1.776   7.597  20.169  0.00  0.00    +0.000 A 
ATOM     13  C   UNL     1       1.291   8.652  20.939  0.00  0.00    +0.000 A 
ATOM     14  C   UNL     1       1.005   9.853  20.324  0.00  0.00    +0.000 A 
ATOM     15  C   UNL     1       1.132   9.965  18.938  0.00  0.00    +0.000 A 
ATOM     16  C   UNL     1       1.642   8.903  18.166  0.00  0.00    +0.000 A 
ENDBRANCH  10  11
BRANCH   5  17
ATOM     17  C   UNL     1       1.762   2.538  21.705  0.00  0.00    +0.000 C 
ATOM     18  F   UNL     1       0.401   2.591  21.645  0.00  0.00    +0.000 F 
ATOM     19  F   UNL     1       2.043   1.303  22.221  0.00  0.00    +0.000 F 
ATOM     20  F   UNL     1       2.142   3.437  22.664  0.00  0.00    +0.000 F 
ENDBRANCH   5  17
BRANCH   1  21
ATOM     21  C   UNL     1       5.020   7.483  17.667  0.00  0.00    +0.000 C 
BRANCH  21  22
ATOM     22  N   UNL     1       6.290   6.913  17.167  0.00  0.00    +0.000 N 
ATOM     23  C   UNL     1       7.458   7.795  17.283  0.00  0.00    +0.000 C 
BRANCH  22  27
ATOM     24  C   UNL     1       6.329   4.059  14.026  0.00  0.00    +0.000 A 
ATOM     25  C   UNL     1       5.350   5.043  14.071  0.00  0.00    +0.000 A 
ATOM     26  C   UNL     1       5.322   5.975  15.113  0.00  0.00    +0.000 A 
ATOM     27  C   UNL     1       6.262   5.945  16.165  0.00  0.00    +0.000 A 
ATOM     28  C   UNL     1       7.199   4.907  16.113  0.00  0.00    +0.000 A 
ATOM     29  C   UNL     1       7.239   3.966  15.069  0.00  0.00    +0.000 A 
BRANCH  24  31
ATOM     30  C   UNL     1       5.136   3.385  12.107  0.00  0.00    +0.000 C 
ATOM     31  O   UNL     1       6.285   3.233  12.934  0.00  0.00    +0.000 OA
ENDBRANCH  24  31
ENDBRANCH  22  27
ENDBRANCH  21  22
ENDBRANCH   1  21
TORSDOF 6
ENDMDL
MODEL 9
REMARK VINA RESULT:      -7.6      4.206      6.429
REMARK  Name = 
REMARK  8 active torsions:
REMARK  status: ('A' for Active; 'I' for Inactive)
REMARK    1  A    between atoms: C_1  and  O_2
REMARK    2  A    between atoms: O_2  and  C_3
REMARK    3  A    between atoms: C_6  and  N_7
REMARK    4  A    between atoms: N_7  and  C_8
REMARK    5  A    between atoms: N_7  and  C_9
REMARK    6  A    between atoms: C_9  and  C_10
REMARK    7  A    between atoms: C_14  and  C_15
REMARK    8  A    between atoms: C_23  and  C_24
REMARK                            x       y       z     vdW  Elec       q    Type
REMARK                         _______ _______ _______ _____ _____    ______ ____
ROOT
ATOM      1  C   UNL     1       3.198   5.066  18.003  0.00  0.00    +0.000 A 
ATOM      2  N   UNL     1       4.242   5.195  17.154  0.00  0.00    +0.000 NA
ATOM      3  C   UNL     1       5.397   5.553  17.750  0.00  0.00    +0.000 A 
ATOM      4  C   UNL     1       6.314   6.386  17.140  0.00  0.00    +0.000 A 
ATOM      5  C   UNL     1       7.420   6.833  17.878  0.00  0.00    +0.000 A 
ATOM      6  C   UNL     1       7.815   6.087  18.987  0.00  0.00    +0.000 A 
ATOM      7  C   UNL     1       6.853   5.314  19.619  0.00  0.00    +0.000 A 
ATOM      8  C   UNL     1       5.555   5.372  19.123  0.00  0.00    +0.000 A 
ATOM      9  N   UNL     1       4.465   5.541  19.916  0.00  0.00    +0.000 NA
ATOM     10  C   UNL     1       3.290   5.657  19.244  0.00  0.00    +0.000 A 
ENDROOT
BRANCH  10  11
ATOM     11  C   UNL     1       2.441   6.880  19.484  0.00  0.00    +0.000 A 
ATOM     12  C   UNL     1       1.718   7.029  20.706  0.00  0.00    +0.000 A 
ATOM     13  C   UNL     1       1.032   8.192  21.048  0.00  0.00    +0.000 A 
ATOM     14  C   UNL     1       0.990   9.233  20.143  0.00  0.00    +0.000 A 
ATOM     15  C   UNL     1       1.565   9.073  18.882  0.00  0.00    +0.000 A 
ATOM     16  C   UNL     1       2.274   7.903  18.547  0.00  0.00    +0.000 A 
ENDBRANCH  10  11
BRANCH   5  17
ATOM     17  C   UNL     1       7.956   8.223  17.680  0.00  0.00    +0.000 C 
ATOM     18  F   UNL     1       8.753   8.649  18.700  0.00  0.00    +0.000 F 
ATOM     19  F   UNL     1       8.740   8.306  16.562  0.00  0.00    +0.000 F 
ATOM     20  F   UNL     1       6.986   9.176  17.524  0.00  0.00    +0.000 F 
ENDBRANCH   5  17
BRANCH   1  21
ATOM     21  C   UNL     1       1.912   4.371  17.618  0.00  0.00    +0.000 C 
BRANCH  21  22
ATOM     22  N   UNL     1       1.729   3.077  18.311  0.00  0.00    +0.000 N 
ATOM     23  C   UNL     1       0.333   2.667  18.508  0.00  0.00    +0.000 C 
BRANCH  22  27
ATOM     24  C   UNL     1       4.626   1.550  21.010  0.00  0.00    +0.000 A 
ATOM     25  C   UNL     1       3.506   2.220  21.484  0.00  0.00    +0.000 A 
ATOM     26  C   UNL     1       2.558   2.742  20.599  0.00  0.00    +0.000 A 
ATOM     27  C   UNL     1       2.705   2.629  19.200  0.00  0.00    +0.000 A 
ATOM     28  C   UNL     1       3.871   1.994  18.761  0.00  0.00    +0.000 A 
ATOM     29  C   UNL     1       4.829   1.464  19.641  0.00  0.00    +0.000 A 
BRANCH  24  31
ATOM     30  C   UNL     1       6.039  -0.222  21.662  0.00  0.00    +0.000 C 
ATOM     31  O   UNL     1       5.460   1.042  21.971  0.00  0.00    +0.000 OA
ENDBRANCH  24  31
ENDBRANCH  22  27
ENDBRANCH  21  22
ENDBRANCH   1  21
TORSDOF 6
ENDMDL
