MODEL 1
REMARK VINA RESULT:      -7.4      0.000      0.000
REMARK  Name = 
REMARK  15 active torsions:
REMARK  status: ('A' for Active; 'I' for Inactive)
REMARK    1  A    between atoms: C_1  and  N_2
REMARK    2  A    between atoms: C_3  and  C_5
REMARK    3  A    between atoms: C_5  and  C_6
REMARK    4  A    between atoms: C_5  and  N_15
REMARK    5  A    between atoms: C_6  and  C_7
REMARK    6  A    between atoms: C_10  and  O_11
REMARK    7  A    between atoms: O_11  and  C_12
REMARK    8  A    between atoms: C_16  and  C_18
REMARK    9  A    between atoms: C_18  and  C_19
REMARK   10  A    between atoms: C_18  and  C_27
REMARK   11  A    between atoms: C_19  and  C_20
REMARK   12  A    between atoms: C_25  and  S_26
REMARK   13  A    between atoms: C_27  and  C_28
REMARK   14  A    between atoms: C_28  and  C_29
REMARK   15  A    between atoms: C_28  and  C_30
REMARK                            x       y       z     vdW  Elec       q    Type
REMARK                         _______ _______ _______ _____ _____    ______ ____
ROOT
ATOM      1  N   UNL     1       2.018   7.494  19.621  0.00  0.00    +0.000 N 
ATOM      2  C   UNL     1       1.710   8.549  18.798  0.00  0.00    +0.000 C 
ATOM      3  O   UNL     1       1.747   8.436  17.570  0.00  0.00    +0.000 OA
ATOM      4  H   UNL     1       2.039   7.607  20.624  0.00  0.00    +0.000 HD
ENDROOT
BRANCH   1   5
ATOM      5  C   UNL     1       2.468   6.188  19.092  0.00  0.00    +0.000 C 
BRANCH   5   8
ATOM      6  C   UNL     1       1.005   2.714  19.824  0.00  0.00    +0.000 C 
ATOM      7  N   UNL     1       1.387   3.949  19.194  0.00  0.00    +0.000 N 
ATOM      8  C   UNL     1       1.986   4.963  19.915  0.00  0.00    +0.000 C 
ATOM      9  O   UNL     1       2.208   4.852  21.122  0.00  0.00    +0.000 OA
ATOM     10  H   UNL     1       1.426   3.993  18.182  0.00  0.00    +0.000 HD
ENDBRANCH   5   8
BRANCH   5  11
ATOM     11  C   UNL     1       4.005   6.123  18.872  0.00  0.00    +0.000 C 
BRANCH  11  12
ATOM     12  C   UNL     1       4.569   5.706  17.524  0.00  0.00    +0.000 A 
ATOM     13  C   UNL     1       4.867   6.602  16.493  0.00  0.00    +0.000 A 
ATOM     14  C   UNL     1       5.496   6.164  15.323  0.00  0.00    +0.000 A 
ATOM     15  C   UNL     1       5.878   4.834  15.174  0.00  0.00    +0.000 A 
ATOM     16  C   UNL     1       5.519   3.911  16.151  0.00  0.00    +0.000 A 
ATOM     17  C   UNL     1       4.867   4.344  17.315  0.00  0.00    +0.000 A 
BRANCH  15  18
ATOM     18  O   UNL     1       6.584   4.551  14.038  0.00  0.00    +0.000 OA
ATOM     19  C   UNL     1       5.959   3.636  13.143  0.00  0.00    +0.000 C 
ENDBRANCH  15  18
ENDBRANCH  11  12
ENDBRANCH   5  11
ENDBRANCH   1   5
BRANCH   2  20
ATOM     20  C   UNL     1       1.187   9.812  19.483  0.00  0.00    +0.000 C 
BRANCH  20  21
ATOM     21  C   UNL     1       0.587  10.802  18.435  0.00  0.00    +0.000 C 
BRANCH  21  22
ATOM     22  C   UNL     1      -0.925  10.833  18.292  0.00  0.00    +0.000 A 
ATOM     23  C   UNL     1      -1.526   9.907  17.413  0.00  0.00    +0.000 A 
ATOM     24  C   UNL     1      -2.905   9.879  17.214  0.00  0.00    +0.000 A 
ATOM     25  C   UNL     1      -3.714  10.780  17.891  0.00  0.00    +0.000 A 
ATOM     26  C   UNL     1      -3.141  11.722  18.745  0.00  0.00    +0.000 A 
ATOM     27  C   UNL     1      -1.754  11.767  18.947  0.00  0.00    +0.000 A 
BRANCH  27  28
ATOM     28  S   UNL     1      -1.146  13.073  20.006  0.00  0.00    +0.000 S 
ATOM     29  H   UNL     1       0.158  12.859  19.765  0.00  0.00    +0.000 HD
ENDBRANCH  27  28
ENDBRANCH  21  22
ENDBRANCH  20  21
BRANCH  20  30
ATOM     30  C   UNL     1       0.165   9.526  20.612  0.00  0.00    +0.000 C 
BRANCH  30  31
ATOM     31  C   UNL     1       0.374  10.102  22.036  0.00  0.00    +0.000 C 
ATOM     32  C   UNL     1      -0.888  10.255  22.884  0.00  0.00    +0.000 C 
ATOM     33  C   UNL     1       1.349   9.185  22.792  0.00  0.00    +0.000 C 
ENDBRANCH  30  31
ENDBRANCH  20  30
ENDBRANCH   2  20
TORSDOF 11
ENDMDL
MODEL 2
REMARK VINA RESULT:      -7.4      1.137      1.351
REMARK  Name = 
REMARK  15 active torsions:
REMARK  status: ('A' for Active; 'I' for Inactive)
REMARK    1  A    between atoms: C_1  and  N_2
REMARK    2  A    between atoms: C_3  and  C_5
REMARK    3  A    between atoms: C_5  and  C_6
REMARK    4  A    between atoms: C_5  and  N_15
REMARK    5  A    between atoms: C_6  and  C_7
REMARK    6  A    between atoms: C_10  and  O_11
REMARK    7  A    between atoms: O_11  and  C_12
REMARK    8  A    between atoms: C_16  and  C_18
REMARK    9  A    between atoms: C_18  and  C_19
REMARK   10  A    between atoms: C_18  and  C_27
REMARK   11  A    between atoms: C_19  and  C_20
REMARK   12  A    between atoms: C_25  and  S_26
REMARK   13  A    between atoms: C_27  and  C_28
REMARK   14  A    between atoms: C_28  and  C_29
REMARK   15  A    between atoms: C_28  and  C_30
REMARK                            x       y       z     vdW  Elec       q    Type
REMARK                         _______ _______ _______ _____ _____    ______ ____
ROOT
ATOM      1  N   UNL     1       1.982   7.025  20.119  0.00  0.00    +0.000 N 
ATOM      2  C   UNL     1       1.828   8.108  19.289  0.00  0.00    +0.000 C 
ATOM      3  O   UNL     1       2.053   8.023  18.078  0.00  0.00    +0.000 OA
ATOM      4  H   UNL     1       1.849   7.113  21.116  0.00  0.00    +0.000 HD
ENDROOT
BRANCH   1   5
ATOM      5  C   UNL     1       2.483   5.722  19.630  0.00  0.00    +0.000 C 
BRANCH   5   8
ATOM      6  C   UNL     1       1.977   2.525  21.696  0.00  0.00    +0.000 C 
ATOM      7  N   UNL     1       2.550   3.635  20.985  0.00  0.00    +0.000 N 
ATOM      8  C   UNL     1       1.762   4.489  20.239  0.00  0.00    +0.000 C 
ATOM      9  O   UNL     1       0.544   4.328  20.149  0.00  0.00    +0.000 OA
ATOM     10  H   UNL     1       3.494   3.928  21.209  0.00  0.00    +0.000 HD
ENDBRANCH   5   8
BRANCH   5  11
ATOM     11  C   UNL     1       4.023   5.574  19.772  0.00  0.00    +0.000 C 
BRANCH  11  12
ATOM     12  C   UNL     1       4.902   5.485  18.535  0.00  0.00    +0.000 A 
ATOM     13  C   UNL     1       6.261   5.809  18.520  0.00  0.00    +0.000 A 
ATOM     14  C   UNL     1       7.037   5.590  17.377  0.00  0.00    +0.000 A 
ATOM     15  C   UNL     1       6.485   5.003  16.242  0.00  0.00    +0.000 A 
ATOM     16  C   UNL     1       5.117   4.747  16.207  0.00  0.00    +0.000 A 
ATOM     17  C   UNL     1       4.333   4.989  17.344  0.00  0.00    +0.000 A 
BRANCH  15  18
ATOM     18  O   UNL     1       7.366   4.736  15.233  0.00  0.00    +0.000 OA
ATOM     19  C   UNL     1       6.792   4.623  13.934  0.00  0.00    +0.000 C 
ENDBRANCH  15  18
ENDBRANCH  11  12
ENDBRANCH   5  11
ENDBRANCH   1   5
BRANCH   2  20
ATOM     20  C   UNL     1       1.230   9.365  19.919  0.00  0.00    +0.000 C 
BRANCH  20  21
ATOM     21  C   UNL     1       0.891  10.426  18.825  0.00  0.00    +0.000 C 
BRANCH  21  22
ATOM     22  C   UNL     1      -0.575  10.628  18.483  0.00  0.00    +0.000 A 
ATOM     23  C   UNL     1      -1.157   9.766  17.530  0.00  0.00    +0.000 A 
ATOM     24  C   UNL     1      -2.492   9.894  17.150  0.00  0.00    +0.000 A 
ATOM     25  C   UNL     1      -3.274  10.891  17.715  0.00  0.00    +0.000 A 
ATOM     26  C   UNL     1      -2.714  11.772  18.639  0.00  0.00    +0.000 A 
ATOM     27  C   UNL     1      -1.370  11.660  19.024  0.00  0.00    +0.000 A 
BRANCH  27  28
ATOM     28  S   UNL     1      -0.760  12.902  20.156  0.00  0.00    +0.000 S 
ATOM     29  H   UNL     1      -0.792  13.921  19.282  0.00  0.00    +0.000 HD
ENDBRANCH  27  28
ENDBRANCH  21  22
ENDBRANCH  20  21
BRANCH  20  30
ATOM     30  C   UNL     1      -0.006   9.084  20.810  0.00  0.00    +0.000 C 
BRANCH  30  31
ATOM     31  C   UNL     1       0.112   9.092  22.356  0.00  0.00    +0.000 C 
ATOM     32  C   UNL     1       1.519   9.299  22.915  0.00  0.00    +0.000 C 
ATOM     33  C   UNL     1      -0.789  10.210  22.906  0.00  0.00    +0.000 C 
ENDBRANCH  30  31
ENDBRANCH  20  30
ENDBRANCH   2  20
TORSDOF 11
ENDMDL
MODEL 3
REMARK VINA RESULT:      -7.2      3.421      8.844
REMARK  Name = 
REMARK  15 active torsions:
REMARK  status: ('A' for Active; 'I' for Inactive)
REMARK    1  A    between atoms: C_1  and  N_2
REMARK    2  A    between atoms: C_3  and  C_5
REMARK    3  A    between atoms: C_5  and  C_6
REMARK    4  A    between atoms: C_5  and  N_15
REMARK    5  A    between atoms: C_6  and  C_7
REMARK    6  A    between atoms: C_10  and  O_11
REMARK    7  A    between atoms: O_11  and  C_12
REMARK    8  A    between atoms: C_16  and  C_18
REMARK    9  A    between atoms: C_18  and  C_19
REMARK   10  A    between atoms: C_18  and  C_27
REMARK   11  A    between atoms: C_19  and  C_20
REMARK   12  A    between atoms: C_25  and  S_26
REMARK   13  A    between atoms: C_27  and  C_28
REMARK   14  A    between atoms: C_28  and  C_29
REMARK   15  A    between atoms: C_28  and  C_30
REMARK                            x       y       z     vdW  Elec       q    Type
REMARK                         _______ _______ _______ _____ _____    ______ ____
ROOT
ATOM      1  N   UNL     1       1.764   8.941  17.709  0.00  0.00    +0.000 N 
ATOM      2  C   UNL     1       2.127   8.163  18.781  0.00  0.00    +0.000 C 
ATOM      3  O   UNL     1       1.705   8.400  19.916  0.00  0.00    +0.000 OA
ATOM      4  H   UNL     1       2.154   8.776  16.792  0.00  0.00    +0.000 HD
ENDROOT
BRANCH   1   5
ATOM      5  C   UNL     1       0.905  10.137  17.859  0.00  0.00    +0.000 C 
BRANCH   5   8
ATOM      6  C   UNL     1       2.996  13.336  18.232  0.00  0.00    +0.000 C 
ATOM      7  N   UNL     1       2.394  12.127  17.738  0.00  0.00    +0.000 N 
ATOM      8  C   UNL     1       1.600  11.341  18.549  0.00  0.00    +0.000 C 
ATOM      9  O   UNL     1       1.384  11.641  19.724  0.00  0.00    +0.000 OA
ATOM     10  H   UNL     1       2.365  11.966  16.738  0.00  0.00    +0.000 HD
ENDBRANCH   5   8
BRANCH   5  11
ATOM     11  C   UNL     1      -0.451   9.824  18.548  0.00  0.00    +0.000 C 
BRANCH  11  12
ATOM     12  C   UNL     1      -1.741  10.418  18.007  0.00  0.00    +0.000 A 
ATOM     13  C   UNL     1      -2.310  10.058  16.782  0.00  0.00    +0.000 A 
ATOM     14  C   UNL     1      -3.561  10.555  16.400  0.00  0.00    +0.000 A 
ATOM     15  C   UNL     1      -4.287  11.386  17.248  0.00  0.00    +0.000 A 
ATOM     16  C   UNL     1      -3.705  11.821  18.435  0.00  0.00    +0.000 A 
ATOM     17  C   UNL     1      -2.441  11.343  18.808  0.00  0.00    +0.000 A 
BRANCH  15  18
ATOM     18  O   UNL     1      -5.541  11.714  16.814  0.00  0.00    +0.000 OA
ATOM     19  C   UNL     1      -6.491  11.986  17.840  0.00  0.00    +0.000 C 
ENDBRANCH  15  18
ENDBRANCH  11  12
ENDBRANCH   5  11
ENDBRANCH   1   5
BRANCH   2  20
ATOM     20  C   UNL     1       2.954   6.917  18.464  0.00  0.00    +0.000 C 
BRANCH  20  21
ATOM     21  C   UNL     1       2.028   5.713  18.106  0.00  0.00    +0.000 C 
BRANCH  21  22
ATOM     22  C   UNL     1       2.005   4.541  19.073  0.00  0.00    +0.000 A 
ATOM     23  C   UNL     1       1.563   4.779  20.391  0.00  0.00    +0.000 A 
ATOM     24  C   UNL     1       1.525   3.762  21.343  0.00  0.00    +0.000 A 
ATOM     25  C   UNL     1       1.933   2.482  20.996  0.00  0.00    +0.000 A 
ATOM     26  C   UNL     1       2.401   2.228  19.707  0.00  0.00    +0.000 A 
ATOM     27  C   UNL     1       2.451   3.245  18.742  0.00  0.00    +0.000 A 
BRANCH  27  28
ATOM     28  S   UNL     1       3.145   2.801  17.154  0.00  0.00    +0.000 S 
ATOM     29  H   UNL     1       3.498   4.047  16.798  0.00  0.00    +0.000 HD
ENDBRANCH  27  28
ENDBRANCH  21  22
ENDBRANCH  20  21
BRANCH  20  30
ATOM     30  C   UNL     1       4.012   7.142  17.354  0.00  0.00    +0.000 C 
BRANCH  30  31
ATOM     31  C   UNL     1       5.391   6.436  17.418  0.00  0.00    +0.000 C 
ATOM     32  C   UNL     1       5.609   5.507  18.613  0.00  0.00    +0.000 C 
ATOM     33  C   UNL     1       5.574   5.611  16.133  0.00  0.00    +0.000 C 
ENDBRANCH  30  31
ENDBRANCH  20  30
ENDBRANCH   2  20
TORSDOF 11
ENDMDL
MODEL 4
REMARK VINA RESULT:      -7.1      3.153      8.793
REMARK  Name = 
REMARK  15 active torsions:
REMARK  status: ('A' for Active; 'I' for Inactive)
REMARK    1  A    between atoms: C_1  and  N_2
REMARK    2  A    between atoms: C_3  and  C_5
REMARK    3  A    between atoms: C_5  and  C_6
REMARK    4  A    between atoms: C_5  and  N_15
REMARK    5  A    between atoms: C_6  and  C_7
REMARK    6  A    between atoms: C_10  and  O_11
REMARK    7  A    between atoms: O_11  and  C_12
REMARK    8  A    between atoms: C_16  and  C_18
REMARK    9  A    between atoms: C_18  and  C_19
REMARK   10  A    between atoms: C_18  and  C_27
REMARK   11  A    between atoms: C_19  and  C_20
REMARK   12  A    between atoms: C_25  and  S_26
REMARK   13  A    between atoms: C_27  and  C_28
REMARK   14  A    between atoms: C_28  and  C_29
REMARK   15  A    between atoms: C_28  and  C_30
REMARK                            x       y       z     vdW  Elec       q    Type
REMARK                         _______ _______ _______ _____ _____    ______ ____
ROOT
ATOM      1  N   UNL     1       1.785   8.950  17.741  0.00  0.00    +0.000 N 
ATOM      2  C   UNL     1       2.149   8.124  18.775  0.00  0.00    +0.000 C 
ATOM      3  O   UNL     1       1.747   8.322  19.925  0.00  0.00    +0.000 OA
ATOM      4  H   UNL     1       2.160   8.815  16.813  0.00  0.00    +0.000 HD
ENDROOT
BRANCH   1   5
ATOM      5  C   UNL     1       0.950  10.153  17.950  0.00  0.00    +0.000 C 
BRANCH   5   8
ATOM      6  C   UNL     1       1.981  12.857  20.474  0.00  0.00    +0.000 C 
ATOM      7  N   UNL     1       1.281  11.816  19.772  0.00  0.00    +0.000 N 
ATOM      8  C   UNL     1       1.715  11.368  18.539  0.00  0.00    +0.000 C 
ATOM      9  O   UNL     1       2.710  11.848  17.994  0.00  0.00    +0.000 OA
ATOM     10  H   UNL     1       0.604  11.254  20.275  0.00  0.00    +0.000 HD
ENDBRANCH   5   8
BRANCH   5  11
ATOM     11  C   UNL     1      -0.330   9.863  18.780  0.00  0.00    +0.000 C 
BRANCH  11  12
ATOM     12  C   UNL     1      -1.687  10.344  18.291  0.00  0.00    +0.000 A 
ATOM     13  C   UNL     1      -2.453  11.311  18.948  0.00  0.00    +0.000 A 
ATOM     14  C   UNL     1      -3.636  11.794  18.379  0.00  0.00    +0.000 A 
ATOM     15  C   UNL     1      -4.056  11.356  17.127  0.00  0.00    +0.000 A 
ATOM     16  C   UNL     1      -3.352  10.337  16.493  0.00  0.00    +0.000 A 
ATOM     17  C   UNL     1      -2.179   9.833  17.073  0.00  0.00    +0.000 A 
BRANCH  15  18
ATOM     18  O   UNL     1      -5.163  11.983  16.628  0.00  0.00    +0.000 OA
ATOM     19  C   UNL     1      -6.064  12.499  17.604  0.00  0.00    +0.000 C 
ENDBRANCH  15  18
ENDBRANCH  11  12
ENDBRANCH   5  11
ENDBRANCH   1   5
BRANCH   2  20
ATOM     20  C   UNL     1       2.950   6.878  18.397  0.00  0.00    +0.000 C 
BRANCH  20  21
ATOM     21  C   UNL     1       1.998   5.699  18.024  0.00  0.00    +0.000 C 
BRANCH  21  22
ATOM     22  C   UNL     1       2.488   4.290  18.313  0.00  0.00    +0.000 A 
ATOM     23  C   UNL     1       2.831   3.471  17.216  0.00  0.00    +0.000 A 
ATOM     24  C   UNL     1       3.276   2.163  17.394  0.00  0.00    +0.000 A 
ATOM     25  C   UNL     1       3.385   1.643  18.676  0.00  0.00    +0.000 A 
ATOM     26  C   UNL     1       3.025   2.424  19.774  0.00  0.00    +0.000 A 
ATOM     27  C   UNL     1       2.569   3.740  19.609  0.00  0.00    +0.000 A 
BRANCH  27  28
ATOM     28  S   UNL     1       2.069   4.602  21.094  0.00  0.00    +0.000 S 
ATOM     29  H   UNL     1       2.534   3.684  21.956  0.00  0.00    +0.000 HD
ENDBRANCH  27  28
ENDBRANCH  21  22
ENDBRANCH  20  21
BRANCH  20  30
ATOM     30  C   UNL     1       3.984   7.125  17.270  0.00  0.00    +0.000 C 
BRANCH  30  31
ATOM     31  C   UNL     1       5.394   6.483  17.332  0.00  0.00    +0.000 C 
ATOM     32  C   UNL     1       5.673   5.606  18.552  0.00  0.00    +0.000 C 
ATOM     33  C   UNL     1       5.592   5.625  16.071  0.00  0.00    +0.000 C 
ENDBRANCH  30  31
ENDBRANCH  20  30
ENDBRANCH   2  20
TORSDOF 11
ENDMDL
MODEL 5
REMARK VINA RESULT:      -7.1      3.231      8.902
REMARK  Name = 
REMARK  15 active torsions:
REMARK  status: ('A' for Active; 'I' for Inactive)
REMARK    1  A    between atoms: C_1  and  N_2
REMARK    2  A    between atoms: C_3  and  C_5
REMARK    3  A    between atoms: C_5  and  C_6
REMARK    4  A    between atoms: C_5  and  N_15
REMARK    5  A    between atoms: C_6  and  C_7
REMARK    6  A    between atoms: C_10  and  O_11
REMARK    7  A    between atoms: O_11  and  C_12
REMARK    8  A    between atoms: C_16  and  C_18
REMARK    9  A    between atoms: C_18  and  C_19
REMARK   10  A    between atoms: C_18  and  C_27
REMARK   11  A    between atoms: C_19  and  C_20
REMARK   12  A    between atoms: C_25  and  S_26
REMARK   13  A    between atoms: C_27  and  C_28
REMARK   14  A    between atoms: C_28  and  C_29
REMARK   15  A    between atoms: C_28  and  C_30
REMARK                            x       y       z     vdW  Elec       q    Type
REMARK                         _______ _______ _______ _____ _____    ______ ____
ROOT
ATOM      1  N   UNL     1       1.813   8.911  17.664  0.00  0.00    +0.000 N 
ATOM      2  C   UNL     1       2.211   8.060  18.665  0.00  0.00    +0.000 C 
ATOM      3  O   UNL     1       1.818   8.209  19.826  0.00  0.00    +0.000 OA
ATOM      4  H   UNL     1       2.180   8.817  16.728  0.00  0.00    +0.000 HD
ENDROOT
BRANCH   1   5
ATOM      5  C   UNL     1       0.949  10.083  17.922  0.00  0.00    +0.000 C 
BRANCH   5   8
ATOM      6  C   UNL     1       3.061  13.280  18.175  0.00  0.00    +0.000 C 
ATOM      7  N   UNL     1       2.432  12.071  17.716  0.00  0.00    +0.000 N 
ATOM      8  C   UNL     1       1.681  11.288  18.572  0.00  0.00    +0.000 C 
ATOM      9  O   UNL     1       1.530  11.590  19.756  0.00  0.00    +0.000 OA
ATOM     10  H   UNL     1       2.348  11.908  16.720  0.00  0.00    +0.000 HD
ENDBRANCH   5   8
BRANCH   5  11
ATOM     11  C   UNL     1      -0.328   9.725  18.731  0.00  0.00    +0.000 C 
BRANCH  11  12
ATOM     12  C   UNL     1      -1.678  10.296  18.325  0.00  0.00    +0.000 A 
ATOM     13  C   UNL     1      -2.319  11.336  19.004  0.00  0.00    +0.000 A 
ATOM     14  C   UNL     1      -3.502  11.893  18.507  0.00  0.00    +0.000 A 
ATOM     15  C   UNL     1      -4.045  11.456  17.302  0.00  0.00    +0.000 A 
ATOM     16  C   UNL     1      -3.467  10.370  16.652  0.00  0.00    +0.000 A 
ATOM     17  C   UNL     1      -2.295   9.793  17.162  0.00  0.00    +0.000 A 
BRANCH  15  18
ATOM     18  O   UNL     1      -5.136  12.153  16.864  0.00  0.00    +0.000 OA
ATOM     19  C   UNL     1      -6.322  11.976  17.633  0.00  0.00    +0.000 C 
ENDBRANCH  15  18
ENDBRANCH  11  12
ENDBRANCH   5  11
ENDBRANCH   1   5
BRANCH   2  20
ATOM     20  C   UNL     1       3.041   6.850  18.237  0.00  0.00    +0.000 C 
BRANCH  20  21
ATOM     21  C   UNL     1       4.265   7.294  17.376  0.00  0.00    +0.000 C 
BRANCH  21  22
ATOM     22  C   UNL     1       5.152   6.198  16.810  0.00  0.00    +0.000 A 
ATOM     23  C   UNL     1       4.526   5.073  16.234  0.00  0.00    +0.000 A 
ATOM     24  C   UNL     1       5.267   4.018  15.705  0.00  0.00    +0.000 A 
ATOM     25  C   UNL     1       6.654   4.065  15.744  0.00  0.00    +0.000 A 
ATOM     26  C   UNL     1       7.294   5.154  16.334  0.00  0.00    +0.000 A 
ATOM     27  C   UNL     1       6.561   6.219  16.877  0.00  0.00    +0.000 A 
BRANCH  27  28
ATOM     28  S   UNL     1       7.505   7.513  17.671  0.00  0.00    +0.000 S 
ATOM     29  H   UNL     1       6.867   7.453  18.851  0.00  0.00    +0.000 HD
ENDBRANCH  27  28
ENDBRANCH  21  22
ENDBRANCH  20  21
BRANCH  20  30
ATOM     30  C   UNL     1       3.499   5.962  19.422  0.00  0.00    +0.000 C 
BRANCH  30  31
ATOM     31  C   UNL     1       2.925   4.535  19.612  0.00  0.00    +0.000 C 
ATOM     32  C   UNL     1       1.817   4.129  18.640  0.00  0.00    +0.000 C 
ATOM     33  C   UNL     1       4.077   3.526  19.469  0.00  0.00    +0.000 C 
ENDBRANCH  30  31
ENDBRANCH  20  30
ENDBRANCH   2  20
TORSDOF 11
ENDMDL
MODEL 6
REMARK VINA RESULT:      -7.0      1.183      1.285
REMARK  Name = 
REMARK  15 active torsions:
REMARK  status: ('A' for Active; 'I' for Inactive)
REMARK    1  A    between atoms: C_1  and  N_2
REMARK    2  A    between atoms: C_3  and  C_5
REMARK    3  A    between atoms: C_5  and  C_6
REMARK    4  A    between atoms: C_5  and  N_15
REMARK    5  A    between atoms: C_6  and  C_7
REMARK    6  A    between atoms: C_10  and  O_11
REMARK    7  A    between atoms: O_11  and  C_12
REMARK    8  A    between atoms: C_16  and  C_18
REMARK    9  A    between atoms: C_18  and  C_19
REMARK   10  A    between atoms: C_18  and  C_27
REMARK   11  A    between atoms: C_19  and  C_20
REMARK   12  A    between atoms: C_25  and  S_26
REMARK   13  A    between atoms: C_27  and  C_28
REMARK   14  A    between atoms: C_28  and  C_29
REMARK   15  A    between atoms: C_28  and  C_30
REMARK                            x       y       z     vdW  Elec       q    Type
REMARK                         _______ _______ _______ _____ _____    ______ ____
ROOT
ATOM      1  N   UNL     1       2.096   7.172  19.906  0.00  0.00    +0.000 N 
ATOM      2  C   UNL     1       1.826   8.159  18.990  0.00  0.00    +0.000 C 
ATOM      3  O   UNL     1       1.959   7.963  17.779  0.00  0.00    +0.000 OA
ATOM      4  H   UNL     1       2.037   7.355  20.897  0.00  0.00    +0.000 HD
ENDROOT
BRANCH   1   5
ATOM      5  C   UNL     1       2.618   5.848  19.505  0.00  0.00    +0.000 C 
BRANCH   5   8
ATOM      6  C   UNL     1       2.206   2.630  21.559  0.00  0.00    +0.000 C 
ATOM      7  N   UNL     1       2.743   3.721  20.792  0.00  0.00    +0.000 N 
ATOM      8  C   UNL     1       1.913   4.648  20.191  0.00  0.00    +0.000 C 
ATOM      9  O   UNL     1       0.687   4.569  20.283  0.00  0.00    +0.000 OA
ATOM     10  H   UNL     1       3.727   3.944  20.876  0.00  0.00    +0.000 HD
ENDBRANCH   5   8
BRANCH   5  11
ATOM     11  C   UNL     1       4.159   5.733  19.662  0.00  0.00    +0.000 C 
BRANCH  11  12
ATOM     12  C   UNL     1       5.039   5.498  18.445  0.00  0.00    +0.000 A 
ATOM     13  C   UNL     1       4.543   5.300  17.153  0.00  0.00    +0.000 A 
ATOM     14  C   UNL     1       5.411   5.209  16.059  0.00  0.00    +0.000 A 
ATOM     15  C   UNL     1       6.785   5.357  16.226  0.00  0.00    +0.000 A 
ATOM     16  C   UNL     1       7.305   5.474  17.511  0.00  0.00    +0.000 A 
ATOM     17  C   UNL     1       6.438   5.541  18.611  0.00  0.00    +0.000 A 
BRANCH  15  18
ATOM     18  O   UNL     1       7.517   5.362  15.072  0.00  0.00    +0.000 OA
ATOM     19  C   UNL     1       6.894   4.741  13.950  0.00  0.00    +0.000 C 
ENDBRANCH  15  18
ENDBRANCH  11  12
ENDBRANCH   5  11
ENDBRANCH   1   5
BRANCH   2  20
ATOM     20  C   UNL     1       1.220   9.449  19.542  0.00  0.00    +0.000 C 
BRANCH  20  21
ATOM     21  C   UNL     1       0.796  10.404  18.382  0.00  0.00    +0.000 C 
BRANCH  21  22
ATOM     22  C   UNL     1      -0.693  10.622  18.169  0.00  0.00    +0.000 A 
ATOM     23  C   UNL     1      -1.434   9.583  17.566  0.00  0.00    +0.000 A 
ATOM     24  C   UNL     1      -2.800   9.709  17.323  0.00  0.00    +0.000 A 
ATOM     25  C   UNL     1      -3.456  10.880  17.676  0.00  0.00    +0.000 A 
ATOM     26  C   UNL     1      -2.739  11.931  18.248  0.00  0.00    +0.000 A 
ATOM     27  C   UNL     1      -1.362  11.820  18.491  0.00  0.00    +0.000 A 
BRANCH  27  28
ATOM     28  S   UNL     1      -0.552  13.270  19.156  0.00  0.00    +0.000 S 
ATOM     29  H   UNL     1       0.641  12.688  19.357  0.00  0.00    +0.000 HD
ENDBRANCH  27  28
ENDBRANCH  21  22
ENDBRANCH  20  21
BRANCH  20  30
ATOM     30  C   UNL     1       0.037   9.211  20.515  0.00  0.00    +0.000 C 
BRANCH  30  31
ATOM     31  C   UNL     1      -0.179  10.134  21.742  0.00  0.00    +0.000 C 
ATOM     32  C   UNL     1      -0.119   9.450  23.108  0.00  0.00    +0.000 C 
ATOM     33  C   UNL     1       0.891  11.238  21.713  0.00  0.00    +0.000 C 
ENDBRANCH  30  31
ENDBRANCH  20  30
ENDBRANCH   2  20
TORSDOF 11
ENDMDL
MODEL 7
REMARK VINA RESULT:      -7.0      3.383      8.846
REMARK  Name = 
REMARK  15 active torsions:
REMARK  status: ('A' for Active; 'I' for Inactive)
REMARK    1  A    between atoms: C_1  and  N_2
REMARK    2  A    between atoms: C_3  and  C_5
REMARK    3  A    between atoms: C_5  and  C_6
REMARK    4  A    between atoms: C_5  and  N_15
REMARK    5  A    between atoms: C_6  and  C_7
REMARK    6  A    between atoms: C_10  and  O_11
REMARK    7  A    between atoms: O_11  and  C_12
REMARK    8  A    between atoms: C_16  and  C_18
REMARK    9  A    between atoms: C_18  and  C_19
REMARK   10  A    between atoms: C_18  and  C_27
REMARK   11  A    between atoms: C_19  and  C_20
REMARK   12  A    between atoms: C_25  and  S_26
REMARK   13  A    between atoms: C_27  and  C_28
REMARK   14  A    between atoms: C_28  and  C_29
REMARK   15  A    between atoms: C_28  and  C_30
REMARK                            x       y       z     vdW  Elec       q    Type
REMARK                         _______ _______ _______ _____ _____    ______ ____
ROOT
ATOM      1  N   UNL     1       1.920   8.956  17.827  0.00  0.00    +0.000 N 
ATOM      2  C   UNL     1       2.147   8.121  18.893  0.00  0.00    +0.000 C 
ATOM      3  O   UNL     1       1.593   8.305  19.981  0.00  0.00    +0.000 OA
ATOM      4  H   UNL     1       2.416   8.832  16.957  0.00  0.00    +0.000 HD
ENDROOT
BRANCH   1   5
ATOM      5  C   UNL     1       1.055  10.151  17.933  0.00  0.00    +0.000 C 
BRANCH   5   8
ATOM      6  C   UNL     1       1.906  12.920  20.454  0.00  0.00    +0.000 C 
ATOM      7  N   UNL     1       1.266  11.847  19.742  0.00  0.00    +0.000 N 
ATOM      8  C   UNL     1       1.758  11.398  18.532  0.00  0.00    +0.000 C 
ATOM      9  O   UNL     1       2.757  11.903  18.017  0.00  0.00    +0.000 OA
ATOM     10  H   UNL     1       0.589  11.270  20.228  0.00  0.00    +0.000 HD
ENDBRANCH   5   8
BRANCH   5  11
ATOM     11  C   UNL     1      -0.277   9.869  18.680  0.00  0.00    +0.000 C 
BRANCH  11  12
ATOM     12  C   UNL     1      -1.592  10.394  18.127  0.00  0.00    +0.000 A 
ATOM     13  C   UNL     1      -2.195   9.912  16.962  0.00  0.00    +0.000 A 
ATOM     14  C   UNL     1      -3.464  10.357  16.575  0.00  0.00    +0.000 A 
ATOM     15  C   UNL     1      -4.174  11.258  17.363  0.00  0.00    +0.000 A 
ATOM     16  C   UNL     1      -3.560  11.811  18.483  0.00  0.00    +0.000 A 
ATOM     17  C   UNL     1      -2.279  11.385  18.859  0.00  0.00    +0.000 A 
BRANCH  15  18
ATOM     18  O   UNL     1      -5.445  11.530  16.941  0.00  0.00    +0.000 OA
ATOM     19  C   UNL     1      -6.436  11.560  17.965  0.00  0.00    +0.000 C 
ENDBRANCH  15  18
ENDBRANCH  11  12
ENDBRANCH   5  11
ENDBRANCH   1   5
BRANCH   2  20
ATOM     20  C   UNL     1       3.001   6.884  18.615  0.00  0.00    +0.000 C 
BRANCH  20  21
ATOM     21  C   UNL     1       2.100   5.639  18.340  0.00  0.00    +0.000 C 
BRANCH  21  22
ATOM     22  C   UNL     1       2.146   4.509  19.354  0.00  0.00    +0.000 A 
ATOM     23  C   UNL     1       1.986   4.835  20.717  0.00  0.00    +0.000 A 
ATOM     24  C   UNL     1       2.029   3.860  21.711  0.00  0.00    +0.000 A 
ATOM     25  C   UNL     1       2.238   2.533  21.362  0.00  0.00    +0.000 A 
ATOM     26  C   UNL     1       2.427   2.189  20.023  0.00  0.00    +0.000 A 
ATOM     27  C   UNL     1       2.393   3.162  19.014  0.00  0.00    +0.000 A 
BRANCH  27  28
ATOM     28  S   UNL     1       2.728   2.596  17.351  0.00  0.00    +0.000 S 
ATOM     29  H   UNL     1       1.739   3.288  16.762  0.00  0.00    +0.000 HD
ENDBRANCH  27  28
ENDBRANCH  21  22
ENDBRANCH  20  21
BRANCH  20  30
ATOM     30  C   UNL     1       4.025   7.083  17.469  0.00  0.00    +0.000 C 
BRANCH  30  31
ATOM     31  C   UNL     1       4.692   5.864  16.780  0.00  0.00    +0.000 C 
ATOM     32  C   UNL     1       5.341   6.139  15.424  0.00  0.00    +0.000 C 
ATOM     33  C   UNL     1       5.772   5.306  17.722  0.00  0.00    +0.000 C 
ENDBRANCH  30  31
ENDBRANCH  20  30
ENDBRANCH   2  20
TORSDOF 11
ENDMDL
MODEL 8
REMARK VINA RESULT:      -7.0      3.616      9.112
REMARK  Name = 
REMARK  15 active torsions:
REMARK  status: ('A' for Active; 'I' for Inactive)
REMARK    1  A    between atoms: C_1  and  N_2
REMARK    2  A    between atoms: C_3  and  C_5
REMARK    3  A    between atoms: C_5  and  C_6
REMARK    4  A    between atoms: C_5  and  N_15
REMARK    5  A    between atoms: C_6  and  C_7
REMARK    6  A    between atoms: C_10  and  O_11
REMARK    7  A    between atoms: O_11  and  C_12
REMARK    8  A    between atoms: C_16  and  C_18
REMARK    9  A    between atoms: C_18  and  C_19
REMARK   10  A    between atoms: C_18  and  C_27
REMARK   11  A    between atoms: C_19  and  C_20
REMARK   12  A    between atoms: C_25  and  S_26
REMARK   13  A    between atoms: C_27  and  C_28
REMARK   14  A    between atoms: C_28  and  C_29
REMARK   15  A    between atoms: C_28  and  C_30
REMARK                            x       y       z     vdW  Elec       q    Type
REMARK                         _______ _______ _______ _____ _____    ______ ____
ROOT
ATOM      1  N   UNL     1       2.091   9.082  18.080  0.00  0.00    +0.000 N 
ATOM      2  C   UNL     1       2.379   7.893  18.704  0.00  0.00    +0.000 C 
ATOM      3  O   UNL     1       2.008   7.670  19.860  0.00  0.00    +0.000 OA
ATOM      4  H   UNL     1       2.443   9.281  17.155  0.00  0.00    +0.000 HD
ENDROOT
BRANCH   1   5
ATOM      5  C   UNL     1       1.381  10.182  18.770  0.00  0.00    +0.000 C 
BRANCH   5   8
ATOM      6  C   UNL     1      -2.106   9.997  17.175  0.00  0.00    +0.000 C 
ATOM      7  N   UNL     1      -0.698  10.175  17.403  0.00  0.00    +0.000 N 
ATOM      8  C   UNL     1      -0.166  10.104  18.676  0.00  0.00    +0.000 C 
ATOM      9  O   UNL     1      -0.876   9.892  19.660  0.00  0.00    +0.000 OA
ATOM     10  H   UNL     1      -0.063  10.130  16.615  0.00  0.00    +0.000 HD
ENDBRANCH   5   8
BRANCH   5  11
ATOM     11  C   UNL     1       1.881  11.588  18.339  0.00  0.00    +0.000 C 
BRANCH  11  12
ATOM     12  C   UNL     1       1.505  12.817  19.150  0.00  0.00    +0.000 A 
ATOM     13  C   UNL     1       2.052  13.124  20.399  0.00  0.00    +0.000 A 
ATOM     14  C   UNL     1       1.750  14.332  21.035  0.00  0.00    +0.000 A 
ATOM     15  C   UNL     1       0.932  15.277  20.421  0.00  0.00    +0.000 A 
ATOM     16  C   UNL     1       0.314  14.959  19.216  0.00  0.00    +0.000 A 
ATOM     17  C   UNL     1       0.596  13.738  18.588  0.00  0.00    +0.000 A 
BRANCH  15  18
ATOM     18  O   UNL     1       0.803  16.462  21.090  0.00  0.00    +0.000 OA
ATOM     19  C   UNL     1      -0.107  17.393  20.511  0.00  0.00    +0.000 C 
ENDBRANCH  15  18
ENDBRANCH  11  12
ENDBRANCH   5  11
ENDBRANCH   1   5
BRANCH   2  20
ATOM     20  C   UNL     1       3.049   6.822  17.844  0.00  0.00    +0.000 C 
BRANCH  20  21
ATOM     21  C   UNL     1       4.526   7.214  17.522  0.00  0.00    +0.000 C 
BRANCH  21  22
ATOM     22  C   UNL     1       5.380   6.180  16.808  0.00  0.00    +0.000 A 
ATOM     23  C   UNL     1       5.118   5.934  15.443  0.00  0.00    +0.000 A 
ATOM     24  C   UNL     1       5.846   4.992  14.719  0.00  0.00    +0.000 A 
ATOM     25  C   UNL     1       6.853   4.272  15.347  0.00  0.00    +0.000 A 
ATOM     26  C   UNL     1       7.112   4.478  16.702  0.00  0.00    +0.000 A 
ATOM     27  C   UNL     1       6.381   5.417  17.444  0.00  0.00    +0.000 A 
BRANCH  27  28
ATOM     28  S   UNL     1       6.763   5.525  19.188  0.00  0.00    +0.000 S 
ATOM     29  H   UNL     1       6.845   4.202  19.399  0.00  0.00    +0.000 HD
ENDBRANCH  27  28
ENDBRANCH  21  22
ENDBRANCH  20  21
BRANCH  20  30
ATOM     30  C   UNL     1       2.982   5.402  18.459  0.00  0.00    +0.000 C 
BRANCH  30  31
ATOM     31  C   UNL     1       2.363   4.222  17.667  0.00  0.00    +0.000 C 
ATOM     32  C   UNL     1       3.328   3.103  17.276  0.00  0.00    +0.000 C 
ATOM     33  C   UNL     1       1.237   3.606  18.514  0.00  0.00    +0.000 C 
ENDBRANCH  30  31
ENDBRANCH  20  30
ENDBRANCH   2  20
TORSDOF 11
ENDMDL
MODEL 9
REMARK VINA RESULT:      -7.0      2.853      5.411
REMARK  Name = 
REMARK  15 active torsions:
REMARK  status: ('A' for Active; 'I' for Inactive)
REMARK    1  A    between atoms: C_1  and  N_2
REMARK    2  A    between atoms: C_3  and  C_5
REMARK    3  A    between atoms: C_5  and  C_6
REMARK    4  A    between atoms: C_5  and  N_15
REMARK    5  A    between atoms: C_6  and  C_7
REMARK    6  A    between atoms: C_10  and  O_11
REMARK    7  A    between atoms: O_11  and  C_12
REMARK    8  A    between atoms: C_16  and  C_18
REMARK    9  A    between atoms: C_18  and  C_19
REMARK   10  A    between atoms: C_18  and  C_27
REMARK   11  A    between atoms: C_19  and  C_20
REMARK   12  A    between atoms: C_25  and  S_26
REMARK   13  A    between atoms: C_27  and  C_28
REMARK   14  A    between atoms: C_28  and  C_29
REMARK   15  A    between atoms: C_28  and  C_30
REMARK                            x       y       z     vdW  Elec       q    Type
REMARK                         _______ _______ _______ _____ _____    ______ ____
ROOT
ATOM      1  N   UNL     1       5.357   6.177  18.151  0.00  0.00    +0.000 N 
ATOM      2  C   UNL     1       4.544   5.372  18.911  0.00  0.00    +0.000 C 
ATOM      3  O   UNL     1       5.014   4.593  19.745  0.00  0.00    +0.000 OA
ATOM      4  H   UNL     1       4.971   6.772  17.433  0.00  0.00    +0.000 HD
ENDROOT
BRANCH   1   5
ATOM      5  C   UNL     1       6.832   6.114  18.239  0.00  0.00    +0.000 C 
BRANCH   5   8
ATOM      6  C   UNL     1       9.142   9.140  18.744  0.00  0.00    +0.000 C 
ATOM      7  N   UNL     1       8.336   7.966  18.947  0.00  0.00    +0.000 N 
ATOM      8  C   UNL     1       7.549   7.456  17.933  0.00  0.00    +0.000 C 
ATOM      9  O   UNL     1       7.503   7.990  16.823  0.00  0.00    +0.000 OA
ATOM     10  H   UNL     1       8.513   7.382  19.755  0.00  0.00    +0.000 HD
ENDBRANCH   5   8
BRANCH   5  11
ATOM     11  C   UNL     1       7.440   4.967  17.386  0.00  0.00    +0.000 C 
BRANCH  11  12
ATOM     12  C   UNL     1       6.885   4.663  16.003  0.00  0.00    +0.000 A 
ATOM     13  C   UNL     1       7.506   5.050  14.812  0.00  0.00    +0.000 A 
ATOM     14  C   UNL     1       7.003   4.634  13.575  0.00  0.00    +0.000 A 
ATOM     15  C   UNL     1       5.899   3.789  13.501  0.00  0.00    +0.000 A 
ATOM     16  C   UNL     1       5.219   3.458  14.669  0.00  0.00    +0.000 A 
ATOM     17  C   UNL     1       5.707   3.894  15.909  0.00  0.00    +0.000 A 
BRANCH  15  18
ATOM     18  O   UNL     1       5.573   3.361  12.246  0.00  0.00    +0.000 OA
ATOM     19  C   UNL     1       6.604   2.667  11.549  0.00  0.00    +0.000 C 
ENDBRANCH  15  18
ENDBRANCH  11  12
ENDBRANCH   5  11
ENDBRANCH   1   5
BRANCH   2  20
ATOM     20  C   UNL     1       3.040   5.600  18.769  0.00  0.00    +0.000 C 
BRANCH  20  21
ATOM     21  C   UNL     1       2.732   7.104  18.484  0.00  0.00    +0.000 C 
BRANCH  21  22
ATOM     22  C   UNL     1       1.897   7.849  19.511  0.00  0.00    +0.000 A 
ATOM     23  C   UNL     1       1.514   7.158  20.681  0.00  0.00    +0.000 A 
ATOM     24  C   UNL     1       0.737   7.765  21.665  0.00  0.00    +0.000 A 
ATOM     25  C   UNL     1       0.322   9.079  21.499  0.00  0.00    +0.000 A 
ATOM     26  C   UNL     1       0.664   9.773  20.339  0.00  0.00    +0.000 A 
ATOM     27  C   UNL     1       1.439   9.172  19.337  0.00  0.00    +0.000 A 
BRANCH  27  28
ATOM     28  S   UNL     1       1.739  10.148  17.869  0.00  0.00    +0.000 S 
ATOM     29  H   UNL     1       2.991   9.711  17.660  0.00  0.00    +0.000 HD
ENDBRANCH  27  28
ENDBRANCH  21  22
ENDBRANCH  20  21
BRANCH  20  30
ATOM     30  C   UNL     1       2.374   4.694  17.702  0.00  0.00    +0.000 C 
BRANCH  30  31
ATOM     31  C   UNL     1       1.791   3.310  18.088  0.00  0.00    +0.000 C 
ATOM     32  C   UNL     1       2.776   2.142  18.061  0.00  0.00    +0.000 C 
ATOM     33  C   UNL     1       1.207   3.409  19.507  0.00  0.00    +0.000 C 
ENDBRANCH  30  31
ENDBRANCH  20  30
ENDBRANCH   2  20
TORSDOF 11
ENDMDL
