MODEL 1
REMARK VINA RESULT:      -7.9      0.000      0.000
REMARK  Name = 
REMARK  5 active torsions:
REMARK  status: ('A' for Active; 'I' for Inactive)
REMARK    1  A    between atoms: C_1  and  C_2
REMARK    2  A    between atoms: C_2  and  C_3
REMARK    3  A    between atoms: C_2  and  C_4
REMARK    4  A    between atoms: C_2  and  C_5
REMARK    5  A    between atoms: C_10  and  C_11
REMARK                            x       y       z     vdW  Elec       q    Type
REMARK                         _______ _______ _______ _____ _____    ______ ____
ROOT
ATOM      1  C   UNL     1       0.295  10.625  20.392  0.00  0.00    +0.000 A 
ATOM      2  C   UNL     1       0.590  10.863  19.032  0.00  0.00    +0.000 A 
ATOM      3  C   UNL     1       1.314   9.951  18.248  0.00  0.00    +0.000 A 
ATOM      4  C   UNL     1       1.753   8.763  18.842  0.00  0.00    +0.000 A 
ATOM      5  N   UNL     1       2.490   7.734  18.314  0.00  0.00    +0.000 NA
ATOM      6  C   UNL     1       2.619   6.861  19.294  0.00  0.00    +0.000 A 
ATOM      7  N   UNL     1       1.987   7.294  20.428  0.00  0.00    +0.000 N 
ATOM      8  C   UNL     1       1.437   8.521  20.171  0.00  0.00    +0.000 A 
ATOM      9  C   UNL     1       0.718   9.411  20.970  0.00  0.00    +0.000 A 
ATOM     10  H   UNL     1       1.969   6.780  21.297  0.00  0.00    +0.000 HD
ENDROOT
BRANCH   6  11
ATOM     11  C   UNL     1       3.349   5.567  19.226  0.00  0.00    +0.000 A 
ATOM     12  N   UNL     1       4.684   5.503  19.367  0.00  0.00    +0.000 NA
ATOM     13  N   UNL     1       4.941   4.185  19.263  0.00  0.00    +0.000 N 
ATOM     14  C   UNL     1       3.837   3.409  19.032  0.00  0.00    +0.000 A 
ATOM     15  C   UNL     1       3.687   2.030  18.851  0.00  0.00    +0.000 A 
ATOM     16  C   UNL     1       2.390   1.556  18.623  0.00  0.00    +0.000 A 
ATOM     17  C   UNL     1       1.297   2.423  18.583  0.00  0.00    +0.000 A 
ATOM     18  C   UNL     1       1.471   3.796  18.776  0.00  0.00    +0.000 A 
ATOM     19  C   UNL     1       2.767   4.296  19.003  0.00  0.00    +0.000 A 
ATOM     20  H   UNL     1       5.902   3.873  19.348  0.00  0.00    +0.000 HD
ENDBRANCH   6  11
BRANCH   1  22
ATOM     21  C   UNL     1      -0.790  11.142  22.616  0.00  0.00    +0.000 C 
ATOM     22  C   UNL     1      -0.450  11.693  21.216  0.00  0.00    +0.000 C 
ATOM     23  C   UNL     1      -1.754  12.081  20.486  0.00  0.00    +0.000 C 
ATOM     24  C   UNL     1       0.362  12.992  21.420  0.00  0.00    +0.000 C 
ENDBRANCH   1  22
TORSDOF 2
ENDMDL
MODEL 2
REMARK VINA RESULT:      -7.6      1.301      1.935
REMARK  Name = 
REMARK  5 active torsions:
REMARK  status: ('A' for Active; 'I' for Inactive)
REMARK    1  A    between atoms: C_1  and  C_2
REMARK    2  A    between atoms: C_2  and  C_3
REMARK    3  A    between atoms: C_2  and  C_4
REMARK    4  A    between atoms: C_2  and  C_5
REMARK    5  A    between atoms: C_10  and  C_11
REMARK                            x       y       z     vdW  Elec       q    Type
REMARK                         _______ _______ _______ _____ _____    ______ ____
ROOT
ATOM      1  C   UNL     1      -0.189  11.038  19.272  0.00  0.00    +0.000 A 
ATOM      2  C   UNL     1      -0.018  10.624  20.612  0.00  0.00    +0.000 A 
ATOM      3  C   UNL     1       0.737   9.493  20.960  0.00  0.00    +0.000 A 
ATOM      4  C   UNL     1       1.343   8.756  19.937  0.00  0.00    +0.000 A 
ATOM      5  N   UNL     1       2.099   7.613  20.004  0.00  0.00    +0.000 NA
ATOM      6  C   UNL     1       2.427   7.340  18.756  0.00  0.00    +0.000 A 
ATOM      7  N   UNL     1       1.911   8.270  17.895  0.00  0.00    +0.000 N 
ATOM      8  C   UNL     1       1.196   9.181  18.625  0.00  0.00    +0.000 A 
ATOM      9  C   UNL     1       0.451  10.302  18.253  0.00  0.00    +0.000 A 
ATOM     10  H   UNL     1       2.036   8.245  16.893  0.00  0.00    +0.000 HD
ENDROOT
BRANCH   6  11
ATOM     11  C   UNL     1       3.242   6.185  18.296  0.00  0.00    +0.000 A 
ATOM     12  N   UNL     1       4.507   6.340  17.869  0.00  0.00    +0.000 NA
ATOM     13  N   UNL     1       4.887   5.084  17.569  0.00  0.00    +0.000 N 
ATOM     14  C   UNL     1       3.914   4.138  17.756  0.00  0.00    +0.000 A 
ATOM     15  C   UNL     1       3.907   2.754  17.549  0.00  0.00    +0.000 A 
ATOM     16  C   UNL     1       2.718   2.075  17.841  0.00  0.00    +0.000 A 
ATOM     17  C   UNL     1       1.595   2.750  18.320  0.00  0.00    +0.000 A 
ATOM     18  C   UNL     1       1.630   4.132  18.528  0.00  0.00    +0.000 A 
ATOM     19  C   UNL     1       2.813   4.836  18.238  0.00  0.00    +0.000 A 
ATOM     20  H   UNL     1       5.829   4.933  17.227  0.00  0.00    +0.000 HD
ENDBRANCH   6  11
BRANCH   1  22
ATOM     21  C   UNL     1      -1.927  12.631  20.182  0.00  0.00    +0.000 C 
ATOM     22  C   UNL     1      -1.081  12.252  18.949  0.00  0.00    +0.000 C 
ATOM     23  C   UNL     1      -2.016  11.897  17.773  0.00  0.00    +0.000 C 
ATOM     24  C   UNL     1      -0.284  13.510  18.534  0.00  0.00    +0.000 C 
ENDBRANCH   1  22
TORSDOF 2
ENDMDL
MODEL 3
REMARK VINA RESULT:      -7.6      2.364      7.774
REMARK  Name = 
REMARK  5 active torsions:
REMARK  status: ('A' for Active; 'I' for Inactive)
REMARK    1  A    between atoms: C_1  and  C_2
REMARK    2  A    between atoms: C_2  and  C_3
REMARK    3  A    between atoms: C_2  and  C_4
REMARK    4  A    between atoms: C_2  and  C_5
REMARK    5  A    between atoms: C_10  and  C_11
REMARK                            x       y       z     vdW  Elec       q    Type
REMARK                         _______ _______ _______ _____ _____    ______ ____
ROOT
ATOM      1  C   UNL     1       4.796   5.427  17.373  0.00  0.00    +0.000 A 
ATOM      2  C   UNL     1       4.456   4.759  18.570  0.00  0.00    +0.000 A 
ATOM      3  C   UNL     1       3.552   5.295  19.501  0.00  0.00    +0.000 A 
ATOM      4  C   UNL     1       2.969   6.536  19.224  0.00  0.00    +0.000 A 
ATOM      5  N   UNL     1       2.090   7.281  19.968  0.00  0.00    +0.000 NA
ATOM      6  C   UNL     1       1.853   8.360  19.247  0.00  0.00    +0.000 A 
ATOM      7  N   UNL     1       2.545   8.328  18.068  0.00  0.00    +0.000 N 
ATOM      8  C   UNL     1       3.284   7.176  18.034  0.00  0.00    +0.000 A 
ATOM      9  C   UNL     1       4.177   6.663  17.093  0.00  0.00    +0.000 A 
ATOM     10  H   UNL     1       2.512   9.059  17.371  0.00  0.00    +0.000 HD
ENDROOT
BRANCH   6  11
ATOM     11  C   UNL     1       0.963   9.490  19.626  0.00  0.00    +0.000 A 
ATOM     12  N   UNL     1       0.616  10.440  18.741  0.00  0.00    +0.000 NA
ATOM     13  N   UNL     1      -0.191  11.246  19.457  0.00  0.00    +0.000 N 
ATOM     14  C   UNL     1      -0.352  10.871  20.764  0.00  0.00    +0.000 A 
ATOM     15  C   UNL     1      -1.081  11.439  21.814  0.00  0.00    +0.000 A 
ATOM     16  C   UNL     1      -1.021  10.790  23.053  0.00  0.00    +0.000 A 
ATOM     17  C   UNL     1      -0.270   9.627  23.227  0.00  0.00    +0.000 A 
ATOM     18  C   UNL     1       0.442   9.072  22.160  0.00  0.00    +0.000 A 
ATOM     19  C   UNL     1       0.399   9.710  20.906  0.00  0.00    +0.000 A 
ATOM     20  H   UNL     1      -0.599  12.052  18.997  0.00  0.00    +0.000 HD
ENDBRANCH   6  11
BRANCH   1  22
ATOM     21  C   UNL     1       7.224   4.776  17.104  0.00  0.00    +0.000 C 
ATOM     22  C   UNL     1       5.841   4.815  16.420  0.00  0.00    +0.000 C 
ATOM     23  C   UNL     1       5.927   5.673  15.140  0.00  0.00    +0.000 C 
ATOM     24  C   UNL     1       5.506   3.372  15.980  0.00  0.00    +0.000 C 
ENDBRANCH   1  22
TORSDOF 2
ENDMDL
MODEL 4
REMARK VINA RESULT:      -7.6      2.281      3.219
REMARK  Name = 
REMARK  5 active torsions:
REMARK  status: ('A' for Active; 'I' for Inactive)
REMARK    1  A    between atoms: C_1  and  C_2
REMARK    2  A    between atoms: C_2  and  C_3
REMARK    3  A    between atoms: C_2  and  C_4
REMARK    4  A    between atoms: C_2  and  C_5
REMARK    5  A    between atoms: C_10  and  C_11
REMARK                            x       y       z     vdW  Elec       q    Type
REMARK                         _______ _______ _______ _____ _____    ______ ____
ROOT
ATOM      1  C   UNL     1       0.693  10.103  19.617  0.00  0.00    +0.000 A 
ATOM      2  C   UNL     1       0.707   9.451  20.869  0.00  0.00    +0.000 A 
ATOM      3  C   UNL     1       1.320   8.202  21.061  0.00  0.00    +0.000 A 
ATOM      4  C   UNL     1       1.938   7.589  19.967  0.00  0.00    +0.000 A 
ATOM      5  N   UNL     1       2.574   6.376  19.880  0.00  0.00    +0.000 NA
ATOM      6  C   UNL     1       2.981   6.286  18.629  0.00  0.00    +0.000 A 
ATOM      7  N   UNL     1       2.632   7.399  17.915  0.00  0.00    +0.000 N 
ATOM      8  C   UNL     1       1.946   8.245  18.745  0.00  0.00    +0.000 A 
ATOM      9  C   UNL     1       1.346   9.486  18.529  0.00  0.00    +0.000 A 
ATOM     10  H   UNL     1       2.841   7.533  16.936  0.00  0.00    +0.000 HD
ENDROOT
BRANCH   6  11
ATOM     11  C   UNL     1       3.720   5.144  18.027  0.00  0.00    +0.000 A 
ATOM     12  N   UNL     1       3.624   3.900  18.526  0.00  0.00    +0.000 NA
ATOM     13  N   UNL     1       4.410   3.178  17.705  0.00  0.00    +0.000 N 
ATOM     14  C   UNL     1       5.027   3.908  16.724  0.00  0.00    +0.000 A 
ATOM     15  C   UNL     1       5.914   3.541  15.707  0.00  0.00    +0.000 A 
ATOM     16  C   UNL     1       6.369   4.560  14.862  0.00  0.00    +0.000 A 
ATOM     17  C   UNL     1       5.952   5.881  15.029  0.00  0.00    +0.000 A 
ATOM     18  C   UNL     1       5.057   6.222  16.047  0.00  0.00    +0.000 A 
ATOM     19  C   UNL     1       4.589   5.214  16.911  0.00  0.00    +0.000 A 
ATOM     20  H   UNL     1       4.496   2.182  17.873  0.00  0.00    +0.000 HD
ENDBRANCH   6  11
BRANCH   1  22
ATOM     21  C   UNL     1      -1.199  11.295  18.438  0.00  0.00    +0.000 C 
ATOM     22  C   UNL     1      -0.049  11.444  19.455  0.00  0.00    +0.000 C 
ATOM     23  C   UNL     1       0.943  12.517  18.956  0.00  0.00    +0.000 C 
ATOM     24  C   UNL     1      -0.665  11.970  20.771  0.00  0.00    +0.000 C 
ENDBRANCH   1  22
TORSDOF 2
ENDMDL
MODEL 5
REMARK VINA RESULT:      -7.6      1.834      7.671
REMARK  Name = 
REMARK  5 active torsions:
REMARK  status: ('A' for Active; 'I' for Inactive)
REMARK    1  A    between atoms: C_1  and  C_2
REMARK    2  A    between atoms: C_2  and  C_3
REMARK    3  A    between atoms: C_2  and  C_4
REMARK    4  A    between atoms: C_2  and  C_5
REMARK    5  A    between atoms: C_10  and  C_11
REMARK                            x       y       z     vdW  Elec       q    Type
REMARK                         _______ _______ _______ _____ _____    ______ ____
ROOT
ATOM      1  C   UNL     1       2.578   4.460  19.749  0.00  0.00    +0.000 A 
ATOM      2  C   UNL     1       3.027   4.878  18.477  0.00  0.00    +0.000 A 
ATOM      3  C   UNL     1       2.900   6.203  18.031  0.00  0.00    +0.000 A 
ATOM      4  C   UNL     1       2.309   7.139  18.886  0.00  0.00    +0.000 A 
ATOM      5  N   UNL     1       2.046   8.471  18.686  0.00  0.00    +0.000 NA
ATOM      6  C   UNL     1       1.489   8.887  19.807  0.00  0.00    +0.000 A 
ATOM      7  N   UNL     1       1.392   7.869  20.717  0.00  0.00    +0.000 N 
ATOM      8  C   UNL     1       1.895   6.732  20.146  0.00  0.00    +0.000 A 
ATOM      9  C   UNL     1       2.011   5.422  20.612  0.00  0.00    +0.000 A 
ATOM     10  H   UNL     1       0.990   7.970  21.638  0.00  0.00    +0.000 HD
ENDROOT
BRANCH   6  11
ATOM     11  C   UNL     1       1.010  10.266  20.090  0.00  0.00    +0.000 A 
ATOM     12  N   UNL     1       1.347  11.303  19.305  0.00  0.00    +0.000 NA
ATOM     13  N   UNL     1       0.711  12.342  19.879  0.00  0.00    +0.000 N 
ATOM     14  C   UNL     1       0.008  12.021  21.010  0.00  0.00    +0.000 A 
ATOM     15  C   UNL     1      -0.756  12.799  21.886  0.00  0.00    +0.000 A 
ATOM     16  C   UNL     1      -1.346  12.142  22.971  0.00  0.00    +0.000 A 
ATOM     17  C   UNL     1      -1.179  10.770  23.166  0.00  0.00    +0.000 A 
ATOM     18  C   UNL     1      -0.418  10.011  22.272  0.00  0.00    +0.000 A 
ATOM     19  C   UNL     1       0.187  10.653  21.175  0.00  0.00    +0.000 A 
ATOM     20  H   UNL     1       0.803  13.258  19.456  0.00  0.00    +0.000 HD
ENDBRANCH   6  11
BRANCH   1  22
ATOM     21  C   UNL     1       1.800   2.109  19.243  0.00  0.00    +0.000 C 
ATOM     22  C   UNL     1       2.689   2.978  20.157  0.00  0.00    +0.000 C 
ATOM     23  C   UNL     1       2.230   2.818  21.622  0.00  0.00    +0.000 C 
ATOM     24  C   UNL     1       4.127   2.419  20.066  0.00  0.00    +0.000 C 
ENDBRANCH   1  22
TORSDOF 2
ENDMDL
MODEL 6
REMARK VINA RESULT:      -7.6      2.167      3.269
REMARK  Name = 
REMARK  5 active torsions:
REMARK  status: ('A' for Active; 'I' for Inactive)
REMARK    1  A    between atoms: C_1  and  C_2
REMARK    2  A    between atoms: C_2  and  C_3
REMARK    3  A    between atoms: C_2  and  C_4
REMARK    4  A    between atoms: C_2  and  C_5
REMARK    5  A    between atoms: C_10  and  C_11
REMARK                            x       y       z     vdW  Elec       q    Type
REMARK                         _______ _______ _______ _____ _____    ______ ____
ROOT
ATOM      1  C   UNL     1       0.610  10.545  19.956  0.00  0.00    +0.000 A 
ATOM      2  C   UNL     1       0.647   9.795  21.153  0.00  0.00    +0.000 A 
ATOM      3  C   UNL     1       1.210   8.510  21.219  0.00  0.00    +0.000 A 
ATOM      4  C   UNL     1       1.755   7.961  20.054  0.00  0.00    +0.000 A 
ATOM      5  N   UNL     1       2.332   6.734  19.844  0.00  0.00    +0.000 NA
ATOM      6  C   UNL     1       2.682   6.727  18.573  0.00  0.00    +0.000 A 
ATOM      7  N   UNL     1       2.354   7.908  17.964  0.00  0.00    +0.000 N 
ATOM      8  C   UNL     1       1.742   8.712  18.887  0.00  0.00    +0.000 A 
ATOM      9  C   UNL     1       1.190   9.991  18.796  0.00  0.00    +0.000 A 
ATOM     10  H   UNL     1       2.528   8.110  16.990  0.00  0.00    +0.000 HD
ENDROOT
BRANCH   6  11
ATOM     11  C   UNL     1       3.344   5.608  17.852  0.00  0.00    +0.000 A 
ATOM     12  N   UNL     1       2.708   4.448  17.615  0.00  0.00    +0.000 NA
ATOM     13  N   UNL     1       3.624   3.728  16.939  0.00  0.00    +0.000 N 
ATOM     14  C   UNL     1       4.824   4.362  16.760  0.00  0.00    +0.000 A 
ATOM     15  C   UNL     1       6.010   3.957  16.139  0.00  0.00    +0.000 A 
ATOM     16  C   UNL     1       7.072   4.868  16.140  0.00  0.00    +0.000 A 
ATOM     17  C   UNL     1       6.948   6.126  16.732  0.00  0.00    +0.000 A 
ATOM     18  C   UNL     1       5.750   6.512  17.339  0.00  0.00    +0.000 A 
ATOM     19  C   UNL     1       4.670   5.610  17.353  0.00  0.00    +0.000 A 
ATOM     20  H   UNL     1       3.373   2.795  16.632  0.00  0.00    +0.000 HD
ENDBRANCH   6  11
BRANCH   1  22
ATOM     21  C   UNL     1       0.398  12.733  18.709  0.00  0.00    +0.000 C 
ATOM     22  C   UNL     1      -0.077  11.924  19.933  0.00  0.00    +0.000 C 
ATOM     23  C   UNL     1       0.279  12.691  21.225  0.00  0.00    +0.000 C 
ATOM     24  C   UNL     1      -1.619  11.844  19.861  0.00  0.00    +0.000 C 
ENDBRANCH   1  22
TORSDOF 2
ENDMDL
MODEL 7
REMARK VINA RESULT:      -7.5      1.091      1.107
REMARK  Name = 
REMARK  5 active torsions:
REMARK  status: ('A' for Active; 'I' for Inactive)
REMARK    1  A    between atoms: C_1  and  C_2
REMARK    2  A    between atoms: C_2  and  C_3
REMARK    3  A    between atoms: C_2  and  C_4
REMARK    4  A    between atoms: C_2  and  C_5
REMARK    5  A    between atoms: C_10  and  C_11
REMARK                            x       y       z     vdW  Elec       q    Type
REMARK                         _______ _______ _______ _____ _____    ______ ____
ROOT
ATOM      1  C   UNL     1      -0.139  11.136  20.763  0.00  0.00    +0.000 A 
ATOM      2  C   UNL     1       0.149  11.375  19.401  0.00  0.00    +0.000 A 
ATOM      3  C   UNL     1       0.873  10.466  18.613  0.00  0.00    +0.000 A 
ATOM      4  C   UNL     1       1.319   9.280  19.205  0.00  0.00    +0.000 A 
ATOM      5  N   UNL     1       2.058   8.254  18.673  0.00  0.00    +0.000 NA
ATOM      6  C   UNL     1       2.196   7.381  19.651  0.00  0.00    +0.000 A 
ATOM      7  N   UNL     1       1.568   7.811  20.788  0.00  0.00    +0.000 N 
ATOM      8  C   UNL     1       1.011   9.036  20.535  0.00  0.00    +0.000 A 
ATOM      9  C   UNL     1       0.293   9.922  21.338  0.00  0.00    +0.000 A 
ATOM     10  H   UNL     1       1.555   7.297  21.658  0.00  0.00    +0.000 HD
ENDROOT
BRANCH   6  11
ATOM     11  C   UNL     1       2.930   6.090  19.579  0.00  0.00    +0.000 A 
ATOM     12  N   UNL     1       4.168   6.012  19.060  0.00  0.00    +0.000 NA
ATOM     13  N   UNL     1       4.475   4.707  19.195  0.00  0.00    +0.000 N 
ATOM     14  C   UNL     1       3.482   3.945  19.749  0.00  0.00    +0.000 A 
ATOM     15  C   UNL     1       3.404   2.578  20.036  0.00  0.00    +0.000 A 
ATOM     16  C   UNL     1       2.213   2.115  20.607  0.00  0.00    +0.000 A 
ATOM     17  C   UNL     1       1.154   2.981  20.879  0.00  0.00    +0.000 A 
ATOM     18  C   UNL     1       1.258   4.345  20.592  0.00  0.00    +0.000 A 
ATOM     19  C   UNL     1       2.446   4.833  20.015  0.00  0.00    +0.000 A 
ATOM     20  H   UNL     1       5.385   4.391  18.878  0.00  0.00    +0.000 HD
ENDBRANCH   6  11
BRANCH   1  22
ATOM     21  C   UNL     1      -1.293  11.617  22.960  0.00  0.00    +0.000 C 
ATOM     22  C   UNL     1      -0.883  12.200  21.591  0.00  0.00    +0.000 C 
ATOM     23  C   UNL     1      -2.147  12.648  20.826  0.00  0.00    +0.000 C 
ATOM     24  C   UNL     1      -0.043  13.468  21.865  0.00  0.00    +0.000 C 
ENDBRANCH   1  22
TORSDOF 2
ENDMDL
MODEL 8
REMARK VINA RESULT:      -7.5      1.963      7.759
REMARK  Name = 
REMARK  5 active torsions:
REMARK  status: ('A' for Active; 'I' for Inactive)
REMARK    1  A    between atoms: C_1  and  C_2
REMARK    2  A    between atoms: C_2  and  C_3
REMARK    3  A    between atoms: C_2  and  C_4
REMARK    4  A    between atoms: C_2  and  C_5
REMARK    5  A    between atoms: C_10  and  C_11
REMARK                            x       y       z     vdW  Elec       q    Type
REMARK                         _______ _______ _______ _____ _____    ______ ____
ROOT
ATOM      1  C   UNL     1       3.384   5.403  18.382  0.00  0.00    +0.000 A 
ATOM      2  C   UNL     1       3.477   6.521  17.524  0.00  0.00    +0.000 A 
ATOM      3  C   UNL     1       2.905   7.763  17.841  0.00  0.00    +0.000 A 
ATOM      4  C   UNL     1       2.222   7.892  19.054  0.00  0.00    +0.000 A 
ATOM      5  N   UNL     1       1.560   8.971  19.583  0.00  0.00    +0.000 NA
ATOM      6  C   UNL     1       1.102   8.561  20.749  0.00  0.00    +0.000 A 
ATOM      7  N   UNL     1       1.451   7.259  20.987  0.00  0.00    +0.000 N 
ATOM      8  C   UNL     1       2.156   6.799  19.908  0.00  0.00    +0.000 A 
ATOM      9  C   UNL     1       2.717   5.555  19.616  0.00  0.00    +0.000 A 
ATOM     10  H   UNL     1       1.195   6.747  21.819  0.00  0.00    +0.000 HD
ENDROOT
BRANCH   6  11
ATOM     11  C   UNL     1       0.303   9.366  21.710  0.00  0.00    +0.000 A 
ATOM     12  N   UNL     1       0.249   9.055  23.017  0.00  0.00    +0.000 NA
ATOM     13  N   UNL     1      -0.543  10.016  23.529  0.00  0.00    +0.000 N 
ATOM     14  C   UNL     1      -1.021  10.908  22.607  0.00  0.00    +0.000 A 
ATOM     15  C   UNL     1      -1.867  12.015  22.732  0.00  0.00    +0.000 A 
ATOM     16  C   UNL     1      -2.167  12.720  21.561  0.00  0.00    +0.000 A 
ATOM     17  C   UNL     1      -1.641  12.335  20.327  0.00  0.00    +0.000 A 
ATOM     18  C   UNL     1      -0.791  11.231  20.229  0.00  0.00    +0.000 A 
ATOM     19  C   UNL     1      -0.478  10.504  21.393  0.00  0.00    +0.000 A 
ATOM     20  H   UNL     1      -0.732  10.004  24.525  0.00  0.00    +0.000 HD
ENDBRANCH   6  11
BRANCH   1  22
ATOM     21  C   UNL     1       4.758   3.414  19.120  0.00  0.00    +0.000 C 
ATOM     22  C   UNL     1       3.978   4.049  17.950  0.00  0.00    +0.000 C 
ATOM     23  C   UNL     1       4.933   4.270  16.757  0.00  0.00    +0.000 C 
ATOM     24  C   UNL     1       2.914   3.023  17.498  0.00  0.00    +0.000 C 
ENDBRANCH   1  22
TORSDOF 2
ENDMDL
MODEL 9
REMARK VINA RESULT:      -7.5      1.290      2.125
REMARK  Name = 
REMARK  5 active torsions:
REMARK  status: ('A' for Active; 'I' for Inactive)
REMARK    1  A    between atoms: C_1  and  C_2
REMARK    2  A    between atoms: C_2  and  C_3
REMARK    3  A    between atoms: C_2  and  C_4
REMARK    4  A    between atoms: C_2  and  C_5
REMARK    5  A    between atoms: C_10  and  C_11
REMARK                            x       y       z     vdW  Elec       q    Type
REMARK                         _______ _______ _______ _____ _____    ______ ____
ROOT
ATOM      1  C   UNL     1      -0.285  10.994  19.574  0.00  0.00    +0.000 A 
ATOM      2  C   UNL     1      -0.098  10.484  20.878  0.00  0.00    +0.000 A 
ATOM      3  C   UNL     1       0.675   9.340  21.136  0.00  0.00    +0.000 A 
ATOM      4  C   UNL     1       1.281   8.689  20.057  0.00  0.00    +0.000 A 
ATOM      5  N   UNL     1       2.052   7.555  20.032  0.00  0.00    +0.000 NA
ATOM      6  C   UNL     1       2.373   7.380  18.765  0.00  0.00    +0.000 A 
ATOM      7  N   UNL     1       1.838   8.364  17.980  0.00  0.00    +0.000 N 
ATOM      8  C   UNL     1       1.118   9.209  18.781  0.00  0.00    +0.000 A 
ATOM      9  C   UNL     1       0.356  10.344  18.499  0.00  0.00    +0.000 A 
ATOM     10  H   UNL     1       1.956   8.416  16.978  0.00  0.00    +0.000 HD
ENDROOT
BRANCH   6  11
ATOM     11  C   UNL     1       3.199   6.273  18.214  0.00  0.00    +0.000 A 
ATOM     12  N   UNL     1       4.413   6.497  17.683  0.00  0.00    +0.000 NA
ATOM     13  N   UNL     1       4.824   5.265  17.327  0.00  0.00    +0.000 N 
ATOM     14  C   UNL     1       3.918   4.269  17.579  0.00  0.00    +0.000 A 
ATOM     15  C   UNL     1       3.958   2.891  17.348  0.00  0.00    +0.000 A 
ATOM     16  C   UNL     1       2.834   2.149  17.729  0.00  0.00    +0.000 A 
ATOM     17  C   UNL     1       1.726   2.761  18.316  0.00  0.00    +0.000 A 
ATOM     18  C   UNL     1       1.713   4.140  18.546  0.00  0.00    +0.000 A 
ATOM     19  C   UNL     1       2.831   4.906  18.168  0.00  0.00    +0.000 A 
ATOM     20  H   UNL     1       5.739   5.166  16.901  0.00  0.00    +0.000 HD
ENDBRANCH   6  11
BRANCH   1  22
ATOM     21  C   UNL     1      -0.428  13.316  18.586  0.00  0.00    +0.000 C 
ATOM     22  C   UNL     1      -1.195  12.217  19.350  0.00  0.00    +0.000 C 
ATOM     23  C   UNL     1      -1.654  12.767  20.717  0.00  0.00    +0.000 C 
ATOM     24  C   UNL     1      -2.469  11.896  18.536  0.00  0.00    +0.000 C 
ENDBRANCH   1  22
TORSDOF 2
ENDMDL
