MODEL 1
REMARK VINA RESULT:      -7.9      0.000      0.000
REMARK  Name = 
REMARK  7 active torsions:
REMARK  status: ('A' for Active; 'I' for Inactive)
REMARK    1  A    between atoms: C_1  and  N_2
REMARK    2  A    between atoms: N_2  and  C_16
REMARK    3  A    between atoms: C_3  and  C_5
REMARK    4  A    between atoms: C_9  and  O_10
REMARK    5  A    between atoms: O_10  and  C_11
REMARK    6  A    between atoms: C_11  and  C_12
REMARK    7  A    between atoms: N_20  and  C_21
REMARK                            x       y       z     vdW  Elec       q    Type
REMARK                         _______ _______ _______ _____ _____    ______ ____
ROOT
ATOM      1  C   UNL     1       5.844   5.167  18.096  0.00  0.00    +0.000 A 
ATOM      2  C   UNL     1       6.796   6.060  18.582  0.00  0.00    +0.000 A 
ATOM      3  C   UNL     1       7.575   6.746  17.666  0.00  0.00    +0.000 A 
ATOM      4  N   UNL     1       7.534   6.514  16.344  0.00  0.00    +0.000 NA
ATOM      5  C   UNL     1       6.686   5.563  15.903  0.00  0.00    +0.000 A 
ATOM      6  C   UNL     1       5.804   4.887  16.724  0.00  0.00    +0.000 A 
ENDROOT
BRANCH   1   9
ATOM      7  C   UNL     1       2.934   6.105  18.656  0.00  0.00    +0.000 C 
ATOM      8  N   UNL     1       3.530   4.886  19.223  0.00  0.00    +0.000 N 
ATOM      9  C   UNL     1       4.896   4.429  18.979  0.00  0.00    +0.000 C 
ATOM     10  O   UNL     1       5.255   3.364  19.455  0.00  0.00    +0.000 OA
BRANCH   8  11
ATOM     11  C   UNL     1       2.674   4.019  19.927  0.00  0.00    +0.000 A 
ATOM     12  C   UNL     1       2.407   4.114  21.278  0.00  0.00    +0.000 A 
ATOM     13  C   UNL     1       1.530   3.055  21.560  0.00  0.00    +0.000 A 
ATOM     14  N   UNL     1       1.274   2.312  20.483  0.00  0.00    +0.000 NA
ATOM     15  N   UNL     1       1.958   2.924  19.489  0.00  0.00    +0.000 N 
ATOM     16  C   UNL     1       2.044   2.262  18.210  0.00  0.00    +0.000 C 
ENDBRANCH   8  11
ENDBRANCH   1   9
BRANCH   5  17
ATOM     17  O   UNL     1       6.722   5.215  14.573  0.00  0.00    +0.000 OA
BRANCH  17  18
ATOM     18  C   UNL     1       6.231   3.885  14.321  0.00  0.00    +0.000 C 
BRANCH  18  19
ATOM     19  C   UNL     1       6.218   3.516  12.840  0.00  0.00    +0.000 C 
ATOM     20  F   UNL     1       4.971   3.713  12.334  0.00  0.00    +0.000 F 
ATOM     21  F   UNL     1       7.046   4.341  12.151  0.00  0.00    +0.000 F 
ENDBRANCH  18  19
ENDBRANCH  17  18
ENDBRANCH   5  17
TORSDOF 5
ENDMDL
MODEL 2
REMARK VINA RESULT:      -7.4      0.706      1.360
REMARK  Name = 
REMARK  7 active torsions:
REMARK  status: ('A' for Active; 'I' for Inactive)
REMARK    1  A    between atoms: C_1  and  N_2
REMARK    2  A    between atoms: N_2  and  C_16
REMARK    3  A    between atoms: C_3  and  C_5
REMARK    4  A    between atoms: C_9  and  O_10
REMARK    5  A    between atoms: O_10  and  C_11
REMARK    6  A    between atoms: C_11  and  C_12
REMARK    7  A    between atoms: N_20  and  C_21
REMARK                            x       y       z     vdW  Elec       q    Type
REMARK                         _______ _______ _______ _____ _____    ______ ____
ROOT
ATOM      1  C   UNL     1       5.684   4.960  17.748  0.00  0.00    +0.000 A 
ATOM      2  C   UNL     1       6.597   5.796  18.387  0.00  0.00    +0.000 A 
ATOM      3  C   UNL     1       7.495   6.499  17.603  0.00  0.00    +0.000 A 
ATOM      4  N   UNL     1       7.602   6.334  16.274  0.00  0.00    +0.000 NA
ATOM      5  C   UNL     1       6.785   5.434  15.690  0.00  0.00    +0.000 A 
ATOM      6  C   UNL     1       5.796   4.748  16.369  0.00  0.00    +0.000 A 
ENDROOT
BRANCH   1   9
ATOM      7  C   UNL     1       2.721   5.886  17.888  0.00  0.00    +0.000 C 
ATOM      8  N   UNL     1       3.232   4.663  18.525  0.00  0.00    +0.000 N 
ATOM      9  C   UNL     1       4.620   4.211  18.477  0.00  0.00    +0.000 C 
ATOM     10  O   UNL     1       4.910   3.142  18.991  0.00  0.00    +0.000 OA
BRANCH   8  11
ATOM     11  C   UNL     1       2.286   3.788  19.089  0.00  0.00    +0.000 A 
ATOM     12  C   UNL     1       1.421   2.997  18.359  0.00  0.00    +0.000 A 
ATOM     13  C   UNL     1       0.653   2.308  19.311  0.00  0.00    +0.000 A 
ATOM     14  N   UNL     1       0.973   2.649  20.559  0.00  0.00    +0.000 NA
ATOM     15  N   UNL     1       1.985   3.533  20.411  0.00  0.00    +0.000 N 
ATOM     16  C   UNL     1       2.447   4.245  21.579  0.00  0.00    +0.000 C 
ENDBRANCH   8  11
ENDBRANCH   1   9
BRANCH   5  17
ATOM     17  O   UNL     1       6.965   5.151  14.357  0.00  0.00    +0.000 OA
BRANCH  17  18
ATOM     18  C   UNL     1       6.272   3.963  13.930  0.00  0.00    +0.000 C 
BRANCH  18  19
ATOM     19  C   UNL     1       6.548   3.591  12.475  0.00  0.00    +0.000 C 
ATOM     20  F   UNL     1       5.379   3.585  11.779  0.00  0.00    +0.000 F 
ATOM     21  F   UNL     1       7.334   4.535  11.898  0.00  0.00    +0.000 F 
ENDBRANCH  18  19
ENDBRANCH  17  18
ENDBRANCH   5  17
TORSDOF 5
ENDMDL
MODEL 3
REMARK VINA RESULT:      -7.4      2.910      3.795
REMARK  Name = 
REMARK  7 active torsions:
REMARK  status: ('A' for Active; 'I' for Inactive)
REMARK    1  A    between atoms: C_1  and  N_2
REMARK    2  A    between atoms: N_2  and  C_16
REMARK    3  A    between atoms: C_3  and  C_5
REMARK    4  A    between atoms: C_9  and  O_10
REMARK    5  A    between atoms: O_10  and  C_11
REMARK    6  A    between atoms: C_11  and  C_12
REMARK    7  A    between atoms: N_20  and  C_21
REMARK                            x       y       z     vdW  Elec       q    Type
REMARK                         _______ _______ _______ _____ _____    ______ ____
ROOT
ATOM      1  C   UNL     1       5.669   4.541  17.454  0.00  0.00    +0.000 A 
ATOM      2  C   UNL     1       5.709   3.864  16.238  0.00  0.00    +0.000 A 
ATOM      3  C   UNL     1       6.588   4.317  15.269  0.00  0.00    +0.000 A 
ATOM      4  N   UNL     1       7.321   5.435  15.403  0.00  0.00    +0.000 NA
ATOM      5  C   UNL     1       7.182   6.139  16.544  0.00  0.00    +0.000 A 
ATOM      6  C   UNL     1       6.400   5.725  17.605  0.00  0.00    +0.000 A 
ENDROOT
BRANCH   1   9
ATOM      7  C   UNL     1       2.717   5.432  17.844  0.00  0.00    +0.000 C 
ATOM      8  N   UNL     1       3.433   4.531  18.760  0.00  0.00    +0.000 N 
ATOM      9  C   UNL     1       4.820   4.103  18.600  0.00  0.00    +0.000 C 
ATOM     10  O   UNL     1       5.284   3.299  19.393  0.00  0.00    +0.000 OA
BRANCH   8  11
ATOM     11  C   UNL     1       2.680   3.917  19.777  0.00  0.00    +0.000 A 
ATOM     12  C   UNL     1       2.565   4.402  21.064  0.00  0.00    +0.000 A 
ATOM     13  C   UNL     1       1.747   3.482  21.738  0.00  0.00    +0.000 A 
ATOM     14  N   UNL     1       1.386   2.463  20.958  0.00  0.00    +0.000 NA
ATOM     15  N   UNL     1       1.940   2.753  19.758  0.00  0.00    +0.000 N 
ATOM     16  C   UNL     1       1.894   1.748  18.724  0.00  0.00    +0.000 C 
ENDBRANCH   8  11
ENDBRANCH   1   9
BRANCH   5  17
ATOM     17  O   UNL     1       7.819   7.353  16.649  0.00  0.00    +0.000 OA
BRANCH  17  18
ATOM     18  C   UNL     1       7.908   7.832  18.004  0.00  0.00    +0.000 C 
BRANCH  18  19
ATOM     19  C   UNL     1       8.613   9.181  18.124  0.00  0.00    +0.000 C 
ATOM     20  F   UNL     1       7.730  10.180  17.855  0.00  0.00    +0.000 F 
ATOM     21  F   UNL     1       9.032   9.371  19.400  0.00  0.00    +0.000 F 
ENDBRANCH  18  19
ENDBRANCH  17  18
ENDBRANCH   5  17
TORSDOF 5
ENDMDL
MODEL 4
REMARK VINA RESULT:      -7.4      3.281      4.125
REMARK  Name = 
REMARK  7 active torsions:
REMARK  status: ('A' for Active; 'I' for Inactive)
REMARK    1  A    between atoms: C_1  and  N_2
REMARK    2  A    between atoms: N_2  and  C_16
REMARK    3  A    between atoms: C_3  and  C_5
REMARK    4  A    between atoms: C_9  and  O_10
REMARK    5  A    between atoms: O_10  and  C_11
REMARK    6  A    between atoms: C_11  and  C_12
REMARK    7  A    between atoms: N_20  and  C_21
REMARK                            x       y       z     vdW  Elec       q    Type
REMARK                         _______ _______ _______ _____ _____    ______ ____
ROOT
ATOM      1  C   UNL     1       5.781   4.985  18.154  0.00  0.00    +0.000 A 
ATOM      2  C   UNL     1       5.804   4.817  16.772  0.00  0.00    +0.000 A 
ATOM      3  C   UNL     1       6.781   5.483  16.050  0.00  0.00    +0.000 A 
ATOM      4  N   UNL     1       7.634   6.362  16.601  0.00  0.00    +0.000 NA
ATOM      5  C   UNL     1       7.520   6.597  17.924  0.00  0.00    +0.000 A 
ATOM      6  C   UNL     1       6.640   5.920  18.746  0.00  0.00    +0.000 A 
ENDROOT
BRANCH   1   9
ATOM      7  C   UNL     1       2.902   5.986  18.757  0.00  0.00    +0.000 C 
ATOM      8  N   UNL     1       3.476   4.750  19.310  0.00  0.00    +0.000 N 
ATOM      9  C   UNL     1       4.828   4.263  19.045  0.00  0.00    +0.000 C 
ATOM     10  O   UNL     1       5.169   3.188  19.511  0.00  0.00    +0.000 OA
BRANCH   8  11
ATOM     11  C   UNL     1       2.610   3.899  20.021  0.00  0.00    +0.000 A 
ATOM     12  C   UNL     1       2.391   3.969  21.382  0.00  0.00    +0.000 A 
ATOM     13  C   UNL     1       1.483   2.938  21.666  0.00  0.00    +0.000 A 
ATOM     14  N   UNL     1       1.162   2.235  20.580  0.00  0.00    +0.000 NA
ATOM     15  N   UNL     1       1.837   2.846  19.579  0.00  0.00    +0.000 N 
ATOM     16  C   UNL     1       1.854   2.215  18.282  0.00  0.00    +0.000 C 
ENDBRANCH   8  11
ENDBRANCH   1   9
BRANCH   5  17
ATOM     17  O   UNL     1       8.291   7.588  18.484  0.00  0.00    +0.000 OA
BRANCH  17  18
ATOM     18  C   UNL     1       8.211   8.838  17.774  0.00  0.00    +0.000 C 
BRANCH  18  19
ATOM     19  C   UNL     1       8.636  10.039  18.615  0.00  0.00    +0.000 C 
ATOM     20  F   UNL     1       9.600   9.658  19.496  0.00  0.00    +0.000 F 
ATOM     21  F   UNL     1       9.196  10.986  17.819  0.00  0.00    +0.000 F 
ENDBRANCH  18  19
ENDBRANCH  17  18
ENDBRANCH   5  17
TORSDOF 5
ENDMDL
MODEL 5
REMARK VINA RESULT:      -7.1      1.616      1.908
REMARK  Name = 
REMARK  7 active torsions:
REMARK  status: ('A' for Active; 'I' for Inactive)
REMARK    1  A    between atoms: C_1  and  N_2
REMARK    2  A    between atoms: N_2  and  C_16
REMARK    3  A    between atoms: C_3  and  C_5
REMARK    4  A    between atoms: C_9  and  O_10
REMARK    5  A    between atoms: O_10  and  C_11
REMARK    6  A    between atoms: C_11  and  C_12
REMARK    7  A    between atoms: N_20  and  C_21
REMARK                            x       y       z     vdW  Elec       q    Type
REMARK                         _______ _______ _______ _____ _____    ______ ____
ROOT
ATOM      1  C   UNL     1       4.555   5.346  17.292  0.00  0.00    +0.000 A 
ATOM      2  C   UNL     1       4.487   6.663  16.844  0.00  0.00    +0.000 A 
ATOM      3  C   UNL     1       5.018   6.956  15.600  0.00  0.00    +0.000 A 
ATOM      4  N   UNL     1       5.690   6.063  14.855  0.00  0.00    +0.000 NA
ATOM      5  C   UNL     1       5.843   4.822  15.359  0.00  0.00    +0.000 A 
ATOM      6  C   UNL     1       5.276   4.404  16.547  0.00  0.00    +0.000 A 
ENDROOT
BRANCH   1   9
ATOM      7  C   UNL     1       2.363   3.151  17.480  0.00  0.00    +0.000 C 
ATOM      8  N   UNL     1       2.926   3.854  18.643  0.00  0.00    +0.000 N 
ATOM      9  C   UNL     1       3.952   4.892  18.578  0.00  0.00    +0.000 C 
ATOM     10  O   UNL     1       4.387   5.357  19.620  0.00  0.00    +0.000 OA
BRANCH   8  11
ATOM     11  C   UNL     1       2.560   3.385  19.917  0.00  0.00    +0.000 A 
ATOM     12  C   UNL     1       1.422   3.774  20.595  0.00  0.00    +0.000 A 
ATOM     13  C   UNL     1       1.462   3.084  21.817  0.00  0.00    +0.000 A 
ATOM     14  N   UNL     1       2.556   2.331  21.935  0.00  0.00    +0.000 NA
ATOM     15  N   UNL     1       3.205   2.504  20.761  0.00  0.00    +0.000 N 
ATOM     16  C   UNL     1       4.536   1.964  20.630  0.00  0.00    +0.000 C 
ENDBRANCH   8  11
ENDBRANCH   1   9
BRANCH   5  17
ATOM     17  O   UNL     1       6.639   3.930  14.677  0.00  0.00    +0.000 OA
BRANCH  17  18
ATOM     18  C   UNL     1       6.695   4.187  13.261  0.00  0.00    +0.000 C 
BRANCH  18  19
ATOM     19  C   UNL     1       6.068   3.078  12.420  0.00  0.00    +0.000 C 
ATOM     20  F   UNL     1       4.990   3.569  11.753  0.00  0.00    +0.000 F 
ATOM     21  F   UNL     1       6.948   2.662  11.474  0.00  0.00    +0.000 F 
ENDBRANCH  18  19
ENDBRANCH  17  18
ENDBRANCH   5  17
TORSDOF 5
ENDMDL
MODEL 6
REMARK VINA RESULT:      -7.0      1.362      1.920
REMARK  Name = 
REMARK  7 active torsions:
REMARK  status: ('A' for Active; 'I' for Inactive)
REMARK    1  A    between atoms: C_1  and  N_2
REMARK    2  A    between atoms: N_2  and  C_16
REMARK    3  A    between atoms: C_3  and  C_5
REMARK    4  A    between atoms: C_9  and  O_10
REMARK    5  A    between atoms: O_10  and  C_11
REMARK    6  A    between atoms: C_11  and  C_12
REMARK    7  A    between atoms: N_20  and  C_21
REMARK                            x       y       z     vdW  Elec       q    Type
REMARK                         _______ _______ _______ _____ _____    ______ ____
ROOT
ATOM      1  C   UNL     1       5.109   5.393  17.200  0.00  0.00    +0.000 A 
ATOM      2  C   UNL     1       5.994   6.140  17.974  0.00  0.00    +0.000 A 
ATOM      3  C   UNL     1       7.147   6.613  17.370  0.00  0.00    +0.000 A 
ATOM      4  N   UNL     1       7.505   6.298  16.114  0.00  0.00    +0.000 NA
ATOM      5  C   UNL     1       6.689   5.479  15.421  0.00  0.00    +0.000 A 
ATOM      6  C   UNL     1       5.475   5.026  15.899  0.00  0.00    +0.000 A 
ENDROOT
BRANCH   1   9
ATOM      7  C   UNL     1       4.802   2.802  18.889  0.00  0.00    +0.000 C 
ATOM      8  N   UNL     1       3.681   3.676  18.512  0.00  0.00    +0.000 N 
ATOM      9  C   UNL     1       3.801   4.895  17.715  0.00  0.00    +0.000 C 
ATOM     10  O   UNL     1       2.804   5.573  17.523  0.00  0.00    +0.000 OA
BRANCH   8  11
ATOM     11  C   UNL     1       2.429   3.401  19.090  0.00  0.00    +0.000 A 
ATOM     12  C   UNL     1       1.500   2.527  18.561  0.00  0.00    +0.000 A 
ATOM     13  C   UNL     1       0.406   2.571  19.438  0.00  0.00    +0.000 A 
ATOM     14  N   UNL     1       0.596   3.429  20.439  0.00  0.00    +0.000 NA
ATOM     15  N   UNL     1       1.842   3.911  20.230  0.00  0.00    +0.000 N 
ATOM     16  C   UNL     1       2.294   5.014  21.042  0.00  0.00    +0.000 C 
ENDBRANCH   8  11
ENDBRANCH   1   9
BRANCH   5  17
ATOM     17  O   UNL     1       7.098   5.036  14.185  0.00  0.00    +0.000 OA
BRANCH  17  18
ATOM     18  C   UNL     1       6.308   3.942  13.683  0.00  0.00    +0.000 C 
BRANCH  18  19
ATOM     19  C   UNL     1       6.649   3.558  12.246  0.00  0.00    +0.000 C 
ATOM     20  F   UNL     1       5.501   3.387  11.537  0.00  0.00    +0.000 F 
ATOM     21  F   UNL     1       7.324   4.571  11.645  0.00  0.00    +0.000 F 
ENDBRANCH  18  19
ENDBRANCH  17  18
ENDBRANCH   5  17
TORSDOF 5
ENDMDL
MODEL 7
REMARK VINA RESULT:      -6.9      1.293      1.588
REMARK  Name = 
REMARK  7 active torsions:
REMARK  status: ('A' for Active; 'I' for Inactive)
REMARK    1  A    between atoms: C_1  and  N_2
REMARK    2  A    between atoms: N_2  and  C_16
REMARK    3  A    between atoms: C_3  and  C_5
REMARK    4  A    between atoms: C_9  and  O_10
REMARK    5  A    between atoms: O_10  and  C_11
REMARK    6  A    between atoms: C_11  and  C_12
REMARK    7  A    between atoms: N_20  and  C_21
REMARK                            x       y       z     vdW  Elec       q    Type
REMARK                         _______ _______ _______ _____ _____    ______ ____
ROOT
ATOM      1  C   UNL     1       5.275   5.502  17.205  0.00  0.00    +0.000 A 
ATOM      2  C   UNL     1       6.244   6.303  17.806  0.00  0.00    +0.000 A 
ATOM      3  C   UNL     1       7.376   6.616  17.074  0.00  0.00    +0.000 A 
ATOM      4  N   UNL     1       7.637   6.100  15.861  0.00  0.00    +0.000 NA
ATOM      5  C   UNL     1       6.740   5.236  15.346  0.00  0.00    +0.000 A 
ATOM      6  C   UNL     1       5.539   4.929  15.955  0.00  0.00    +0.000 A 
ENDROOT
BRANCH   1   9
ATOM      7  C   UNL     1       4.966   3.245  19.318  0.00  0.00    +0.000 C 
ATOM      8  N   UNL     1       3.860   4.098  18.857  0.00  0.00    +0.000 N 
ATOM      9  C   UNL     1       3.981   5.160  17.862  0.00  0.00    +0.000 C 
ATOM     10  O   UNL     1       3.002   5.844  17.609  0.00  0.00    +0.000 OA
BRANCH   8  11
ATOM     11  C   UNL     1       2.634   3.983  19.535  0.00  0.00    +0.000 A 
ATOM     12  C   UNL     1       2.278   4.735  20.637  0.00  0.00    +0.000 A 
ATOM     13  C   UNL     1       0.997   4.287  20.996  0.00  0.00    +0.000 A 
ATOM     14  N   UNL     1       0.569   3.300  20.209  0.00  0.00    +0.000 NA
ATOM     15  N   UNL     1       1.565   3.140  19.308  0.00  0.00    +0.000 N 
ATOM     16  C   UNL     1       1.501   2.012  18.411  0.00  0.00    +0.000 C 
ENDBRANCH   8  11
ENDBRANCH   1   9
BRANCH   5  17
ATOM     17  O   UNL     1       7.047   4.594  14.169  0.00  0.00    +0.000 OA
BRANCH  17  18
ATOM     18  C   UNL     1       6.045   3.644  13.762  0.00  0.00    +0.000 C 
BRANCH  18  19
ATOM     19  C   UNL     1       5.867   3.563  12.248  0.00  0.00    +0.000 C 
ATOM     20  F   UNL     1       6.439   2.419  11.785  0.00  0.00    +0.000 F 
ATOM     21  F   UNL     1       4.548   3.485  11.941  0.00  0.00    +0.000 F 
ENDBRANCH  18  19
ENDBRANCH  17  18
ENDBRANCH   5  17
TORSDOF 5
ENDMDL
MODEL 8
REMARK VINA RESULT:      -6.8      3.269      4.264
REMARK  Name = 
REMARK  7 active torsions:
REMARK  status: ('A' for Active; 'I' for Inactive)
REMARK    1  A    between atoms: C_1  and  N_2
REMARK    2  A    between atoms: N_2  and  C_16
REMARK    3  A    between atoms: C_3  and  C_5
REMARK    4  A    between atoms: C_9  and  O_10
REMARK    5  A    between atoms: O_10  and  C_11
REMARK    6  A    between atoms: C_11  and  C_12
REMARK    7  A    between atoms: N_20  and  C_21
REMARK                            x       y       z     vdW  Elec       q    Type
REMARK                         _______ _______ _______ _____ _____    ______ ____
ROOT
ATOM      1  C   UNL     1       5.571   4.919  17.473  0.00  0.00    +0.000 A 
ATOM      2  C   UNL     1       5.760   4.812  16.097  0.00  0.00    +0.000 A 
ATOM      3  C   UNL     1       6.833   5.480  15.532  0.00  0.00    +0.000 A 
ATOM      4  N   UNL     1       7.631   6.310  16.224  0.00  0.00    +0.000 NA
ATOM      5  C   UNL     1       7.361   6.489  17.532  0.00  0.00    +0.000 A 
ATOM      6  C   UNL     1       6.372   5.802  18.208  0.00  0.00    +0.000 A 
ENDROOT
BRANCH   1   9
ATOM      7  C   UNL     1       2.747   6.099  18.016  0.00  0.00    +0.000 C 
ATOM      8  N   UNL     1       3.177   4.759  18.445  0.00  0.00    +0.000 N 
ATOM      9  C   UNL     1       4.499   4.187  18.206  0.00  0.00    +0.000 C 
ATOM     10  O   UNL     1       4.715   3.037  18.555  0.00  0.00    +0.000 OA
BRANCH   8  11
ATOM     11  C   UNL     1       2.194   3.912  18.989  0.00  0.00    +0.000 A 
ATOM     12  C   UNL     1       1.299   3.174  18.241  0.00  0.00    +0.000 A 
ATOM     13  C   UNL     1       0.501   2.497  19.176  0.00  0.00    +0.000 A 
ATOM     14  N   UNL     1       0.831   2.797  20.432  0.00  0.00    +0.000 NA
ATOM     15  N   UNL     1       1.881   3.641  20.305  0.00  0.00    +0.000 N 
ATOM     16  C   UNL     1       2.369   4.307  21.488  0.00  0.00    +0.000 C 
ENDBRANCH   8  11
ENDBRANCH   1   9
BRANCH   5  17
ATOM     17  O   UNL     1       8.079   7.433  18.228  0.00  0.00    +0.000 OA
BRANCH  17  18
ATOM     18  C   UNL     1       7.789   8.783  17.819  0.00  0.00    +0.000 C 
BRANCH  18  19
ATOM     19  C   UNL     1       8.878   9.780  18.207  0.00  0.00    +0.000 C 
ATOM     20  F   UNL     1       8.461  11.042  17.919  0.00  0.00    +0.000 F 
ATOM     21  F   UNL     1       9.084   9.740  19.548  0.00  0.00    +0.000 F 
ENDBRANCH  18  19
ENDBRANCH  17  18
ENDBRANCH   5  17
TORSDOF 5
ENDMDL
MODEL 9
REMARK VINA RESULT:      -6.8      1.781      2.122
REMARK  Name = 
REMARK  7 active torsions:
REMARK  status: ('A' for Active; 'I' for Inactive)
REMARK    1  A    between atoms: C_1  and  N_2
REMARK    2  A    between atoms: N_2  and  C_16
REMARK    3  A    between atoms: C_3  and  C_5
REMARK    4  A    between atoms: C_9  and  O_10
REMARK    5  A    between atoms: O_10  and  C_11
REMARK    6  A    between atoms: C_11  and  C_12
REMARK    7  A    between atoms: N_20  and  C_21
REMARK                            x       y       z     vdW  Elec       q    Type
REMARK                         _______ _______ _______ _____ _____    ______ ____
ROOT
ATOM      1  C   UNL     1       4.893   5.075  16.985  0.00  0.00    +0.000 A 
ATOM      2  C   UNL     1       4.958   6.399  16.557  0.00  0.00    +0.000 A 
ATOM      3  C   UNL     1       5.357   6.644  15.254  0.00  0.00    +0.000 A 
ATOM      4  N   UNL     1       5.786   5.682  14.421  0.00  0.00    +0.000 NA
ATOM      5  C   UNL     1       5.823   4.420  14.893  0.00  0.00    +0.000 A 
ATOM      6  C   UNL     1       5.365   4.059  16.145  0.00  0.00    +0.000 A 
ENDROOT
BRANCH   1   9
ATOM      7  C   UNL     1       1.986   4.139  17.560  0.00  0.00    +0.000 C 
ATOM      8  N   UNL     1       3.037   4.239  18.585  0.00  0.00    +0.000 N 
ATOM      9  C   UNL     1       4.407   4.682  18.339  0.00  0.00    +0.000 C 
ATOM     10  O   UNL     1       5.208   4.660  19.260  0.00  0.00    +0.000 OA
BRANCH   8  11
ATOM     11  C   UNL     1       2.742   3.726  19.861  0.00  0.00    +0.000 A 
ATOM     12  C   UNL     1       2.953   2.417  20.243  0.00  0.00    +0.000 A 
ATOM     13  C   UNL     1       2.508   2.341  21.572  0.00  0.00    +0.000 A 
ATOM     14  N   UNL     1       2.016   3.501  22.007  0.00  0.00    +0.000 NA
ATOM     15  N   UNL     1       2.187   4.344  20.963  0.00  0.00    +0.000 N 
ATOM     16  C   UNL     1       1.587   5.654  21.037  0.00  0.00    +0.000 C 
ENDBRANCH   8  11
ENDBRANCH   1   9
BRANCH   5  17
ATOM     17  O   UNL     1       6.382   3.440  14.106  0.00  0.00    +0.000 OA
BRANCH  17  18
ATOM     18  C   UNL     1       6.240   3.695  12.696  0.00  0.00    +0.000 C 
BRANCH  18  19
ATOM     19  C   UNL     1       5.088   2.926  12.055  0.00  0.00    +0.000 C 
ATOM     20  F   UNL     1       4.412   3.746  11.206  0.00  0.00    +0.000 F 
ATOM     21  F   UNL     1       5.574   1.909  11.300  0.00  0.00    +0.000 F 
ENDBRANCH  18  19
ENDBRANCH  17  18
ENDBRANCH   5  17
TORSDOF 5
ENDMDL
