MODEL 1
REMARK VINA RESULT:      -8.8      0.000      0.000
REMARK  Name = 
REMARK  9 active torsions:
REMARK  status: ('A' for Active; 'I' for Inactive)
REMARK    1  A    between atoms: C_1  and  C_2
REMARK    2  A    between atoms: C_5  and  S_6
REMARK    3  A    between atoms: S_6  and  N_9
REMARK    4  A    between atoms: N_9  and  C_10
REMARK    5  A    between atoms: N_9  and  C_22
REMARK    6  A    between atoms: C_10  and  C_11
REMARK    7  A    between atoms: N_13  and  C_14
REMARK    8  A    between atoms: C_14  and  C_15
REMARK    9  A    between atoms: C_27  and  C_28
REMARK                            x       y       z     vdW  Elec       q    Type
REMARK                         _______ _______ _______ _____ _____    ______ ____
ROOT
ATOM      1  N   UNL     1       3.811   5.171  19.252  0.00  0.00    +0.000 N 
ENDROOT
BRANCH   1   2
ATOM      2  C   UNL     1       2.801   4.328  19.791  0.00  0.00    +0.000 A 
ATOM      3  N   UNL     1       2.968   4.108  21.117  0.00  0.00    +0.000 NA
ATOM      4  C   UNL     1       2.061   3.322  21.736  0.00  0.00    +0.000 A 
ATOM      5  C   UNL     1       0.980   2.746  21.101  0.00  0.00    +0.000 A 
ATOM      6  C   UNL     1       0.813   2.997  19.746  0.00  0.00    +0.000 A 
ATOM      7  C   UNL     1       1.733   3.802  19.054  0.00  0.00    +0.000 A 
ATOM      8  C   UNL     1       1.462   4.097  17.606  0.00  0.00    +0.000 C 
ENDBRANCH   1   2
BRANCH   1   9
ATOM      9  S   UNL     1       5.345   4.498  19.044  0.00  0.00    +0.000 S 
ATOM     10  O   UNL     1       5.247   3.098  19.407  0.00  0.00    +0.000 OA
ATOM     11  O   UNL     1       6.339   5.335  19.688  0.00  0.00    +0.000 OA
BRANCH   9  16
ATOM     12  C   UNL     1       6.822   4.168  13.175  0.00  0.00    +0.000 C 
ATOM     13  C   UNL     1       6.415   4.447  14.591  0.00  0.00    +0.000 A 
ATOM     14  C   UNL     1       5.081   4.320  14.992  0.00  0.00    +0.000 A 
ATOM     15  C   UNL     1       4.735   4.407  16.343  0.00  0.00    +0.000 A 
ATOM     16  C   UNL     1       5.731   4.585  17.304  0.00  0.00    +0.000 A 
ATOM     17  C   UNL     1       7.037   4.854  16.898  0.00  0.00    +0.000 A 
ATOM     18  C   UNL     1       7.387   4.755  15.549  0.00  0.00    +0.000 A 
ENDBRANCH   9  16
ENDBRANCH   1   9
BRANCH   1  19
ATOM     19  C   UNL     1       3.583   6.632  19.404  0.00  0.00    +0.000 C 
BRANCH  19  20
ATOM     20  C   UNL     1       3.024   7.580  18.358  0.00  0.00    +0.000 C 
ATOM     21  O   UNL     1       3.378   7.499  17.181  0.00  0.00    +0.000 OA
ATOM     22  N   UNL     1       1.998   8.413  18.738  0.00  0.00    +0.000 N 
ATOM     23  H   UNL     1       1.531   8.195  19.610  0.00  0.00    +0.000 HD
BRANCH  22  24
ATOM     24  C   UNL     1       1.221   9.183  17.773  0.00  0.00    +0.000 C 
BRANCH  24  25
ATOM     25  C   UNL     1       0.118  10.086  18.297  0.00  0.00    +0.000 A 
ATOM     26  C   UNL     1       0.271  10.990  19.355  0.00  0.00    +0.000 A 
ATOM     27  C   UNL     1      -0.819  11.727  19.840  0.00  0.00    +0.000 A 
ATOM     28  C   UNL     1      -2.068  11.604  19.239  0.00  0.00    +0.000 A 
ATOM     29 CL   UNL     1      -3.415  12.479  19.858  0.00  0.00    +0.000 Cl
ATOM     30  C   UNL     1      -2.233  10.765  18.143  0.00  0.00    +0.000 A 
ATOM     31  C   UNL     1      -1.148  10.013  17.677  0.00  0.00    +0.000 A 
ENDBRANCH  24  25
ENDBRANCH  22  24
ENDBRANCH  19  20
ENDBRANCH   1  19
TORSDOF 7
ENDMDL
MODEL 2
REMARK VINA RESULT:      -8.4      0.995      1.588
REMARK  Name = 
REMARK  9 active torsions:
REMARK  status: ('A' for Active; 'I' for Inactive)
REMARK    1  A    between atoms: C_1  and  C_2
REMARK    2  A    between atoms: C_5  and  S_6
REMARK    3  A    between atoms: S_6  and  N_9
REMARK    4  A    between atoms: N_9  and  C_10
REMARK    5  A    between atoms: N_9  and  C_22
REMARK    6  A    between atoms: C_10  and  C_11
REMARK    7  A    between atoms: N_13  and  C_14
REMARK    8  A    between atoms: C_14  and  C_15
REMARK    9  A    between atoms: C_27  and  C_28
REMARK                            x       y       z     vdW  Elec       q    Type
REMARK                         _______ _______ _______ _____ _____    ______ ____
ROOT
ATOM      1  N   UNL     1       3.473   4.831  18.490  0.00  0.00    +0.000 N 
ENDROOT
BRANCH   1   2
ATOM      2  C   UNL     1       2.794   4.005  19.429  0.00  0.00    +0.000 A 
ATOM      3  N   UNL     1       2.718   4.577  20.655  0.00  0.00    +0.000 NA
ATOM      4  C   UNL     1       2.090   3.882  21.627  0.00  0.00    +0.000 A 
ATOM      5  C   UNL     1       1.517   2.640  21.439  0.00  0.00    +0.000 A 
ATOM      6  C   UNL     1       1.587   2.078  20.172  0.00  0.00    +0.000 A 
ATOM      7  C   UNL     1       2.237   2.757  19.129  0.00  0.00    +0.000 A 
ATOM      8  C   UNL     1       2.220   2.132  17.763  0.00  0.00    +0.000 C 
ENDBRANCH   1   2
BRANCH   1   9
ATOM      9  S   UNL     1       5.157   4.882  18.586  0.00  0.00    +0.000 S 
ATOM     10  O   UNL     1       5.569   3.759  19.404  0.00  0.00    +0.000 OA
ATOM     11  O   UNL     1       5.587   6.220  18.942  0.00  0.00    +0.000 OA
BRANCH   9  16
ATOM     12  C   UNL     1       7.018   4.551  12.828  0.00  0.00    +0.000 C 
ATOM     13  C   UNL     1       6.652   4.453  14.279  0.00  0.00    +0.000 A 
ATOM     14  C   UNL     1       7.503   4.957  15.268  0.00  0.00    +0.000 A 
ATOM     15  C   UNL     1       7.082   5.024  16.599  0.00  0.00    +0.000 A 
ATOM     16  C   UNL     1       5.790   4.620  16.939  0.00  0.00    +0.000 A 
ATOM     17  C   UNL     1       4.994   3.987  15.985  0.00  0.00    +0.000 A 
ATOM     18  C   UNL     1       5.409   3.930  14.652  0.00  0.00    +0.000 A 
ENDBRANCH   9  16
ENDBRANCH   1   9
BRANCH   1  19
ATOM     19  C   UNL     1       2.664   5.921  17.885  0.00  0.00    +0.000 C 
BRANCH  19  20
ATOM     20  C   UNL     1       2.372   7.282  18.491  0.00  0.00    +0.000 C 
ATOM     21  O   UNL     1       2.474   7.467  19.705  0.00  0.00    +0.000 OA
ATOM     22  N   UNL     1       2.153   8.330  17.628  0.00  0.00    +0.000 N 
ATOM     23  H   UNL     1       2.416   8.186  16.660  0.00  0.00    +0.000 HD
BRANCH  22  24
ATOM     24  C   UNL     1       2.109   9.716  18.078  0.00  0.00    +0.000 C 
BRANCH  24  25
ATOM     25  C   UNL     1       0.770  10.289  18.509  0.00  0.00    +0.000 A 
ATOM     26  C   UNL     1      -0.463   9.921  17.955  0.00  0.00    +0.000 A 
ATOM     27  C   UNL     1      -1.649  10.559  18.345  0.00  0.00    +0.000 A 
ATOM     28  C   UNL     1      -1.623  11.542  19.330  0.00  0.00    +0.000 A 
ATOM     29 CL   UNL     1      -3.072  12.353  19.781  0.00  0.00    +0.000 Cl
ATOM     30  C   UNL     1      -0.422  11.879  19.945  0.00  0.00    +0.000 A 
ATOM     31  C   UNL     1       0.764  11.256  19.536  0.00  0.00    +0.000 A 
ENDBRANCH  24  25
ENDBRANCH  22  24
ENDBRANCH  19  20
ENDBRANCH   1  19
TORSDOF 7
ENDMDL
MODEL 3
REMARK VINA RESULT:      -8.3      1.031      1.373
REMARK  Name = 
REMARK  9 active torsions:
REMARK  status: ('A' for Active; 'I' for Inactive)
REMARK    1  A    between atoms: C_1  and  C_2
REMARK    2  A    between atoms: C_5  and  S_6
REMARK    3  A    between atoms: S_6  and  N_9
REMARK    4  A    between atoms: N_9  and  C_10
REMARK    5  A    between atoms: N_9  and  C_22
REMARK    6  A    between atoms: C_10  and  C_11
REMARK    7  A    between atoms: N_13  and  C_14
REMARK    8  A    between atoms: C_14  and  C_15
REMARK    9  A    between atoms: C_27  and  C_28
REMARK                            x       y       z     vdW  Elec       q    Type
REMARK                         _______ _______ _______ _____ _____    ______ ____
ROOT
ATOM      1  N   UNL     1       3.510   4.965  18.449  0.00  0.00    +0.000 N 
ENDROOT
BRANCH   1   2
ATOM      2  C   UNL     1       2.791   4.125  19.344  0.00  0.00    +0.000 A 
ATOM      3  N   UNL     1       2.697   4.657  20.586  0.00  0.00    +0.000 NA
ATOM      4  C   UNL     1       2.030   3.945  21.519  0.00  0.00    +0.000 A 
ATOM      5  C   UNL     1       1.434   2.724  21.275  0.00  0.00    +0.000 A 
ATOM      6  C   UNL     1       1.522   2.202  19.992  0.00  0.00    +0.000 A 
ATOM      7  C   UNL     1       2.212   2.901  18.988  0.00  0.00    +0.000 A 
ATOM      8  C   UNL     1       2.215   2.322  17.602  0.00  0.00    +0.000 C 
ENDBRANCH   1   2
BRANCH   1   9
ATOM      9  S   UNL     1       5.195   4.927  18.546  0.00  0.00    +0.000 S 
ATOM     10  O   UNL     1       5.547   3.777  19.354  0.00  0.00    +0.000 OA
ATOM     11  O   UNL     1       5.694   6.238  18.913  0.00  0.00    +0.000 OA
BRANCH   9  16
ATOM     12  C   UNL     1       7.014   4.534  12.778  0.00  0.00    +0.000 C 
ATOM     13  C   UNL     1       6.656   4.451  14.232  0.00  0.00    +0.000 A 
ATOM     14  C   UNL     1       7.519   4.953  15.212  0.00  0.00    +0.000 A 
ATOM     15  C   UNL     1       7.107   5.034  16.545  0.00  0.00    +0.000 A 
ATOM     16  C   UNL     1       5.814   4.647  16.896  0.00  0.00    +0.000 A 
ATOM     17  C   UNL     1       5.005   4.015  15.952  0.00  0.00    +0.000 A 
ATOM     18  C   UNL     1       5.410   3.944  14.617  0.00  0.00    +0.000 A 
ENDBRANCH   9  16
ENDBRANCH   1   9
BRANCH   1  19
ATOM     19  C   UNL     1       2.757   6.124  17.905  0.00  0.00    +0.000 C 
BRANCH  19  20
ATOM     20  C   UNL     1       2.311   7.360  18.667  0.00  0.00    +0.000 C 
ATOM     21  O   UNL     1       2.535   7.471  19.874  0.00  0.00    +0.000 OA
ATOM     22  N   UNL     1       1.803   8.409  17.938  0.00  0.00    +0.000 N 
ATOM     23  H   UNL     1       1.960   8.388  16.938  0.00  0.00    +0.000 HD
BRANCH  22  24
ATOM     24  C   UNL     1       1.574   9.726  18.521  0.00  0.00    +0.000 C 
BRANCH  24  25
ATOM     25  C   UNL     1       0.174  10.310  18.450  0.00  0.00    +0.000 A 
ATOM     26  C   UNL     1      -0.241  11.455  19.142  0.00  0.00    +0.000 A 
ATOM     27  C   UNL     1      -1.575  11.883  19.095  0.00  0.00    +0.000 A 
ATOM     28  C   UNL     1      -2.502  11.198  18.315  0.00  0.00    +0.000 A 
ATOM     29 CL   UNL     1      -4.148  11.700  18.288  0.00  0.00    +0.000 Cl
ATOM     30  C   UNL     1      -2.102  10.099  17.564  0.00  0.00    +0.000 A 
ATOM     31  C   UNL     1      -0.774   9.660  17.632  0.00  0.00    +0.000 A 
ENDBRANCH  24  25
ENDBRANCH  22  24
ENDBRANCH  19  20
ENDBRANCH   1  19
TORSDOF 7
ENDMDL
MODEL 4
REMARK VINA RESULT:      -8.1      1.087      1.163
REMARK  Name = 
REMARK  9 active torsions:
REMARK  status: ('A' for Active; 'I' for Inactive)
REMARK    1  A    between atoms: C_1  and  C_2
REMARK    2  A    between atoms: C_5  and  S_6
REMARK    3  A    between atoms: S_6  and  N_9
REMARK    4  A    between atoms: N_9  and  C_10
REMARK    5  A    between atoms: N_9  and  C_22
REMARK    6  A    between atoms: C_10  and  C_11
REMARK    7  A    between atoms: N_13  and  C_14
REMARK    8  A    between atoms: C_14  and  C_15
REMARK    9  A    between atoms: C_27  and  C_28
REMARK                            x       y       z     vdW  Elec       q    Type
REMARK                         _______ _______ _______ _____ _____    ______ ____
ROOT
ATOM      1  N   UNL     1       3.443   4.977  18.370  0.00  0.00    +0.000 N 
ENDROOT
BRANCH   1   2
ATOM      2  C   UNL     1       2.820   4.156  19.351  0.00  0.00    +0.000 A 
ATOM      3  N   UNL     1       2.715   4.779  20.550  0.00  0.00    +0.000 NA
ATOM      4  C   UNL     1       2.135   4.093  21.558  0.00  0.00    +0.000 A 
ATOM      5  C   UNL     1       1.638   2.811  21.431  0.00  0.00    +0.000 A 
ATOM      6  C   UNL     1       1.736   2.195  20.191  0.00  0.00    +0.000 A 
ATOM      7  C   UNL     1       2.338   2.864  19.112  0.00  0.00    +0.000 A 
ATOM      8  C   UNL     1       2.353   2.176  17.777  0.00  0.00    +0.000 C 
ENDBRANCH   1   2
BRANCH   1   9
ATOM      9  S   UNL     1       5.129   4.957  18.309  0.00  0.00    +0.000 S 
ATOM     10  O   UNL     1       5.565   3.756  18.993  0.00  0.00    +0.000 OA
ATOM     11  O   UNL     1       5.649   6.245  18.725  0.00  0.00    +0.000 OA
BRANCH   9  16
ATOM     12  C   UNL     1       6.952   3.867  12.632  0.00  0.00    +0.000 C 
ATOM     13  C   UNL     1       6.439   4.319  13.967  0.00  0.00    +0.000 A 
ATOM     14  C   UNL     1       5.109   4.092  14.337  0.00  0.00    +0.000 A 
ATOM     15  C   UNL     1       4.682   4.353  15.643  0.00  0.00    +0.000 A 
ATOM     16  C   UNL     1       5.596   4.809  16.593  0.00  0.00    +0.000 A 
ATOM     17  C   UNL     1       6.882   5.170  16.192  0.00  0.00    +0.000 A 
ATOM     18  C   UNL     1       7.314   4.898  14.892  0.00  0.00    +0.000 A 
ENDBRANCH   9  16
ENDBRANCH   1   9
BRANCH   1  19
ATOM     19  C   UNL     1       2.628   6.113  17.866  0.00  0.00    +0.000 C 
BRANCH  19  20
ATOM     20  C   UNL     1       2.645   7.543  18.377  0.00  0.00    +0.000 C 
ATOM     21  O   UNL     1       3.260   8.422  17.769  0.00  0.00    +0.000 OA
ATOM     22  N   UNL     1       1.826   7.851  19.437  0.00  0.00    +0.000 N 
ATOM     23  H   UNL     1       1.105   7.177  19.668  0.00  0.00    +0.000 HD
BRANCH  22  24
ATOM     24  C   UNL     1       1.571   9.225  19.853  0.00  0.00    +0.000 C 
BRANCH  24  25
ATOM     25  C   UNL     1       0.308   9.904  19.354  0.00  0.00    +0.000 A 
ATOM     26  C   UNL     1      -0.441  10.825  20.098  0.00  0.00    +0.000 A 
ATOM     27  C   UNL     1      -1.646  11.344  19.602  0.00  0.00    +0.000 A 
ATOM     28  C   UNL     1      -2.092  10.985  18.333  0.00  0.00    +0.000 A 
ATOM     29 CL   UNL     1      -3.589  11.592  17.740  0.00  0.00    +0.000 Cl
ATOM     30  C   UNL     1      -1.333  10.127  17.546  0.00  0.00    +0.000 A 
ATOM     31  C   UNL     1      -0.142   9.592  18.054  0.00  0.00    +0.000 A 
ENDBRANCH  24  25
ENDBRANCH  22  24
ENDBRANCH  19  20
ENDBRANCH   1  19
TORSDOF 7
ENDMDL
MODEL 5
REMARK VINA RESULT:      -8.1      2.326      3.076
REMARK  Name = 
REMARK  9 active torsions:
REMARK  status: ('A' for Active; 'I' for Inactive)
REMARK    1  A    between atoms: C_1  and  C_2
REMARK    2  A    between atoms: C_5  and  S_6
REMARK    3  A    between atoms: S_6  and  N_9
REMARK    4  A    between atoms: N_9  and  C_10
REMARK    5  A    between atoms: N_9  and  C_22
REMARK    6  A    between atoms: C_10  and  C_11
REMARK    7  A    between atoms: N_13  and  C_14
REMARK    8  A    between atoms: C_14  and  C_15
REMARK    9  A    between atoms: C_27  and  C_28
REMARK                            x       y       z     vdW  Elec       q    Type
REMARK                         _______ _______ _______ _____ _____    ______ ____
ROOT
ATOM      1  N   UNL     1       3.632   5.244  18.948  0.00  0.00    +0.000 N 
ENDROOT
BRANCH   1   2
ATOM      2  C   UNL     1       2.699   4.382  19.588  0.00  0.00    +0.000 A 
ATOM      3  N   UNL     1       2.932   4.268  20.918  0.00  0.00    +0.000 NA
ATOM      4  C   UNL     1       2.103   3.475  21.630  0.00  0.00    +0.000 A 
ATOM      5  C   UNL     1       1.035   2.792  21.085  0.00  0.00    +0.000 A 
ATOM      6  C   UNL     1       0.798   2.934  19.724  0.00  0.00    +0.000 A 
ATOM      7  C   UNL     1       1.637   3.742  18.939  0.00  0.00    +0.000 A 
ATOM      8  C   UNL     1       1.290   3.915  17.487  0.00  0.00    +0.000 C 
ENDBRANCH   1   2
BRANCH   1   9
ATOM      9  S   UNL     1       5.042   4.538  18.346  0.00  0.00    +0.000 S 
ATOM     10  O   UNL     1       4.730   4.024  17.027  0.00  0.00    +0.000 OA
ATOM     11  O   UNL     1       5.610   3.652  19.342  0.00  0.00    +0.000 OA
BRANCH   9  16
ATOM     12  C   UNL     1       8.757   9.321  18.087  0.00  0.00    +0.000 C 
ATOM     13  C   UNL     1       7.968   8.047  18.021  0.00  0.00    +0.000 A 
ATOM     14  C   UNL     1       8.235   6.992  18.900  0.00  0.00    +0.000 A 
ATOM     15  C   UNL     1       7.387   5.882  18.954  0.00  0.00    +0.000 A 
ATOM     16  C   UNL     1       6.246   5.842  18.153  0.00  0.00    +0.000 A 
ATOM     17  C   UNL     1       6.055   6.820  17.178  0.00  0.00    +0.000 A 
ATOM     18  C   UNL     1       6.894   7.936  17.131  0.00  0.00    +0.000 A 
ENDBRANCH   9  16
ENDBRANCH   1   9
BRANCH   1  19
ATOM     19  C   UNL     1       3.537   6.681  19.310  0.00  0.00    +0.000 C 
BRANCH  19  20
ATOM     20  C   UNL     1       2.302   7.562  19.227  0.00  0.00    +0.000 C 
ATOM     21  O   UNL     1       1.562   7.703  20.203  0.00  0.00    +0.000 OA
ATOM     22  N   UNL     1       2.133   8.316  18.091  0.00  0.00    +0.000 N 
ATOM     23  H   UNL     1       2.937   8.413  17.483  0.00  0.00    +0.000 HD
BRANCH  22  24
ATOM     24  C   UNL     1       1.133   9.373  17.997  0.00  0.00    +0.000 C 
BRANCH  24  25
ATOM     25  C   UNL     1       1.442  10.714  18.639  0.00  0.00    +0.000 A 
ATOM     26  C   UNL     1       0.940  11.132  19.878  0.00  0.00    +0.000 A 
ATOM     27  C   UNL     1       1.200  12.422  20.365  0.00  0.00    +0.000 A 
ATOM     28  C   UNL     1       2.007  13.293  19.640  0.00  0.00    +0.000 A 
ATOM     29 CL   UNL     1       2.295  14.888  20.218  0.00  0.00    +0.000 Cl
ATOM     30  C   UNL     1       2.575  12.879  18.440  0.00  0.00    +0.000 A 
ATOM     31  C   UNL     1       2.293  11.600  17.946  0.00  0.00    +0.000 A 
ENDBRANCH  24  25
ENDBRANCH  22  24
ENDBRANCH  19  20
ENDBRANCH   1  19
TORSDOF 7
ENDMDL
MODEL 6
REMARK VINA RESULT:      -8.1      1.308      1.493
REMARK  Name = 
REMARK  9 active torsions:
REMARK  status: ('A' for Active; 'I' for Inactive)
REMARK    1  A    between atoms: C_1  and  C_2
REMARK    2  A    between atoms: C_5  and  S_6
REMARK    3  A    between atoms: S_6  and  N_9
REMARK    4  A    between atoms: N_9  and  C_10
REMARK    5  A    between atoms: N_9  and  C_22
REMARK    6  A    between atoms: C_10  and  C_11
REMARK    7  A    between atoms: N_13  and  C_14
REMARK    8  A    between atoms: C_14  and  C_15
REMARK    9  A    between atoms: C_27  and  C_28
REMARK                            x       y       z     vdW  Elec       q    Type
REMARK                         _______ _______ _______ _____ _____    ______ ____
ROOT
ATOM      1  N   UNL     1       3.888   5.134  19.220  0.00  0.00    +0.000 N 
ENDROOT
BRANCH   1   2
ATOM      2  C   UNL     1       2.861   4.328  19.784  0.00  0.00    +0.000 A 
ATOM      3  N   UNL     1       3.009   4.167  21.121  0.00  0.00    +0.000 NA
ATOM      4  C   UNL     1       2.086   3.420  21.764  0.00  0.00    +0.000 A 
ATOM      5  C   UNL     1       1.005   2.828  21.142  0.00  0.00    +0.000 A 
ATOM      6  C   UNL     1       0.857   3.020  19.775  0.00  0.00    +0.000 A 
ATOM      7  C   UNL     1       1.795   3.782  19.059  0.00  0.00    +0.000 A 
ATOM      8  C   UNL     1       1.545   4.014  17.596  0.00  0.00    +0.000 C 
ENDBRANCH   1   2
BRANCH   1   9
ATOM      9  S   UNL     1       5.392   4.407  18.979  0.00  0.00    +0.000 S 
ATOM     10  O   UNL     1       5.238   3.000  19.293  0.00  0.00    +0.000 OA
ATOM     11  O   UNL     1       6.422   5.179  19.645  0.00  0.00    +0.000 OA
BRANCH   9  16
ATOM     12  C   UNL     1       6.920   4.255  13.116  0.00  0.00    +0.000 C 
ATOM     13  C   UNL     1       6.479   4.484  14.531  0.00  0.00    +0.000 A 
ATOM     14  C   UNL     1       5.165   4.207  14.925  0.00  0.00    +0.000 A 
ATOM     15  C   UNL     1       4.806   4.253  16.276  0.00  0.00    +0.000 A 
ATOM     16  C   UNL     1       5.772   4.540  17.241  0.00  0.00    +0.000 A 
ATOM     17  C   UNL     1       7.042   4.954  16.841  0.00  0.00    +0.000 A 
ATOM     18  C   UNL     1       7.406   4.898  15.493  0.00  0.00    +0.000 A 
ENDBRANCH   9  16
ENDBRANCH   1   9
BRANCH   1  19
ATOM     19  C   UNL     1       3.715   6.602  19.374  0.00  0.00    +0.000 C 
BRANCH  19  20
ATOM     20  C   UNL     1       2.409   7.375  19.323  0.00  0.00    +0.000 C 
ATOM     21  O   UNL     1       1.692   7.336  18.320  0.00  0.00    +0.000 OA
ATOM     22  N   UNL     1       1.980   7.980  20.480  0.00  0.00    +0.000 N 
ATOM     23  H   UNL     1       2.433   7.693  21.340  0.00  0.00    +0.000 HD
BRANCH  22  24
ATOM     24  C   UNL     1       0.639   8.535  20.621  0.00  0.00    +0.000 C 
BRANCH  24  25
ATOM     25  C   UNL     1       0.407   9.972  20.190  0.00  0.00    +0.000 A 
ATOM     26  C   UNL     1       1.072  10.596  19.126  0.00  0.00    +0.000 A 
ATOM     27  C   UNL     1       0.867  11.954  18.844  0.00  0.00    +0.000 A 
ATOM     28  C   UNL     1      -0.042  12.695  19.593  0.00  0.00    +0.000 A 
ATOM     29 CL   UNL     1      -0.264  14.371  19.272  0.00  0.00    +0.000 Cl
ATOM     30  C   UNL     1      -0.766  12.084  20.610  0.00  0.00    +0.000 A 
ATOM     31  C   UNL     1      -0.542  10.733  20.905  0.00  0.00    +0.000 A 
ENDBRANCH  24  25
ENDBRANCH  22  24
ENDBRANCH  19  20
ENDBRANCH   1  19
TORSDOF 7
ENDMDL
MODEL 7
REMARK VINA RESULT:      -8.1      3.345      7.599
REMARK  Name = 
REMARK  9 active torsions:
REMARK  status: ('A' for Active; 'I' for Inactive)
REMARK    1  A    between atoms: C_1  and  C_2
REMARK    2  A    between atoms: C_5  and  S_6
REMARK    3  A    between atoms: S_6  and  N_9
REMARK    4  A    between atoms: N_9  and  C_10
REMARK    5  A    between atoms: N_9  and  C_22
REMARK    6  A    between atoms: C_10  and  C_11
REMARK    7  A    between atoms: N_13  and  C_14
REMARK    8  A    between atoms: C_14  and  C_15
REMARK    9  A    between atoms: C_27  and  C_28
REMARK                            x       y       z     vdW  Elec       q    Type
REMARK                         _______ _______ _______ _____ _____    ______ ____
ROOT
ATOM      1  N   UNL     1       3.497   5.533  19.091  0.00  0.00    +0.000 N 
ENDROOT
BRANCH   1   2
ATOM      2  C   UNL     1       2.985   4.207  19.030  0.00  0.00    +0.000 A 
ATOM      3  N   UNL     1       3.286   3.593  17.860  0.00  0.00    +0.000 NA
ATOM      4  C   UNL     1       2.851   2.325  17.694  0.00  0.00    +0.000 A 
ATOM      5  C   UNL     1       2.136   1.625  18.645  0.00  0.00    +0.000 A 
ATOM      6  C   UNL     1       1.853   2.263  19.845  0.00  0.00    +0.000 A 
ATOM      7  C   UNL     1       2.276   3.584  20.064  0.00  0.00    +0.000 A 
ATOM      8  C   UNL     1       2.003   4.198  21.407  0.00  0.00    +0.000 C 
ENDBRANCH   1   2
BRANCH   1   9
ATOM      9  S   UNL     1       2.710   6.704  18.165  0.00  0.00    +0.000 S 
ATOM     10  O   UNL     1       1.627   6.039  17.469  0.00  0.00    +0.000 OA
ATOM     11  O   UNL     1       3.684   7.466  17.408  0.00  0.00    +0.000 OA
BRANCH   9  16
ATOM     12  C   UNL     1      -0.312  10.471  21.829  0.00  0.00    +0.000 C 
ATOM     13  C   UNL     1       0.606   9.630  20.991  0.00  0.00    +0.000 A 
ATOM     14  C   UNL     1       1.135   8.434  21.489  0.00  0.00    +0.000 A 
ATOM     15  C   UNL     1       1.842   7.568  20.650  0.00  0.00    +0.000 A 
ATOM     16  C   UNL     1       1.991   7.880  19.298  0.00  0.00    +0.000 A 
ATOM     17  C   UNL     1       1.591   9.133  18.834  0.00  0.00    +0.000 A 
ATOM     18  C   UNL     1       0.873   9.994  19.667  0.00  0.00    +0.000 A 
ENDBRANCH   9  16
ENDBRANCH   1   9
BRANCH   1  19
ATOM     19  C   UNL     1       4.913   5.659  19.521  0.00  0.00    +0.000 C 
BRANCH  19  20
ATOM     20  C   UNL     1       6.149   5.420  18.671  0.00  0.00    +0.000 C 
ATOM     21  O   UNL     1       6.951   4.530  18.961  0.00  0.00    +0.000 OA
ATOM     22  N   UNL     1       6.253   6.114  17.489  0.00  0.00    +0.000 N 
ATOM     23  H   UNL     1       5.412   6.567  17.150  0.00  0.00    +0.000 HD
BRANCH  22  24
ATOM     24  C   UNL     1       7.255   5.793  16.480  0.00  0.00    +0.000 C 
BRANCH  24  25
ATOM     25  C   UNL     1       6.809   5.042  15.238  0.00  0.00    +0.000 A 
ATOM     26  C   UNL     1       7.508   5.037  14.024  0.00  0.00    +0.000 A 
ATOM     27  C   UNL     1       6.987   4.390  12.893  0.00  0.00    +0.000 A 
ATOM     28  C   UNL     1       5.782   3.700  12.976  0.00  0.00    +0.000 A 
ATOM     29 CL   UNL     1       5.123   2.940  11.580  0.00  0.00    +0.000 Cl
ATOM     30  C   UNL     1       5.101   3.632  14.187  0.00  0.00    +0.000 A 
ATOM     31  C   UNL     1       5.613   4.298  15.307  0.00  0.00    +0.000 A 
ENDBRANCH  24  25
ENDBRANCH  22  24
ENDBRANCH  19  20
ENDBRANCH   1  19
TORSDOF 7
ENDMDL
MODEL 8
REMARK VINA RESULT:      -8.0      1.422      1.884
REMARK  Name = 
REMARK  9 active torsions:
REMARK  status: ('A' for Active; 'I' for Inactive)
REMARK    1  A    between atoms: C_1  and  C_2
REMARK    2  A    between atoms: C_5  and  S_6
REMARK    3  A    between atoms: S_6  and  N_9
REMARK    4  A    between atoms: N_9  and  C_10
REMARK    5  A    between atoms: N_9  and  C_22
REMARK    6  A    between atoms: C_10  and  C_11
REMARK    7  A    between atoms: N_13  and  C_14
REMARK    8  A    between atoms: C_14  and  C_15
REMARK    9  A    between atoms: C_27  and  C_28
REMARK                            x       y       z     vdW  Elec       q    Type
REMARK                         _______ _______ _______ _____ _____    ______ ____
ROOT
ATOM      1  N   UNL     1       3.626   4.646  18.436  0.00  0.00    +0.000 N 
ENDROOT
BRANCH   1   2
ATOM      2  C   UNL     1       2.838   3.981  19.416  0.00  0.00    +0.000 A 
ATOM      3  N   UNL     1       2.774   4.673  20.579  0.00  0.00    +0.000 NA
ATOM      4  C   UNL     1       2.047   4.136  21.582  0.00  0.00    +0.000 A 
ATOM      5  C   UNL     1       1.364   2.940  21.485  0.00  0.00    +0.000 A 
ATOM      6  C   UNL     1       1.426   2.254  20.280  0.00  0.00    +0.000 A 
ATOM      7  C   UNL     1       2.175   2.766  19.208  0.00  0.00    +0.000 A 
ATOM      8  C   UNL     1       2.147   2.017  17.907  0.00  0.00    +0.000 C 
ENDBRANCH   1   2
BRANCH   1   9
ATOM      9  S   UNL     1       5.303   4.547  18.601  0.00  0.00    +0.000 S 
ATOM     10  O   UNL     1       5.593   3.275  19.232  0.00  0.00    +0.000 OA
ATOM     11  O   UNL     1       5.809   5.770  19.193  0.00  0.00    +0.000 OA
BRANCH   9  16
ATOM     12  C   UNL     1       7.251   4.917  12.874  0.00  0.00    +0.000 C 
ATOM     13  C   UNL     1       6.901   4.671  14.311  0.00  0.00    +0.000 A 
ATOM     14  C   UNL     1       7.605   5.309  15.339  0.00  0.00    +0.000 A 
ATOM     15  C   UNL     1       7.165   5.217  16.662  0.00  0.00    +0.000 A 
ATOM     16  C   UNL     1       5.997   4.514  16.958  0.00  0.00    +0.000 A 
ATOM     17  C   UNL     1       5.377   3.761  15.961  0.00  0.00    +0.000 A 
ATOM     18  C   UNL     1       5.807   3.862  14.636  0.00  0.00    +0.000 A 
ENDBRANCH   9  16
ENDBRANCH   1   9
BRANCH   1  19
ATOM     19  C   UNL     1       2.949   5.744  17.699  0.00  0.00    +0.000 C 
BRANCH  19  20
ATOM     20  C   UNL     1       3.010   7.227  18.017  0.00  0.00    +0.000 C 
ATOM     21  O   UNL     1       3.996   7.898  17.706  0.00  0.00    +0.000 OA
ATOM     22  N   UNL     1       1.872   7.821  18.509  0.00  0.00    +0.000 N 
ATOM     23  H   UNL     1       1.009   7.297  18.421  0.00  0.00    +0.000 HD
BRANCH  22  24
ATOM     24  C   UNL     1       1.731   9.268  18.617  0.00  0.00    +0.000 C 
BRANCH  24  25
ATOM     25  C   UNL     1       0.840   9.822  19.715  0.00  0.00    +0.000 A 
ATOM     26  C   UNL     1       0.227  11.081  19.675  0.00  0.00    +0.000 A 
ATOM     27  C   UNL     1      -0.512  11.560  20.767  0.00  0.00    +0.000 A 
ATOM     28  C   UNL     1      -0.687  10.764  21.895  0.00  0.00    +0.000 A 
ATOM     29 CL   UNL     1      -1.560  11.366  23.251  0.00  0.00    +0.000 Cl
ATOM     30  C   UNL     1      -0.147   9.483  21.933  0.00  0.00    +0.000 A 
ATOM     31  C   UNL     1       0.609   9.018  20.851  0.00  0.00    +0.000 A 
ENDBRANCH  24  25
ENDBRANCH  22  24
ENDBRANCH  19  20
ENDBRANCH   1  19
TORSDOF 7
ENDMDL
MODEL 9
REMARK VINA RESULT:      -8.0      0.737      1.594
REMARK  Name = 
REMARK  9 active torsions:
REMARK  status: ('A' for Active; 'I' for Inactive)
REMARK    1  A    between atoms: C_1  and  C_2
REMARK    2  A    between atoms: C_5  and  S_6
REMARK    3  A    between atoms: S_6  and  N_9
REMARK    4  A    between atoms: N_9  and  C_10
REMARK    5  A    between atoms: N_9  and  C_22
REMARK    6  A    between atoms: C_10  and  C_11
REMARK    7  A    between atoms: N_13  and  C_14
REMARK    8  A    between atoms: C_14  and  C_15
REMARK    9  A    between atoms: C_27  and  C_28
REMARK                            x       y       z     vdW  Elec       q    Type
REMARK                         _______ _______ _______ _____ _____    ______ ____
ROOT
ATOM      1  N   UNL     1       3.508   5.154  19.053  0.00  0.00    +0.000 N 
ENDROOT
BRANCH   1   2
ATOM      2  C   UNL     1       2.503   4.161  19.220  0.00  0.00    +0.000 A 
ATOM      3  N   UNL     1       2.095   3.638  18.039  0.00  0.00    +0.000 NA
ATOM      4  C   UNL     1       1.143   2.681  18.078  0.00  0.00    +0.000 A 
ATOM      5  C   UNL     1       0.579   2.203  19.243  0.00  0.00    +0.000 A 
ATOM      6  C   UNL     1       1.022   2.736  20.446  0.00  0.00    +0.000 A 
ATOM      7  C   UNL     1       2.004   3.739  20.459  0.00  0.00    +0.000 A 
ATOM      8  C   UNL     1       2.495   4.228  21.792  0.00  0.00    +0.000 C 
ENDBRANCH   1   2
BRANCH   1   9
ATOM      9  S   UNL     1       5.109   4.625  18.999  0.00  0.00    +0.000 S 
ATOM     10  O   UNL     1       5.111   3.235  19.410  0.00  0.00    +0.000 OA
ATOM     11  O   UNL     1       5.962   5.574  19.687  0.00  0.00    +0.000 OA
BRANCH   9  16
ATOM     12  C   UNL     1       6.922   4.203  13.231  0.00  0.00    +0.000 C 
ATOM     13  C   UNL     1       6.475   4.510  14.629  0.00  0.00    +0.000 A 
ATOM     14  C   UNL     1       5.116   4.638  14.934  0.00  0.00    +0.000 A 
ATOM     15  C   UNL     1       4.695   4.747  16.263  0.00  0.00    +0.000 A 
ATOM     16  C   UNL     1       5.632   4.692  17.294  0.00  0.00    +0.000 A 
ATOM     17  C   UNL     1       6.993   4.708  16.988  0.00  0.00    +0.000 A 
ATOM     18  C   UNL     1       7.415   4.587  15.662  0.00  0.00    +0.000 A 
ENDBRANCH   9  16
ENDBRANCH   1   9
BRANCH   1  19
ATOM     19  C   UNL     1       3.124   6.534  19.447  0.00  0.00    +0.000 C 
BRANCH  19  20
ATOM     20  C   UNL     1       2.730   7.670  18.520  0.00  0.00    +0.000 C 
ATOM     21  O   UNL     1       3.220   7.761  17.392  0.00  0.00    +0.000 OA
ATOM     22  N   UNL     1       1.699   8.488  18.916  0.00  0.00    +0.000 N 
ATOM     23  H   UNL     1       1.123   8.158  19.682  0.00  0.00    +0.000 HD
BRANCH  22  24
ATOM     24  C   UNL     1       1.072   9.447  18.015  0.00  0.00    +0.000 C 
BRANCH  24  25
ATOM     25  C   UNL     1      -0.130  10.227  18.517  0.00  0.00    +0.000 A 
ATOM     26  C   UNL     1      -1.337  10.356  17.819  0.00  0.00    +0.000 A 
ATOM     27  C   UNL     1      -2.372  11.166  18.309  0.00  0.00    +0.000 A 
ATOM     28  C   UNL     1      -2.230  11.819  19.530  0.00  0.00    +0.000 A 
ATOM     29 CL   UNL     1      -3.484  12.844  20.112  0.00  0.00    +0.000 Cl
ATOM     30  C   UNL     1      -1.069  11.654  20.276  0.00  0.00    +0.000 A 
ATOM     31  C   UNL     1      -0.029  10.863  19.773  0.00  0.00    +0.000 A 
ENDBRANCH  24  25
ENDBRANCH  22  24
ENDBRANCH  19  20
ENDBRANCH   1  19
TORSDOF 7
ENDMDL
