MODEL 1
REMARK VINA RESULT:      -8.4      0.000      0.000
REMARK  Name = 
REMARK  7 active torsions:
REMARK  status: ('A' for Active; 'I' for Inactive)
REMARK    1  A    between atoms: C_3  and  C_4
REMARK    2  A    between atoms: C_4  and  C_5
REMARK    3  A    between atoms: C_5  and  C_6
REMARK    4  A    between atoms: C_6  and  O_7
REMARK    5  A    between atoms: O_7  and  C_8
REMARK    6  A    between atoms: N_12  and  C_13
REMARK    7  A    between atoms: C_26  and  O_27
REMARK                            x       y       z     vdW  Elec       q    Type
REMARK                         _______ _______ _______ _____ _____    ______ ____
ROOT
ATOM      1  C   UNL     1       6.701   6.480  17.019  0.00  0.00    +0.000 A 
ATOM      2  C   UNL     1       5.497   7.080  17.405  0.00  0.00    +0.000 A 
ATOM      3  C   UNL     1       4.304   6.325  17.549  0.00  0.00    +0.000 A 
ATOM      4  C   UNL     1       3.047   6.839  17.910  0.00  0.00    +0.000 A 
ATOM      5  N   UNL     1       2.880   8.241  18.090  0.00  0.00    +0.000 N 
ATOM      6  N   UNL     1       1.973   6.042  18.079  0.00  0.00    +0.000 NA
ATOM      7  C   UNL     1       2.142   4.738  17.860  0.00  0.00    +0.000 A 
ATOM      8  N   UNL     1       3.278   4.148  17.482  0.00  0.00    +0.000 NA
ATOM      9  C   UNL     1       4.342   4.942  17.336  0.00  0.00    +0.000 A 
ATOM     10  C   UNL     1       5.536   4.354  16.954  0.00  0.00    +0.000 A 
ATOM     11  C   UNL     1       6.705   5.102  16.791  0.00  0.00    +0.000 A 
ATOM     12  H   UNL     1       3.159   8.718  17.238  0.00  0.00    +0.000 HD
ENDROOT
BRANCH   5  13
ATOM     13  C   UNL     1       1.740   8.821  18.693  0.00  0.00    +0.000 A 
ATOM     14  C   UNL     1       0.847   9.587  17.923  0.00  0.00    +0.000 A 
ATOM     15  C   UNL     1      -0.245  10.225  18.512  0.00  0.00    +0.000 A 
ATOM     16  C   UNL     1      -0.454  10.095  19.877  0.00  0.00    +0.000 A 
ATOM     17  F   UNL     1      -1.492  10.738  20.432  0.00  0.00    +0.000 F 
ATOM     18  C   UNL     1       0.404   9.318  20.654  0.00  0.00    +0.000 A 
ATOM     19 CL   UNL     1       0.145   9.163  22.350  0.00  0.00    +0.000 Cl
ATOM     20  C   UNL     1       1.495   8.672  20.064  0.00  0.00    +0.000 A 
ENDBRANCH   5  13
BRANCH  11  21
ATOM     21  O   UNL     1       7.838   4.436  16.413  0.00  0.00    +0.000 OA
ATOM     22  H   UNL     1       8.453   5.053  15.980  0.00  0.00    +0.000 HD
ENDBRANCH  11  21
BRANCH   1  23
ATOM     23  O   UNL     1       7.745   7.362  16.930  0.00  0.00    +0.000 OA
BRANCH  23  24
ATOM     24  C   UNL     1       8.252   7.893  18.152  0.00  0.00    +0.000 C 
BRANCH  24  25
ATOM     25  C   UNL     1       8.462   9.397  18.004  0.00  0.00    +0.000 C 
BRANCH  25  26
ATOM     26  C   UNL     1       9.130   9.954  19.259  0.00  0.00    +0.000 C 
BRANCH  26  29
ATOM     27  C   UNL     1      11.016  12.404  17.316  0.00  0.00    +0.000 C 
ATOM     28  C   UNL     1      10.226  11.917  18.222  0.00  0.00    +0.000 C 
ATOM     29  C   UNL     1       9.441  11.413  19.129  0.00  0.00    +0.000 C 
ENDBRANCH  26  29
ENDBRANCH  25  26
ENDBRANCH  24  25
ENDBRANCH  23  24
ENDBRANCH   1  23
TORSDOF 7
ENDMDL
MODEL 2
REMARK VINA RESULT:      -8.3      0.742      1.009
REMARK  Name = 
REMARK  7 active torsions:
REMARK  status: ('A' for Active; 'I' for Inactive)
REMARK    1  A    between atoms: C_3  and  C_4
REMARK    2  A    between atoms: C_4  and  C_5
REMARK    3  A    between atoms: C_5  and  C_6
REMARK    4  A    between atoms: C_6  and  O_7
REMARK    5  A    between atoms: O_7  and  C_8
REMARK    6  A    between atoms: N_12  and  C_13
REMARK    7  A    between atoms: C_26  and  O_27
REMARK                            x       y       z     vdW  Elec       q    Type
REMARK                         _______ _______ _______ _____ _____    ______ ____
ROOT
ATOM      1  C   UNL     1       6.757   6.433  16.967  0.00  0.00    +0.000 A 
ATOM      2  C   UNL     1       5.555   7.034  17.359  0.00  0.00    +0.000 A 
ATOM      3  C   UNL     1       4.367   6.276  17.527  0.00  0.00    +0.000 A 
ATOM      4  C   UNL     1       3.113   6.790  17.897  0.00  0.00    +0.000 A 
ATOM      5  N   UNL     1       2.942   8.194  18.061  0.00  0.00    +0.000 N 
ATOM      6  N   UNL     1       2.044   5.991  18.089  0.00  0.00    +0.000 NA
ATOM      7  C   UNL     1       2.215   4.685  17.885  0.00  0.00    +0.000 A 
ATOM      8  N   UNL     1       3.350   4.095  17.501  0.00  0.00    +0.000 NA
ATOM      9  C   UNL     1       4.408   4.890  17.332  0.00  0.00    +0.000 A 
ATOM     10  C   UNL     1       5.600   4.303  16.943  0.00  0.00    +0.000 A 
ATOM     11  C   UNL     1       6.764   5.053  16.757  0.00  0.00    +0.000 A 
ATOM     12  H   UNL     1       3.209   8.661  17.199  0.00  0.00    +0.000 HD
ENDROOT
BRANCH   5  13
ATOM     13  C   UNL     1       1.806   8.777  18.670  0.00  0.00    +0.000 A 
ATOM     14  C   UNL     1       0.920   9.558  17.908  0.00  0.00    +0.000 A 
ATOM     15  C   UNL     1      -0.166  10.200  18.503  0.00  0.00    +0.000 A 
ATOM     16  C   UNL     1      -0.376  10.057  19.867  0.00  0.00    +0.000 A 
ATOM     17  F   UNL     1      -1.409  10.704  20.429  0.00  0.00    +0.000 F 
ATOM     18  C   UNL     1       0.476   9.265  20.636  0.00  0.00    +0.000 A 
ATOM     19 CL   UNL     1       0.214   9.095  22.330  0.00  0.00    +0.000 Cl
ATOM     20  C   UNL     1       1.561   8.616  20.039  0.00  0.00    +0.000 A 
ENDBRANCH   5  13
BRANCH  11  21
ATOM     21  O   UNL     1       7.895   4.386  16.374  0.00  0.00    +0.000 OA
ATOM     22  H   UNL     1       8.074   3.660  16.994  0.00  0.00    +0.000 HD
ENDBRANCH  11  21
BRANCH   1  23
ATOM     23  O   UNL     1       7.796   7.319  16.853  0.00  0.00    +0.000 OA
BRANCH  23  24
ATOM     24  C   UNL     1       8.182   8.020  18.034  0.00  0.00    +0.000 C 
BRANCH  24  25
ATOM     25  C   UNL     1       7.942   9.514  17.837  0.00  0.00    +0.000 C 
BRANCH  25  26
ATOM     26  C   UNL     1       9.195  10.296  18.227  0.00  0.00    +0.000 C 
BRANCH  26  29
ATOM     27  C   UNL     1       9.416  12.345  21.242  0.00  0.00    +0.000 C 
ATOM     28  C   UNL     1       9.430  11.294  20.480  0.00  0.00    +0.000 C 
ATOM     29  C   UNL     1       9.447  10.252  19.703  0.00  0.00    +0.000 C 
ENDBRANCH  26  29
ENDBRANCH  25  26
ENDBRANCH  24  25
ENDBRANCH  23  24
ENDBRANCH   1  23
TORSDOF 7
ENDMDL
MODEL 3
REMARK VINA RESULT:      -8.3      1.153      1.491
REMARK  Name = 
REMARK  7 active torsions:
REMARK  status: ('A' for Active; 'I' for Inactive)
REMARK    1  A    between atoms: C_3  and  C_4
REMARK    2  A    between atoms: C_4  and  C_5
REMARK    3  A    between atoms: C_5  and  C_6
REMARK    4  A    between atoms: C_6  and  O_7
REMARK    5  A    between atoms: O_7  and  C_8
REMARK    6  A    between atoms: N_12  and  C_13
REMARK    7  A    between atoms: C_26  and  O_27
REMARK                            x       y       z     vdW  Elec       q    Type
REMARK                         _______ _______ _______ _____ _____    ______ ____
ROOT
ATOM      1  C   UNL     1       6.658   6.151  17.032  0.00  0.00    +0.000 A 
ATOM      2  C   UNL     1       5.490   6.819  17.417  0.00  0.00    +0.000 A 
ATOM      3  C   UNL     1       4.258   6.131  17.568  0.00  0.00    +0.000 A 
ATOM      4  C   UNL     1       3.032   6.715  17.930  0.00  0.00    +0.000 A 
ATOM      5  N   UNL     1       2.943   8.126  18.102  0.00  0.00    +0.000 N 
ATOM      6  N   UNL     1       1.917   5.979  18.107  0.00  0.00    +0.000 NA
ATOM      7  C   UNL     1       2.013   4.667  17.895  0.00  0.00    +0.000 A 
ATOM      8  N   UNL     1       3.114   4.014  17.518  0.00  0.00    +0.000 NA
ATOM      9  C   UNL     1       4.219   4.746  17.364  0.00  0.00    +0.000 A 
ATOM     10  C   UNL     1       5.378   4.092  16.983  0.00  0.00    +0.000 A 
ATOM     11  C   UNL     1       6.586   4.774  16.812  0.00  0.00    +0.000 A 
ATOM     12  H   UNL     1       3.245   8.581  17.246  0.00  0.00    +0.000 HD
ENDROOT
BRANCH   5  13
ATOM     13  C   UNL     1       1.838   8.771  18.705  0.00  0.00    +0.000 A 
ATOM     14  C   UNL     1       1.638   8.678  20.093  0.00  0.00    +0.000 A 
ATOM     15  C   UNL     1       0.517   9.248  20.698  0.00  0.00    +0.000 A 
ATOM     16  C   UNL     1      -0.410   9.921  19.914  0.00  0.00    +0.000 A 
ATOM     17  F   UNL     1      -1.496  10.438  20.507  0.00  0.00    +0.000 F 
ATOM     18  C   UNL     1      -0.216  10.047  18.539  0.00  0.00    +0.000 A 
ATOM     19 CL   UNL     1      -1.372  10.879  17.570  0.00  0.00    +0.000 Cl
ATOM     20  C   UNL     1       0.911   9.483  17.933  0.00  0.00    +0.000 A 
ENDBRANCH   5  13
BRANCH  11  21
ATOM     21  O   UNL     1       7.680   4.044  16.435  0.00  0.00    +0.000 OA
ATOM     22  H   UNL     1       7.393   3.210  16.028  0.00  0.00    +0.000 HD
ENDBRANCH  11  21
BRANCH   1  23
ATOM     23  O   UNL     1       7.749   6.974  16.934  0.00  0.00    +0.000 OA
BRANCH  23  24
ATOM     24  C   UNL     1       8.148   7.664  18.117  0.00  0.00    +0.000 C 
BRANCH  24  25
ATOM     25  C   UNL     1       8.302   9.150  17.809  0.00  0.00    +0.000 C 
BRANCH  25  26
ATOM     26  C   UNL     1       8.993   9.853  18.976  0.00  0.00    +0.000 C 
BRANCH  26  29
ATOM     27  C   UNL     1      12.100  11.748  19.280  0.00  0.00    +0.000 C 
ATOM     28  C   UNL     1      10.899  11.431  18.904  0.00  0.00    +0.000 C 
ATOM     29  C   UNL     1       9.695  11.103  18.542  0.00  0.00    +0.000 C 
ENDBRANCH  26  29
ENDBRANCH  25  26
ENDBRANCH  24  25
ENDBRANCH  23  24
ENDBRANCH   1  23
TORSDOF 7
ENDMDL
MODEL 4
REMARK VINA RESULT:      -8.1      4.691      7.440
REMARK  Name = 
REMARK  7 active torsions:
REMARK  status: ('A' for Active; 'I' for Inactive)
REMARK    1  A    between atoms: C_3  and  C_4
REMARK    2  A    between atoms: C_4  and  C_5
REMARK    3  A    between atoms: C_5  and  C_6
REMARK    4  A    between atoms: C_6  and  O_7
REMARK    5  A    between atoms: O_7  and  C_8
REMARK    6  A    between atoms: N_12  and  C_13
REMARK    7  A    between atoms: C_26  and  O_27
REMARK                            x       y       z     vdW  Elec       q    Type
REMARK                         _______ _______ _______ _____ _____    ______ ____
ROOT
ATOM      1  C   UNL     1       6.132   4.443  13.750  0.00  0.00    +0.000 A 
ATOM      2  C   UNL     1       5.415   4.119  14.907  0.00  0.00    +0.000 A 
ATOM      3  C   UNL     1       5.919   4.417  16.200  0.00  0.00    +0.000 A 
ATOM      4  C   UNL     1       5.286   4.114  17.417  0.00  0.00    +0.000 A 
ATOM      5  N   UNL     1       4.066   3.380  17.417  0.00  0.00    +0.000 N 
ATOM      6  N   UNL     1       5.808   4.484  18.604  0.00  0.00    +0.000 NA
ATOM      7  C   UNL     1       6.974   5.129  18.581  0.00  0.00    +0.000 A 
ATOM      8  N   UNL     1       7.677   5.438  17.489  0.00  0.00    +0.000 NA
ATOM      9  C   UNL     1       7.144   5.086  16.318  0.00  0.00    +0.000 A 
ATOM     10  C   UNL     1       7.848   5.403  15.168  0.00  0.00    +0.000 A 
ATOM     11  C   UNL     1       7.361   5.089  13.896  0.00  0.00    +0.000 A 
ATOM     12  H   UNL     1       4.211   2.499  16.933  0.00  0.00    +0.000 HD
ENDROOT
BRANCH   5  13
ATOM     13  C   UNL     1       3.233   3.250  18.553  0.00  0.00    +0.000 A 
ATOM     14  C   UNL     1       2.839   1.975  18.997  0.00  0.00    +0.000 A 
ATOM     15  C   UNL     1       1.962   1.827  20.071  0.00  0.00    +0.000 A 
ATOM     16  C   UNL     1       1.478   2.957  20.714  0.00  0.00    +0.000 A 
ATOM     17  F   UNL     1       0.613   2.798  21.728  0.00  0.00    +0.000 F 
ATOM     18  C   UNL     1       1.877   4.229  20.307  0.00  0.00    +0.000 A 
ATOM     19 CL   UNL     1       1.269   5.631  21.105  0.00  0.00    +0.000 Cl
ATOM     20  C   UNL     1       2.762   4.379  19.234  0.00  0.00    +0.000 A 
ENDBRANCH   5  13
BRANCH  11  21
ATOM     21  O   UNL     1       8.124   5.443  12.818  0.00  0.00    +0.000 OA
ATOM     22  H   UNL     1       7.661   6.119  12.296  0.00  0.00    +0.000 HD
ENDBRANCH  11  21
BRANCH   1  23
ATOM     23  O   UNL     1       5.493   4.078  12.594  0.00  0.00    +0.000 OA
BRANCH  23  24
ATOM     24  C   UNL     1       5.929   2.874  11.965  0.00  0.00    +0.000 C 
BRANCH  24  25
ATOM     25  C   UNL     1       4.750   2.217  11.255  0.00  0.00    +0.000 C 
BRANCH  25  26
ATOM     26  C   UNL     1       3.615   3.226  11.091  0.00  0.00    +0.000 C 
BRANCH  26  29
ATOM     27  C   UNL     1       2.024   5.454   8.674  0.00  0.00    +0.000 C 
ATOM     28  C   UNL     1       2.599   4.398   9.161  0.00  0.00    +0.000 C 
ATOM     29  C   UNL     1       3.171   3.344   9.665  0.00  0.00    +0.000 C 
ENDBRANCH  26  29
ENDBRANCH  25  26
ENDBRANCH  24  25
ENDBRANCH  23  24
ENDBRANCH   1  23
TORSDOF 7
ENDMDL
MODEL 5
REMARK VINA RESULT:      -8.0      3.505      5.112
REMARK  Name = 
REMARK  7 active torsions:
REMARK  status: ('A' for Active; 'I' for Inactive)
REMARK    1  A    between atoms: C_3  and  C_4
REMARK    2  A    between atoms: C_4  and  C_5
REMARK    3  A    between atoms: C_5  and  C_6
REMARK    4  A    between atoms: C_6  and  O_7
REMARK    5  A    between atoms: O_7  and  C_8
REMARK    6  A    between atoms: N_12  and  C_13
REMARK    7  A    between atoms: C_26  and  O_27
REMARK                            x       y       z     vdW  Elec       q    Type
REMARK                         _______ _______ _______ _____ _____    ______ ____
ROOT
ATOM      1  C   UNL     1       5.665   5.944  17.280  0.00  0.00    +0.000 A 
ATOM      2  C   UNL     1       4.572   6.808  17.416  0.00  0.00    +0.000 A 
ATOM      3  C   UNL     1       3.616   6.638  18.451  0.00  0.00    +0.000 A 
ATOM      4  C   UNL     1       2.479   7.438  18.657  0.00  0.00    +0.000 A 
ATOM      5  N   UNL     1       2.170   8.479  17.736  0.00  0.00    +0.000 N 
ATOM      6  N   UNL     1       1.649   7.241  19.701  0.00  0.00    +0.000 NA
ATOM      7  C   UNL     1       1.933   6.232  20.523  0.00  0.00    +0.000 A 
ATOM      8  N   UNL     1       2.964   5.392  20.405  0.00  0.00    +0.000 NA
ATOM      9  C   UNL     1       3.791   5.604  19.380  0.00  0.00    +0.000 A 
ATOM     10  C   UNL     1       4.874   4.753  19.239  0.00  0.00    +0.000 A 
ATOM     11  C   UNL     1       5.803   4.907  18.206  0.00  0.00    +0.000 A 
ATOM     12  H   UNL     1       2.086   8.081  16.805  0.00  0.00    +0.000 HD
ENDROOT
BRANCH   5  13
ATOM     13  C   UNL     1       1.209   9.486  17.990  0.00  0.00    +0.000 A 
ATOM     14  C   UNL     1       1.588  10.673  18.640  0.00  0.00    +0.000 A 
ATOM     15  C   UNL     1       0.644  11.648  18.962  0.00  0.00    +0.000 A 
ATOM     16  C   UNL     1      -0.688  11.442  18.629  0.00  0.00    +0.000 A 
ATOM     17  F   UNL     1      -1.587  12.377  18.971  0.00  0.00    +0.000 F 
ATOM     18  C   UNL     1      -1.079  10.284  17.959  0.00  0.00    +0.000 A 
ATOM     19 CL   UNL     1      -2.733  10.030  17.551  0.00  0.00    +0.000 Cl
ATOM     20  C   UNL     1      -0.132   9.309  17.629  0.00  0.00    +0.000 A 
ENDBRANCH   5  13
BRANCH  11  21
ATOM     21  O   UNL     1       6.842   4.019  18.147  0.00  0.00    +0.000 OA
ATOM     22  H   UNL     1       6.495   3.112  18.102  0.00  0.00    +0.000 HD
ENDBRANCH  11  21
BRANCH   1  23
ATOM     23  O   UNL     1       6.479   6.259  16.225  0.00  0.00    +0.000 OA
BRANCH  23  24
ATOM     24  C   UNL     1       6.855   5.192  15.355  0.00  0.00    +0.000 C 
BRANCH  24  25
ATOM     25  C   UNL     1       5.722   4.917  14.372  0.00  0.00    +0.000 C 
BRANCH  25  26
ATOM     26  C   UNL     1       5.815   3.480  13.862  0.00  0.00    +0.000 C 
BRANCH  26  29
ATOM     27  C   UNL     1       3.600   3.267  10.966  0.00  0.00    +0.000 C 
ATOM     28  C   UNL     1       4.695   3.343  11.659  0.00  0.00    +0.000 C 
ATOM     29  C   UNL     1       5.784   3.412  12.366  0.00  0.00    +0.000 C 
ENDBRANCH  26  29
ENDBRANCH  25  26
ENDBRANCH  24  25
ENDBRANCH  23  24
ENDBRANCH   1  23
TORSDOF 7
ENDMDL
MODEL 6
REMARK VINA RESULT:      -8.0      3.641      5.156
REMARK  Name = 
REMARK  7 active torsions:
REMARK  status: ('A' for Active; 'I' for Inactive)
REMARK    1  A    between atoms: C_3  and  C_4
REMARK    2  A    between atoms: C_4  and  C_5
REMARK    3  A    between atoms: C_5  and  C_6
REMARK    4  A    between atoms: C_6  and  O_7
REMARK    5  A    between atoms: O_7  and  C_8
REMARK    6  A    between atoms: N_12  and  C_13
REMARK    7  A    between atoms: C_26  and  O_27
REMARK                            x       y       z     vdW  Elec       q    Type
REMARK                         _______ _______ _______ _____ _____    ______ ____
ROOT
ATOM      1  C   UNL     1       5.326   5.780  17.198  0.00  0.00    +0.000 A 
ATOM      2  C   UNL     1       4.293   6.706  17.383  0.00  0.00    +0.000 A 
ATOM      3  C   UNL     1       3.407   6.617  18.488  0.00  0.00    +0.000 A 
ATOM      4  C   UNL     1       2.332   7.483  18.748  0.00  0.00    +0.000 A 
ATOM      5  N   UNL     1       2.011   8.513  17.819  0.00  0.00    +0.000 N 
ATOM      6  N   UNL     1       1.571   7.363  19.855  0.00  0.00    +0.000 NA
ATOM      7  C   UNL     1       1.860   6.363  20.687  0.00  0.00    +0.000 A 
ATOM      8  N   UNL     1       2.834   5.465  20.523  0.00  0.00    +0.000 NA
ATOM      9  C   UNL     1       3.595   5.603  19.435  0.00  0.00    +0.000 A 
ATOM     10  C   UNL     1       4.619   4.690  19.245  0.00  0.00    +0.000 A 
ATOM     11  C   UNL     1       5.477   4.765  18.144  0.00  0.00    +0.000 A 
ATOM     12  H   UNL     1       1.839   8.094  16.910  0.00  0.00    +0.000 HD
ENDROOT
BRANCH   5  13
ATOM     13  C   UNL     1       1.125   9.578  18.108  0.00  0.00    +0.000 A 
ATOM     14  C   UNL     1      -0.233   9.479  17.761  0.00  0.00    +0.000 A 
ATOM     15  C   UNL     1      -1.109  10.544  17.973  0.00  0.00    +0.000 A 
ATOM     16  C   UNL     1      -0.629  11.716  18.541  0.00  0.00    +0.000 A 
ATOM     17  F   UNL     1      -1.478  12.741  18.712  0.00  0.00    +0.000 F 
ATOM     18  C   UNL     1       0.709  11.824  18.917  0.00  0.00    +0.000 A 
ATOM     19 CL   UNL     1       1.302  13.283  19.617  0.00  0.00    +0.000 Cl
ATOM     20  C   UNL     1       1.586  10.754  18.711  0.00  0.00    +0.000 A 
ENDBRANCH   5  13
BRANCH  11  21
ATOM     21  O   UNL     1       6.461   3.820  18.040  0.00  0.00    +0.000 OA
ATOM     22  H   UNL     1       6.063   2.934  18.011  0.00  0.00    +0.000 HD
ENDBRANCH  11  21
BRANCH   1  23
ATOM     23  O   UNL     1       6.078   6.020  16.078  0.00  0.00    +0.000 OA
BRANCH  23  24
ATOM     24  C   UNL     1       5.481   5.714  14.819  0.00  0.00    +0.000 C 
BRANCH  24  25
ATOM     25  C   UNL     1       5.640   4.225  14.531  0.00  0.00    +0.000 C 
BRANCH  25  26
ATOM     26  C   UNL     1       6.455   4.028  13.255  0.00  0.00    +0.000 C 
BRANCH  26  29
ATOM     27  C   UNL     1       3.681   3.479  10.944  0.00  0.00    +0.000 C 
ATOM     28  C   UNL     1       4.755   3.246  11.634  0.00  0.00    +0.000 C 
ATOM     29  C   UNL     1       5.827   3.025  12.336  0.00  0.00    +0.000 C 
ENDBRANCH  26  29
ENDBRANCH  25  26
ENDBRANCH  24  25
ENDBRANCH  23  24
ENDBRANCH   1  23
TORSDOF 7
ENDMDL
MODEL 7
REMARK VINA RESULT:      -7.9      1.349      1.850
REMARK  Name = 
REMARK  7 active torsions:
REMARK  status: ('A' for Active; 'I' for Inactive)
REMARK    1  A    between atoms: C_3  and  C_4
REMARK    2  A    between atoms: C_4  and  C_5
REMARK    3  A    between atoms: C_5  and  C_6
REMARK    4  A    between atoms: C_6  and  O_7
REMARK    5  A    between atoms: O_7  and  C_8
REMARK    6  A    between atoms: N_12  and  C_13
REMARK    7  A    between atoms: C_26  and  O_27
REMARK                            x       y       z     vdW  Elec       q    Type
REMARK                         _______ _______ _______ _____ _____    ______ ____
ROOT
ATOM      1  C   UNL     1       6.798   6.277  17.206  0.00  0.00    +0.000 A 
ATOM      2  C   UNL     1       5.594   6.929  17.496  0.00  0.00    +0.000 A 
ATOM      3  C   UNL     1       4.382   6.210  17.665  0.00  0.00    +0.000 A 
ATOM      4  C   UNL     1       3.125   6.775  17.936  0.00  0.00    +0.000 A 
ATOM      5  N   UNL     1       2.979   8.190  17.986  0.00  0.00    +0.000 N 
ATOM      6  N   UNL     1       2.030   6.013  18.138  0.00  0.00    +0.000 NA
ATOM      7  C   UNL     1       2.180   4.693  18.040  0.00  0.00    +0.000 A 
ATOM      8  N   UNL     1       3.317   4.053  17.755  0.00  0.00    +0.000 NA
ATOM      9  C   UNL     1       4.399   4.812  17.576  0.00  0.00    +0.000 A 
ATOM     10  C   UNL     1       5.594   4.174  17.289  0.00  0.00    +0.000 A 
ATOM     11  C   UNL     1       6.783   4.885  17.100  0.00  0.00    +0.000 A 
ATOM     12  H   UNL     1       3.296   8.585  17.105  0.00  0.00    +0.000 HD
ENDROOT
BRANCH   5  13
ATOM     13  C   UNL     1       1.831   8.840  18.496  0.00  0.00    +0.000 A 
ATOM     14  C   UNL     1       1.677   9.013  19.883  0.00  0.00    +0.000 A 
ATOM     15  C   UNL     1       0.521   9.588  20.411  0.00  0.00    +0.000 A 
ATOM     16  C   UNL     1      -0.487  10.000  19.551  0.00  0.00    +0.000 A 
ATOM     17  F   UNL     1      -1.605  10.526  20.076  0.00  0.00    +0.000 F 
ATOM     18  C   UNL     1      -0.342   9.863  18.171  0.00  0.00    +0.000 A 
ATOM     19 CL   UNL     1      -1.598  10.372  17.107  0.00  0.00    +0.000 Cl
ATOM     20  C   UNL     1       0.820   9.293  17.640  0.00  0.00    +0.000 A 
ENDBRANCH   5  13
BRANCH  11  21
ATOM     21  O   UNL     1       7.914   4.169  16.822  0.00  0.00    +0.000 OA
ATOM     22  H   UNL     1       7.672   3.306  16.444  0.00  0.00    +0.000 HD
ENDBRANCH  11  21
BRANCH   1  23
ATOM     23  O   UNL     1       7.861   7.130  17.075  0.00  0.00    +0.000 OA
BRANCH  23  24
ATOM     24  C   UNL     1       7.656   8.487  17.463  0.00  0.00    +0.000 C 
BRANCH  24  25
ATOM     25  C   UNL     1       8.670   8.867  18.537  0.00  0.00    +0.000 C 
BRANCH  25  26
ATOM     26  C   UNL     1       9.111  10.316  18.344  0.00  0.00    +0.000 C 
BRANCH  26  29
ATOM     27  C   UNL     1       8.812  11.579  21.758  0.00  0.00    +0.000 C 
ATOM     28  C   UNL     1       9.358  11.202  20.643  0.00  0.00    +0.000 C 
ATOM     29  C   UNL     1       9.890  10.827  19.518  0.00  0.00    +0.000 C 
ENDBRANCH  26  29
ENDBRANCH  25  26
ENDBRANCH  24  25
ENDBRANCH  23  24
ENDBRANCH   1  23
TORSDOF 7
ENDMDL
MODEL 8
REMARK VINA RESULT:      -7.8      2.430      3.420
REMARK  Name = 
REMARK  7 active torsions:
REMARK  status: ('A' for Active; 'I' for Inactive)
REMARK    1  A    between atoms: C_3  and  C_4
REMARK    2  A    between atoms: C_4  and  C_5
REMARK    3  A    between atoms: C_5  and  C_6
REMARK    4  A    between atoms: C_6  and  O_7
REMARK    5  A    between atoms: O_7  and  C_8
REMARK    6  A    between atoms: N_12  and  C_13
REMARK    7  A    between atoms: C_26  and  O_27
REMARK                            x       y       z     vdW  Elec       q    Type
REMARK                         _______ _______ _______ _____ _____    ______ ____
ROOT
ATOM      1  C   UNL     1       4.309   5.151  17.434  0.00  0.00    +0.000 A 
ATOM      2  C   UNL     1       3.627   6.363  17.591  0.00  0.00    +0.000 A 
ATOM      3  C   UNL     1       2.845   6.630  18.745  0.00  0.00    +0.000 A 
ATOM      4  C   UNL     1       2.110   7.804  18.984  0.00  0.00    +0.000 A 
ATOM      5  N   UNL     1       2.049   8.817  17.986  0.00  0.00    +0.000 N 
ATOM      6  N   UNL     1       1.438   8.001  20.136  0.00  0.00    +0.000 NA
ATOM      7  C   UNL     1       1.471   7.019  21.037  0.00  0.00    +0.000 A 
ATOM      8  N   UNL     1       2.106   5.853  20.901  0.00  0.00    +0.000 NA
ATOM      9  C   UNL     1       2.786   5.674  19.766  0.00  0.00    +0.000 A 
ATOM     10  C   UNL     1       3.463   4.477  19.604  0.00  0.00    +0.000 A 
ATOM     11  C   UNL     1       4.214   4.205  18.456  0.00  0.00    +0.000 A 
ATOM     12  H   UNL     1       1.687   8.412  17.128  0.00  0.00    +0.000 HD
ENDROOT
BRANCH   5  13
ATOM     13  C   UNL     1       1.558  10.122  18.227  0.00  0.00    +0.000 A 
ATOM     14  C   UNL     1       0.191  10.325  18.480  0.00  0.00    +0.000 A 
ATOM     15  C   UNL     1      -0.326  11.609  18.650  0.00  0.00    +0.000 A 
ATOM     16  C   UNL     1       0.527  12.701  18.573  0.00  0.00    +0.000 A 
ATOM     17  F   UNL     1       0.010  13.931  18.710  0.00  0.00    +0.000 F 
ATOM     18  C   UNL     1       1.891  12.519  18.349  0.00  0.00    +0.000 A 
ATOM     19 CL   UNL     1       2.946  13.878  18.249  0.00  0.00    +0.000 Cl
ATOM     20  C   UNL     1       2.411  11.232  18.186  0.00  0.00    +0.000 A 
ENDBRANCH   5  13
BRANCH  11  21
ATOM     21  O   UNL     1       4.850   2.997  18.384  0.00  0.00    +0.000 OA
ATOM     22  H   UNL     1       5.290   2.807  19.229  0.00  0.00    +0.000 HD
ENDBRANCH  11  21
BRANCH   1  23
ATOM     23  O   UNL     1       5.008   5.069  16.258  0.00  0.00    +0.000 OA
BRANCH  23  24
ATOM     24  C   UNL     1       6.195   5.852  16.154  0.00  0.00    +0.000 C 
BRANCH  24  25
ATOM     25  C   UNL     1       7.232   5.335  17.146  0.00  0.00    +0.000 C 
BRANCH  25  26
ATOM     26  C   UNL     1       7.598   6.440  18.135  0.00  0.00    +0.000 C 
BRANCH  26  29
ATOM     27  C   UNL     1       8.801   9.872  18.470  0.00  0.00    +0.000 C 
ATOM     28  C   UNL     1       8.193   8.838  17.975  0.00  0.00    +0.000 C 
ATOM     29  C   UNL     1       7.584   7.794  17.495  0.00  0.00    +0.000 C 
ENDBRANCH  26  29
ENDBRANCH  25  26
ENDBRANCH  24  25
ENDBRANCH  23  24
ENDBRANCH   1  23
TORSDOF 7
ENDMDL
MODEL 9
REMARK VINA RESULT:      -7.8      1.042      1.062
REMARK  Name = 
REMARK  7 active torsions:
REMARK  status: ('A' for Active; 'I' for Inactive)
REMARK    1  A    between atoms: C_3  and  C_4
REMARK    2  A    between atoms: C_4  and  C_5
REMARK    3  A    between atoms: C_5  and  C_6
REMARK    4  A    between atoms: C_6  and  O_7
REMARK    5  A    between atoms: O_7  and  C_8
REMARK    6  A    between atoms: N_12  and  C_13
REMARK    7  A    between atoms: C_26  and  O_27
REMARK                            x       y       z     vdW  Elec       q    Type
REMARK                         _______ _______ _______ _____ _____    ______ ____
ROOT
ATOM      1  C   UNL     1       6.298   6.205  17.621  0.00  0.00    +0.000 A 
ATOM      2  C   UNL     1       5.108   6.885  17.904  0.00  0.00    +0.000 A 
ATOM      3  C   UNL     1       3.993   6.221  18.476  0.00  0.00    +0.000 A 
ATOM      4  C   UNL     1       2.753   6.811  18.777  0.00  0.00    +0.000 A 
ATOM      5  N   UNL     1       2.514   8.171  18.434  0.00  0.00    +0.000 N 
ATOM      6  N   UNL     1       1.761   6.119  19.374  0.00  0.00    +0.000 NA
ATOM      7  C   UNL     1       1.991   4.835  19.643  0.00  0.00    +0.000 A 
ATOM      8  N   UNL     1       3.114   4.166  19.372  0.00  0.00    +0.000 NA
ATOM      9  C   UNL     1       4.098   4.862  18.800  0.00  0.00    +0.000 A 
ATOM     10  C   UNL     1       5.278   4.196  18.516  0.00  0.00    +0.000 A 
ATOM     11  C   UNL     1       6.369   4.846  17.932  0.00  0.00    +0.000 A 
ATOM     12  H   UNL     1       2.663   8.290  17.436  0.00  0.00    +0.000 HD
ENDROOT
BRANCH   5  13
ATOM     13  C   UNL     1       1.413   8.917  18.916  0.00  0.00    +0.000 A 
ATOM     14  C   UNL     1       0.571   9.593  18.016  0.00  0.00    +0.000 A 
ATOM     15  C   UNL     1      -0.478  10.391  18.474  0.00  0.00    +0.000 A 
ATOM     16  C   UNL     1      -0.694  10.511  19.839  0.00  0.00    +0.000 A 
ATOM     17  F   UNL     1      -1.689  11.305  20.264  0.00  0.00    +0.000 F 
ATOM     18  C   UNL     1       0.113   9.827  20.747  0.00  0.00    +0.000 A 
ATOM     19 CL   UNL     1      -0.157   9.983  22.442  0.00  0.00    +0.000 Cl
ATOM     20  C   UNL     1       1.160   9.022  20.289  0.00  0.00    +0.000 A 
ENDBRANCH   5  13
BRANCH  11  21
ATOM     21  O   UNL     1       7.494   4.106  17.689  0.00  0.00    +0.000 OA
ATOM     22  H   UNL     1       7.440   3.261  18.166  0.00  0.00    +0.000 HD
ENDBRANCH  11  21
BRANCH   1  23
ATOM     23  O   UNL     1       7.264   7.005  17.069  0.00  0.00    +0.000 OA
BRANCH  23  24
ATOM     24  C   UNL     1       8.155   7.660  17.969  0.00  0.00    +0.000 C 
BRANCH  24  25
ATOM     25  C   UNL     1       8.085   9.168  17.745  0.00  0.00    +0.000 C 
BRANCH  25  26
ATOM     26  C   UNL     1       8.876   9.891  18.833  0.00  0.00    +0.000 C 
BRANCH  26  29
ATOM     27  C   UNL     1      11.955  11.788  19.342  0.00  0.00    +0.000 C 
ATOM     28  C   UNL     1      10.845  11.392  18.799  0.00  0.00    +0.000 C 
ATOM     29  C   UNL     1       9.728  10.988  18.271  0.00  0.00    +0.000 C 
ENDBRANCH  26  29
ENDBRANCH  25  26
ENDBRANCH  24  25
ENDBRANCH  23  24
ENDBRANCH   1  23
TORSDOF 7
ENDMDL
