MODEL 1
REMARK VINA RESULT:      -7.3      0.000      0.000
REMARK  Name = 
REMARK  7 active torsions:
REMARK  status: ('A' for Active; 'I' for Inactive)
REMARK    1  A    between atoms: C_2  and  C_3
REMARK    2  A    between atoms: C_3  and  O_4
REMARK    3  A    between atoms: O_4  and  C_5
REMARK    4  A    between atoms: N_11  and  C_12
REMARK    5  A    between atoms: C_12  and  C_13
REMARK    6  A    between atoms: C_16  and  O_17
REMARK    7  A    between atoms: C_18  and  O_19
REMARK                            x       y       z     vdW  Elec       q    Type
REMARK                         _______ _______ _______ _____ _____    ______ ____
ROOT
ATOM      1  O   UNL     1       6.328   5.461  18.843  0.00  0.00    +0.000 OA
ATOM      2  C   UNL     1       6.063   5.372  17.647  0.00  0.00    +0.000 C 
ATOM      3  N   UNL     1       4.947   5.950  17.075  0.00  0.00    +0.000 N 
ATOM      4  H   UNL     1       4.732   5.759  16.106  0.00  0.00    +0.000 HD
ENDROOT
BRANCH   2   5
ATOM      5  C   UNL     1       6.968   4.628  16.658  0.00  0.00    +0.000 C 
BRANCH   5   6
ATOM      6  O   UNL     1       7.291   5.472  15.558  0.00  0.00    +0.000 OA
BRANCH   6   7
ATOM      7  C   UNL     1       7.104   4.920  14.316  0.00  0.00    +0.000 A 
ATOM      8  C   UNL     1       6.076   3.976  14.221  0.00  0.00    +0.000 A 
ATOM      9  C   UNL     1       5.779   3.370  12.998  0.00  0.00    +0.000 A 
ATOM     10  C   UNL     1       6.497   3.717  11.856  0.00  0.00    +0.000 A 
ATOM     11  C   UNL     1       7.510   4.670  11.940  0.00  0.00    +0.000 A 
ATOM     12  C   UNL     1       7.814   5.271  13.167  0.00  0.00    +0.000 A 
ENDBRANCH   6   7
ENDBRANCH   5   6
ENDBRANCH   2   5
BRANCH   3  13
ATOM     13  C   UNL     1       3.965   6.680  17.847  0.00  0.00    +0.000 C 
BRANCH  13  14
ATOM     14  C   UNL     1       3.017   5.741  18.552  0.00  0.00    +0.000 A 
ATOM     15  C   UNL     1       2.592   6.016  19.866  0.00  0.00    +0.000 A 
ATOM     16  C   UNL     1       1.718   5.152  20.535  0.00  0.00    +0.000 A 
ATOM     17  C   UNL     1       1.263   4.012  19.885  0.00  0.00    +0.000 A 
ATOM     18  C   UNL     1       1.679   3.733  18.585  0.00  0.00    +0.000 A 
ATOM     19  C   UNL     1       2.543   4.586  17.912  0.00  0.00    +0.000 A 
BRANCH  17  20
ATOM     20  O   UNL     1       0.405   3.130  20.482  0.00  0.00    +0.000 OA
ATOM     21  H   UNL     1       0.931   2.409  20.867  0.00  0.00    +0.000 HD
ENDBRANCH  17  20
BRANCH  18  22
ATOM     22  O   UNL     1       1.237   2.602  17.959  0.00  0.00    +0.000 OA
ATOM     23  H   UNL     1       0.801   2.929  17.145  0.00  0.00    +0.000 HD
ENDBRANCH  18  22
ENDBRANCH  13  14
ENDBRANCH   3  13
TORSDOF 7
ENDMDL
MODEL 2
REMARK VINA RESULT:      -7.3      0.769      1.581
REMARK  Name = 
REMARK  7 active torsions:
REMARK  status: ('A' for Active; 'I' for Inactive)
REMARK    1  A    between atoms: C_2  and  C_3
REMARK    2  A    between atoms: C_3  and  O_4
REMARK    3  A    between atoms: O_4  and  C_5
REMARK    4  A    between atoms: N_11  and  C_12
REMARK    5  A    between atoms: C_12  and  C_13
REMARK    6  A    between atoms: C_16  and  O_17
REMARK    7  A    between atoms: C_18  and  O_19
REMARK                            x       y       z     vdW  Elec       q    Type
REMARK                         _______ _______ _______ _____ _____    ______ ____
ROOT
ATOM      1  O   UNL     1       6.560   4.942  19.061  0.00  0.00    +0.000 OA
ATOM      2  C   UNL     1       6.373   5.147  17.864  0.00  0.00    +0.000 C 
ATOM      3  N   UNL     1       5.206   5.691  17.365  0.00  0.00    +0.000 N 
ATOM      4  H   UNL     1       5.074   5.744  16.364  0.00  0.00    +0.000 HD
ENDROOT
BRANCH   2   5
ATOM      5  C   UNL     1       7.436   4.843  16.802  0.00  0.00    +0.000 C 
BRANCH   5   6
ATOM      6  O   UNL     1       7.246   5.679  15.665  0.00  0.00    +0.000 OA
BRANCH   6   7
ATOM      7  C   UNL     1       7.054   5.022  14.477  0.00  0.00    +0.000 A 
ATOM      8  C   UNL     1       6.017   4.084  14.462  0.00  0.00    +0.000 A 
ATOM      9  C   UNL     1       5.715   3.376  13.297  0.00  0.00    +0.000 A 
ATOM     10  C   UNL     1       6.437   3.613  12.130  0.00  0.00    +0.000 A 
ATOM     11  C   UNL     1       7.461   4.559  12.132  0.00  0.00    +0.000 A 
ATOM     12  C   UNL     1       7.770   5.262  13.302  0.00  0.00    +0.000 A 
ENDBRANCH   6   7
ENDBRANCH   5   6
ENDBRANCH   2   5
BRANCH   3  13
ATOM     13  C   UNL     1       4.080   6.030  18.208  0.00  0.00    +0.000 C 
BRANCH  13  14
ATOM     14  C   UNL     1       3.114   4.875  18.318  0.00  0.00    +0.000 A 
ATOM     15  C   UNL     1       3.154   3.824  17.381  0.00  0.00    +0.000 A 
ATOM     16  C   UNL     1       2.261   2.750  17.467  0.00  0.00    +0.000 A 
ATOM     17  C   UNL     1       1.330   2.724  18.497  0.00  0.00    +0.000 A 
ATOM     18  C   UNL     1       1.284   3.759  19.428  0.00  0.00    +0.000 A 
ATOM     19  C   UNL     1       2.167   4.828  19.353  0.00  0.00    +0.000 A 
BRANCH  17  20
ATOM     20  O   UNL     1       0.434   1.700  18.639  0.00  0.00    +0.000 OA
ATOM     21  H   UNL     1       0.783   1.084  19.305  0.00  0.00    +0.000 HD
ENDBRANCH  17  20
BRANCH  18  22
ATOM     22  O   UNL     1       0.356   3.731  20.430  0.00  0.00    +0.000 OA
ATOM     23  H   UNL     1       0.777   4.219  21.166  0.00  0.00    +0.000 HD
ENDBRANCH  18  22
ENDBRANCH  13  14
ENDBRANCH   3  13
TORSDOF 7
ENDMDL
MODEL 3
REMARK VINA RESULT:      -6.9      1.284      2.074
REMARK  Name = 
REMARK  7 active torsions:
REMARK  status: ('A' for Active; 'I' for Inactive)
REMARK    1  A    between atoms: C_2  and  C_3
REMARK    2  A    between atoms: C_3  and  O_4
REMARK    3  A    between atoms: O_4  and  C_5
REMARK    4  A    between atoms: N_11  and  C_12
REMARK    5  A    between atoms: C_12  and  C_13
REMARK    6  A    between atoms: C_16  and  O_17
REMARK    7  A    between atoms: C_18  and  O_19
REMARK                            x       y       z     vdW  Elec       q    Type
REMARK                         _______ _______ _______ _____ _____    ______ ____
ROOT
ATOM      1  O   UNL     1       7.472   4.630  18.094  0.00  0.00    +0.000 OA
ATOM      2  C   UNL     1       6.543   5.311  17.665  0.00  0.00    +0.000 C 
ATOM      3  N   UNL     1       5.342   5.455  18.332  0.00  0.00    +0.000 N 
ATOM      4  H   UNL     1       4.582   5.948  17.882  0.00  0.00    +0.000 HD
ENDROOT
BRANCH   2   5
ATOM      5  C   UNL     1       6.637   6.098  16.354  0.00  0.00    +0.000 C 
BRANCH   5   6
ATOM      6  O   UNL     1       7.592   5.495  15.487  0.00  0.00    +0.000 OA
BRANCH   6   7
ATOM      7  C   UNL     1       7.074   4.880  14.376  0.00  0.00    +0.000 A 
ATOM      8  C   UNL     1       7.790   5.068  13.189  0.00  0.00    +0.000 A 
ATOM      9  C   UNL     1       7.369   4.465  12.002  0.00  0.00    +0.000 A 
ATOM     10  C   UNL     1       6.238   3.652  11.996  0.00  0.00    +0.000 A 
ATOM     11  C   UNL     1       5.530   3.446  13.179  0.00  0.00    +0.000 A 
ATOM     12  C   UNL     1       5.947   4.057  14.367  0.00  0.00    +0.000 A 
ENDBRANCH   6   7
ENDBRANCH   5   6
ENDBRANCH   2   5
BRANCH   3  13
ATOM     13  C   UNL     1       5.056   4.778  19.579  0.00  0.00    +0.000 C 
BRANCH  13  14
ATOM     14  C   UNL     1       3.660   4.203  19.580  0.00  0.00    +0.000 A 
ATOM     15  C   UNL     1       2.880   4.232  18.408  0.00  0.00    +0.000 A 
ATOM     16  C   UNL     1       1.582   3.708  18.394  0.00  0.00    +0.000 A 
ATOM     17  C   UNL     1       1.066   3.148  19.556  0.00  0.00    +0.000 A 
ATOM     18  C   UNL     1       1.832   3.114  20.718  0.00  0.00    +0.000 A 
ATOM     19  C   UNL     1       3.121   3.629  20.741  0.00  0.00    +0.000 A 
BRANCH  17  20
ATOM     20  O   UNL     1      -0.192   2.614  19.607  0.00  0.00    +0.000 OA
ATOM     21  H   UNL     1      -0.460   2.562  20.540  0.00  0.00    +0.000 HD
ENDBRANCH  17  20
BRANCH  18  22
ATOM     22  O   UNL     1       1.311   2.573  21.859  0.00  0.00    +0.000 OA
ATOM     23  H   UNL     1       0.575   2.008  21.547  0.00  0.00    +0.000 HD
ENDBRANCH  18  22
ENDBRANCH  13  14
ENDBRANCH   3  13
TORSDOF 7
ENDMDL
MODEL 4
REMARK VINA RESULT:      -6.9      1.389      2.068
REMARK  Name = 
REMARK  7 active torsions:
REMARK  status: ('A' for Active; 'I' for Inactive)
REMARK    1  A    between atoms: C_2  and  C_3
REMARK    2  A    between atoms: C_3  and  O_4
REMARK    3  A    between atoms: O_4  and  C_5
REMARK    4  A    between atoms: N_11  and  C_12
REMARK    5  A    between atoms: C_12  and  C_13
REMARK    6  A    between atoms: C_16  and  O_17
REMARK    7  A    between atoms: C_18  and  O_19
REMARK                            x       y       z     vdW  Elec       q    Type
REMARK                         _______ _______ _______ _____ _____    ______ ____
ROOT
ATOM      1  O   UNL     1       4.369   6.870  17.820  0.00  0.00    +0.000 OA
ATOM      2  C   UNL     1       5.222   6.173  17.277  0.00  0.00    +0.000 C 
ATOM      3  N   UNL     1       5.666   4.975  17.802  0.00  0.00    +0.000 N 
ATOM      4  H   UNL     1       6.439   4.496  17.360  0.00  0.00    +0.000 HD
ENDROOT
BRANCH   2   5
ATOM      5  C   UNL     1       5.862   6.551  15.937  0.00  0.00    +0.000 C 
BRANCH   5   6
ATOM      6  O   UNL     1       6.933   5.663  15.635  0.00  0.00    +0.000 OA
BRANCH   6   7
ATOM      7  C   UNL     1       6.832   5.003  14.438  0.00  0.00    +0.000 A 
ATOM      8  C   UNL     1       5.738   4.141  14.311  0.00  0.00    +0.000 A 
ATOM      9  C   UNL     1       5.521   3.438  13.124  0.00  0.00    +0.000 A 
ATOM     10  C   UNL     1       6.387   3.606  12.046  0.00  0.00    +0.000 A 
ATOM     11  C   UNL     1       7.469   4.477  12.159  0.00  0.00    +0.000 A 
ATOM     12  C   UNL     1       7.692   5.175  13.351  0.00  0.00    +0.000 A 
ENDBRANCH   6   7
ENDBRANCH   5   6
ENDBRANCH   2   5
BRANCH   3  13
ATOM     13  C   UNL     1       5.192   4.455  19.067  0.00  0.00    +0.000 C 
BRANCH  13  14
ATOM     14  C   UNL     1       3.876   3.735  18.903  0.00  0.00    +0.000 A 
ATOM     15  C   UNL     1       3.728   2.742  17.916  0.00  0.00    +0.000 A 
ATOM     16  C   UNL     1       2.512   2.070  17.748  0.00  0.00    +0.000 A 
ATOM     17  C   UNL     1       1.442   2.389  18.575  0.00  0.00    +0.000 A 
ATOM     18  C   UNL     1       1.581   3.369  19.554  0.00  0.00    +0.000 A 
ATOM     19  C   UNL     1       2.784   4.040  19.730  0.00  0.00    +0.000 A 
BRANCH  17  20
ATOM     20  O   UNL     1       0.230   1.765  18.465  0.00  0.00    +0.000 OA
ATOM     21  H   UNL     1      -0.046   1.803  17.533  0.00  0.00    +0.000 HD
ENDBRANCH  17  20
BRANCH  18  22
ATOM     22  O   UNL     1       0.519   3.685  20.354  0.00  0.00    +0.000 OA
ATOM     23  H   UNL     1       0.637   4.636  20.552  0.00  0.00    +0.000 HD
ENDBRANCH  18  22
ENDBRANCH  13  14
ENDBRANCH   3  13
TORSDOF 7
ENDMDL
MODEL 5
REMARK VINA RESULT:      -6.8      4.719      6.279
REMARK  Name = 
REMARK  7 active torsions:
REMARK  status: ('A' for Active; 'I' for Inactive)
REMARK    1  A    between atoms: C_2  and  C_3
REMARK    2  A    between atoms: C_3  and  O_4
REMARK    3  A    between atoms: O_4  and  C_5
REMARK    4  A    between atoms: N_11  and  C_12
REMARK    5  A    between atoms: C_12  and  C_13
REMARK    6  A    between atoms: C_16  and  O_17
REMARK    7  A    between atoms: C_18  and  O_19
REMARK                            x       y       z     vdW  Elec       q    Type
REMARK                         _______ _______ _______ _____ _____    ______ ____
ROOT
ATOM      1  O   UNL     1       8.068   6.652  18.389  0.00  0.00    +0.000 OA
ATOM      2  C   UNL     1       7.601   7.545  17.686  0.00  0.00    +0.000 C 
ATOM      3  N   UNL     1       6.652   7.318  16.709  0.00  0.00    +0.000 N 
ATOM      4  H   UNL     1       6.379   8.077  16.098  0.00  0.00    +0.000 HD
ENDROOT
BRANCH   2   5
ATOM      5  C   UNL     1       8.006   9.014  17.846  0.00  0.00    +0.000 C 
BRANCH   5   6
ATOM      6  O   UNL     1       8.825   9.175  19.000  0.00  0.00    +0.000 OA
BRANCH   6   7
ATOM      7  C   UNL     1       9.406  10.409  19.143  0.00  0.00    +0.000 A 
ATOM      8  C   UNL     1       9.588  10.844  20.460  0.00  0.00    +0.000 A 
ATOM      9  C   UNL     1      10.196  12.074  20.724  0.00  0.00    +0.000 A 
ATOM     10  C   UNL     1      10.643  12.870  19.672  0.00  0.00    +0.000 A 
ATOM     11  C   UNL     1      10.481  12.434  18.359  0.00  0.00    +0.000 A 
ATOM     12  C   UNL     1       9.864  11.206  18.093  0.00  0.00    +0.000 A 
ENDBRANCH   6   7
ENDBRANCH   5   6
ENDBRANCH   2   5
BRANCH   3  13
ATOM     13  C   UNL     1       6.153   5.996  16.396  0.00  0.00    +0.000 C 
BRANCH  13  14
ATOM     14  C   UNL     1       5.257   5.477  17.494  0.00  0.00    +0.000 A 
ATOM     15  C   UNL     1       4.109   6.198  17.873  0.00  0.00    +0.000 A 
ATOM     16  C   UNL     1       3.271   5.733  18.893  0.00  0.00    +0.000 A 
ATOM     17  C   UNL     1       3.581   4.539  19.532  0.00  0.00    +0.000 A 
ATOM     18  C   UNL     1       4.714   3.819  19.162  0.00  0.00    +0.000 A 
ATOM     19  C   UNL     1       5.550   4.271  18.150  0.00  0.00    +0.000 A 
BRANCH  17  20
ATOM     20  O   UNL     1       2.800   4.028  20.532  0.00  0.00    +0.000 OA
ATOM     21  H   UNL     1       1.890   3.954  20.197  0.00  0.00    +0.000 HD
ENDBRANCH  17  20
BRANCH  18  22
ATOM     22  O   UNL     1       5.018   2.653  19.805  0.00  0.00    +0.000 OA
ATOM     23  H   UNL     1       5.818   2.323  19.347  0.00  0.00    +0.000 HD
ENDBRANCH  18  22
ENDBRANCH  13  14
ENDBRANCH   3  13
TORSDOF 7
ENDMDL
MODEL 6
REMARK VINA RESULT:      -6.8      4.843      7.786
REMARK  Name = 
REMARK  7 active torsions:
REMARK  status: ('A' for Active; 'I' for Inactive)
REMARK    1  A    between atoms: C_2  and  C_3
REMARK    2  A    between atoms: C_3  and  O_4
REMARK    3  A    between atoms: O_4  and  C_5
REMARK    4  A    between atoms: N_11  and  C_12
REMARK    5  A    between atoms: C_12  and  C_13
REMARK    6  A    between atoms: C_16  and  O_17
REMARK    7  A    between atoms: C_18  and  O_19
REMARK                            x       y       z     vdW  Elec       q    Type
REMARK                         _______ _______ _______ _____ _____    ______ ____
ROOT
ATOM      1  O   UNL     1       2.068   9.302  17.303  0.00  0.00    +0.000 OA
ATOM      2  C   UNL     1       1.744   8.921  18.426  0.00  0.00    +0.000 C 
ATOM      3  N   UNL     1       2.234   7.765  19.001  0.00  0.00    +0.000 N 
ATOM      4  H   UNL     1       1.855   7.454  19.886  0.00  0.00    +0.000 HD
ENDROOT
BRANCH   2   5
ATOM      5  C   UNL     1       0.781   9.713  19.317  0.00  0.00    +0.000 C 
BRANCH   5   6
ATOM      6  O   UNL     1       0.253  10.826  18.602  0.00  0.00    +0.000 OA
BRANCH   6   7
ATOM      7  C   UNL     1      -1.076  10.741  18.279  0.00  0.00    +0.000 A 
ATOM      8  C   UNL     1      -1.917  11.657  18.920  0.00  0.00    +0.000 A 
ATOM      9  C   UNL     1      -3.286  11.680  18.645  0.00  0.00    +0.000 A 
ATOM     10  C   UNL     1      -3.824  10.797  17.711  0.00  0.00    +0.000 A 
ATOM     11  C   UNL     1      -2.989   9.893  17.055  0.00  0.00    +0.000 A 
ATOM     12  C   UNL     1      -1.619   9.864  17.337  0.00  0.00    +0.000 A 
ENDBRANCH   6   7
ENDBRANCH   5   6
ENDBRANCH   2   5
BRANCH   3  13
ATOM     13  C   UNL     1       3.142   6.874  18.312  0.00  0.00    +0.000 C 
BRANCH  13  14
ATOM     14  C   UNL     1       2.666   5.443  18.388  0.00  0.00    +0.000 A 
ATOM     15  C   UNL     1       3.075   4.507  17.419  0.00  0.00    +0.000 A 
ATOM     16  C   UNL     1       2.638   3.179  17.473  0.00  0.00    +0.000 A 
ATOM     17  C   UNL     1       1.792   2.785  18.502  0.00  0.00    +0.000 A 
ATOM     18  C   UNL     1       1.383   3.705  19.464  0.00  0.00    +0.000 A 
ATOM     19  C   UNL     1       1.814   5.025  19.421  0.00  0.00    +0.000 A 
BRANCH  17  20
ATOM     20  O   UNL     1       1.334   1.502  18.614  0.00  0.00    +0.000 OA
ATOM     21  H   UNL     1       2.067   0.945  18.929  0.00  0.00    +0.000 HD
ENDBRANCH  17  20
BRANCH  18  22
ATOM     22  O   UNL     1       0.541   3.312  20.465  0.00  0.00    +0.000 OA
ATOM     23  H   UNL     1       0.923   2.471  20.790  0.00  0.00    +0.000 HD
ENDBRANCH  18  22
ENDBRANCH  13  14
ENDBRANCH   3  13
TORSDOF 7
ENDMDL
MODEL 7
REMARK VINA RESULT:      -6.8      4.764      6.264
REMARK  Name = 
REMARK  7 active torsions:
REMARK  status: ('A' for Active; 'I' for Inactive)
REMARK    1  A    between atoms: C_2  and  C_3
REMARK    2  A    between atoms: C_3  and  O_4
REMARK    3  A    between atoms: O_4  and  C_5
REMARK    4  A    between atoms: N_11  and  C_12
REMARK    5  A    between atoms: C_12  and  C_13
REMARK    6  A    between atoms: C_16  and  O_17
REMARK    7  A    between atoms: C_18  and  O_19
REMARK                            x       y       z     vdW  Elec       q    Type
REMARK                         _______ _______ _______ _____ _____    ______ ____
ROOT
ATOM      1  O   UNL     1       8.209   6.950  18.777  0.00  0.00    +0.000 OA
ATOM      2  C   UNL     1       7.835   7.656  17.844  0.00  0.00    +0.000 C 
ATOM      3  N   UNL     1       7.131   7.168  16.761  0.00  0.00    +0.000 N 
ATOM      4  H   UNL     1       6.937   7.779  15.980  0.00  0.00    +0.000 HD
ENDROOT
BRANCH   2   5
ATOM      5  C   UNL     1       8.088   9.168  17.805  0.00  0.00    +0.000 C 
BRANCH   5   6
ATOM      6  O   UNL     1       8.583   9.616  19.062  0.00  0.00    +0.000 OA
BRANCH   6   7
ATOM      7  C   UNL     1       9.526  10.610  19.004  0.00  0.00    +0.000 A 
ATOM      8  C   UNL     1       9.980  11.088  20.237  0.00  0.00    +0.000 A 
ATOM      9  C   UNL     1      10.961  12.081  20.297  0.00  0.00    +0.000 A 
ATOM     10  C   UNL     1      11.509  12.591  19.122  0.00  0.00    +0.000 A 
ATOM     11  C   UNL     1      11.074  12.106  17.890  0.00  0.00    +0.000 A 
ATOM     12  C   UNL     1      10.085  11.118  17.830  0.00  0.00    +0.000 A 
ENDBRANCH   6   7
ENDBRANCH   5   6
ENDBRANCH   2   5
BRANCH   3  13
ATOM     13  C   UNL     1       6.808   5.765  16.609  0.00  0.00    +0.000 C 
BRANCH  13  14
ATOM     14  C   UNL     1       5.387   5.483  17.032  0.00  0.00    +0.000 A 
ATOM     15  C   UNL     1       4.542   6.538  17.428  0.00  0.00    +0.000 A 
ATOM     16  C   UNL     1       3.224   6.291  17.828  0.00  0.00    +0.000 A 
ATOM     17  C   UNL     1       2.748   4.986  17.826  0.00  0.00    +0.000 A 
ATOM     18  C   UNL     1       3.577   3.938  17.436  0.00  0.00    +0.000 A 
ATOM     19  C   UNL     1       4.886   4.172  17.035  0.00  0.00    +0.000 A 
BRANCH  17  20
ATOM     20  O   UNL     1       1.469   4.680  18.201  0.00  0.00    +0.000 OA
ATOM     21  H   UNL     1       0.984   5.514  18.331  0.00  0.00    +0.000 HD
ENDBRANCH  17  20
BRANCH  18  22
ATOM     22  O   UNL     1       3.105   2.657  17.450  0.00  0.00    +0.000 OA
ATOM     23  H   UNL     1       3.820   2.128  17.041  0.00  0.00    +0.000 HD
ENDBRANCH  18  22
ENDBRANCH  13  14
ENDBRANCH   3  13
TORSDOF 7
ENDMDL
MODEL 8
REMARK VINA RESULT:      -6.8      4.812      6.465
REMARK  Name = 
REMARK  7 active torsions:
REMARK  status: ('A' for Active; 'I' for Inactive)
REMARK    1  A    between atoms: C_2  and  C_3
REMARK    2  A    between atoms: C_3  and  O_4
REMARK    3  A    between atoms: O_4  and  C_5
REMARK    4  A    between atoms: N_11  and  C_12
REMARK    5  A    between atoms: C_12  and  C_13
REMARK    6  A    between atoms: C_16  and  O_17
REMARK    7  A    between atoms: C_18  and  O_19
REMARK                            x       y       z     vdW  Elec       q    Type
REMARK                         _______ _______ _______ _____ _____    ______ ____
ROOT
ATOM      1  O   UNL     1       8.166   6.731  18.739  0.00  0.00    +0.000 OA
ATOM      2  C   UNL     1       7.824   7.526  17.868  0.00  0.00    +0.000 C 
ATOM      3  N   UNL     1       7.142   7.150  16.727  0.00  0.00    +0.000 N 
ATOM      4  H   UNL     1       6.975   7.834  16.002  0.00  0.00    +0.000 HD
ENDROOT
BRANCH   2   5
ATOM      5  C   UNL     1       8.097   9.031  17.975  0.00  0.00    +0.000 C 
BRANCH   5   6
ATOM      6  O   UNL     1       8.909   9.303  19.112  0.00  0.00    +0.000 OA
BRANCH   6   7
ATOM      7  C   UNL     1       9.494  10.543  19.135  0.00  0.00    +0.000 A 
ATOM      8  C   UNL     1       9.740  11.074  20.405  0.00  0.00    +0.000 A 
ATOM      9  C   UNL     1      10.358  12.319  20.548  0.00  0.00    +0.000 A 
ATOM     10  C   UNL     1      10.751  13.036  19.420  0.00  0.00    +0.000 A 
ATOM     11  C   UNL     1      10.525  12.504  18.151  0.00  0.00    +0.000 A 
ATOM     12  C   UNL     1       9.898  11.261  18.008  0.00  0.00    +0.000 A 
ENDBRANCH   6   7
ENDBRANCH   5   6
ENDBRANCH   2   5
BRANCH   3  13
ATOM     13  C   UNL     1       6.807   5.772  16.438  0.00  0.00    +0.000 C 
BRANCH  13  14
ATOM     14  C   UNL     1       5.408   5.442  16.902  0.00  0.00    +0.000 A 
ATOM     15  C   UNL     1       4.908   4.132  16.770  0.00  0.00    +0.000 A 
ATOM     16  C   UNL     1       3.612   3.812  17.190  0.00  0.00    +0.000 A 
ATOM     17  C   UNL     1       2.817   4.804  17.749  0.00  0.00    +0.000 A 
ATOM     18  C   UNL     1       3.305   6.101  17.883  0.00  0.00    +0.000 A 
ATOM     19  C   UNL     1       4.590   6.428  17.472  0.00  0.00    +0.000 A 
BRANCH  17  20
ATOM     20  O   UNL     1       1.544   4.554  18.183  0.00  0.00    +0.000 OA
ATOM     21  H   UNL     1       1.016   5.359  18.049  0.00  0.00    +0.000 HD
ENDBRANCH  17  20
BRANCH  18  22
ATOM     22  O   UNL     1       2.510   7.073  18.422  0.00  0.00    +0.000 OA
ATOM     23  H   UNL     1       2.255   7.631  17.659  0.00  0.00    +0.000 HD
ENDBRANCH  18  22
ENDBRANCH  13  14
ENDBRANCH   3  13
TORSDOF 7
ENDMDL
MODEL 9
REMARK VINA RESULT:      -6.7      3.154      5.138
REMARK  Name = 
REMARK  7 active torsions:
REMARK  status: ('A' for Active; 'I' for Inactive)
REMARK    1  A    between atoms: C_2  and  C_3
REMARK    2  A    between atoms: C_3  and  O_4
REMARK    3  A    between atoms: O_4  and  C_5
REMARK    4  A    between atoms: N_11  and  C_12
REMARK    5  A    between atoms: C_12  and  C_13
REMARK    6  A    between atoms: C_16  and  O_17
REMARK    7  A    between atoms: C_18  and  O_19
REMARK                            x       y       z     vdW  Elec       q    Type
REMARK                         _______ _______ _______ _____ _____    ______ ____
ROOT
ATOM      1  O   UNL     1       1.603   3.251  20.185  0.00  0.00    +0.000 OA
ATOM      2  C   UNL     1       2.717   3.766  20.138  0.00  0.00    +0.000 C 
ATOM      3  N   UNL     1       2.947   5.097  20.427  0.00  0.00    +0.000 N 
ATOM      4  H   UNL     1       3.868   5.485  20.275  0.00  0.00    +0.000 HD
ENDROOT
BRANCH   2   5
ATOM      5  C   UNL     1       3.977   2.970  19.782  0.00  0.00    +0.000 C 
BRANCH   5   6
ATOM      6  O   UNL     1       4.214   3.027  18.379  0.00  0.00    +0.000 OA
BRANCH   6   7
ATOM      7  C   UNL     1       4.908   4.126  17.943  0.00  0.00    +0.000 A 
ATOM      8  C   UNL     1       4.476   4.675  16.731  0.00  0.00    +0.000 A 
ATOM      9  C   UNL     1       5.093   5.813  16.206  0.00  0.00    +0.000 A 
ATOM     10  C   UNL     1       6.137   6.423  16.899  0.00  0.00    +0.000 A 
ATOM     11  C   UNL     1       6.561   5.891  18.116  0.00  0.00    +0.000 A 
ATOM     12  C   UNL     1       5.948   4.746  18.637  0.00  0.00    +0.000 A 
ENDBRANCH   6   7
ENDBRANCH   5   6
ENDBRANCH   2   5
BRANCH   3  13
ATOM     13  C   UNL     1       1.882   6.016  20.769  0.00  0.00    +0.000 C 
BRANCH  13  14
ATOM     14  C   UNL     1       1.904   7.233  19.876  0.00  0.00    +0.000 A 
ATOM     15  C   UNL     1       2.537   7.180  18.620  0.00  0.00    +0.000 A 
ATOM     16  C   UNL     1       2.570   8.302  17.784  0.00  0.00    +0.000 A 
ATOM     17  C   UNL     1       1.963   9.478  18.204  0.00  0.00    +0.000 A 
ATOM     18  C   UNL     1       1.334   9.538  19.445  0.00  0.00    +0.000 A 
ATOM     19  C   UNL     1       1.293   8.430  20.280  0.00  0.00    +0.000 A 
BRANCH  17  20
ATOM     20  O   UNL     1       1.955  10.607  17.432  0.00  0.00    +0.000 OA
ATOM     21  H   UNL     1       1.030  10.867  17.285  0.00  0.00    +0.000 HD
ENDBRANCH  17  20
BRANCH  18  22
ATOM     22  O   UNL     1       0.750  10.703  19.855  0.00  0.00    +0.000 OA
ATOM     23  H   UNL     1      -0.029  10.416  20.374  0.00  0.00    +0.000 HD
ENDBRANCH  18  22
ENDBRANCH  13  14
ENDBRANCH   3  13
TORSDOF 7
ENDMDL
