MODEL 1
REMARK VINA RESULT:      -6.7      0.000      0.000
REMARK  Name = 
REMARK  5 active torsions:
REMARK  status: ('A' for Active; 'I' for Inactive)
REMARK    1  A    between atoms: C_2  and  C_3
REMARK    2  A    between atoms: C_6  and  C_7
REMARK    3  A    between atoms: C_7  and  O_9
REMARK    4  A    between atoms: O_9  and  C_10
REMARK    5  A    between atoms: C_10  and  C_11
REMARK                            x       y       z     vdW  Elec       q    Type
REMARK                         _______ _______ _______ _____ _____    ______ ____
ROOT
ATOM      1  C   UNL     1       3.975   5.849  17.530  0.00  0.00    +0.000 C 
ATOM      2  O   UNL     1       5.112   6.097  17.161  0.00  0.00    +0.000 OA
ENDROOT
BRANCH   1   6
ATOM      3  C   UNL     1       1.465   8.659  19.575  0.00  0.00    +0.000 A 
ATOM      4  C   UNL     1       1.934   8.928  18.286  0.00  0.00    +0.000 A 
ATOM      5  C   UNL     1       2.762   8.006  17.642  0.00  0.00    +0.000 A 
ATOM      6  C   UNL     1       3.127   6.812  18.281  0.00  0.00    +0.000 A 
ATOM      7  C   UNL     1       2.642   6.546  19.572  0.00  0.00    +0.000 A 
ATOM      8  C   UNL     1       1.815   7.469  20.220  0.00  0.00    +0.000 A 
BRANCH   3  10
ATOM      9  O   UNL     1       0.404  10.759  19.827  0.00  0.00    +0.000 OA
ATOM     10  C   UNL     1       0.597   9.632  20.266  0.00  0.00    +0.000 C 
ENDBRANCH   3  10
ENDBRANCH   1   6
BRANCH   1  11
ATOM     11  O   UNL     1       3.294   4.703  17.282  0.00  0.00    +0.000 OA
BRANCH  11  12
ATOM     12  C   UNL     1       4.058   3.514  17.509  0.00  0.00    +0.000 C 
BRANCH  12  13
ATOM     13  C   UNL     1       4.153   3.237  19.012  0.00  0.00    +0.000 C 
ATOM     14  O   UNL     1       5.238   3.253  19.606  0.00  0.00    +0.000 OA
ATOM     15  N   UNL     1       2.978   2.967  19.676  0.00  0.00    +0.000 N 
ATOM     16  C   UNL     1       1.646   2.858  19.119  0.00  0.00    +0.000 C 
ATOM     17  C   UNL     1       0.757   3.281  20.273  0.00  0.00    +0.000 C 
ATOM     18  C   UNL     1       1.488   2.749  21.503  0.00  0.00    +0.000 C 
ATOM     19  C   UNL     1       2.964   2.736  21.109  0.00  0.00    +0.000 C 
ENDBRANCH  12  13
ENDBRANCH  11  12
ENDBRANCH   1  11
TORSDOF 5
ENDMDL
MODEL 2
REMARK VINA RESULT:      -6.7      3.579      5.984
REMARK  Name = 
REMARK  5 active torsions:
REMARK  status: ('A' for Active; 'I' for Inactive)
REMARK    1  A    between atoms: C_2  and  C_3
REMARK    2  A    between atoms: C_6  and  C_7
REMARK    3  A    between atoms: C_7  and  O_9
REMARK    4  A    between atoms: O_9  and  C_10
REMARK    5  A    between atoms: C_10  and  C_11
REMARK                            x       y       z     vdW  Elec       q    Type
REMARK                         _______ _______ _______ _____ _____    ______ ____
ROOT
ATOM      1  C   UNL     1       4.215   5.875  17.238  0.00  0.00    +0.000 C 
ATOM      2  O   UNL     1       4.509   7.058  17.306  0.00  0.00    +0.000 OA
ENDROOT
BRANCH   1   6
ATOM      3  C   UNL     1       1.884   3.729  20.125  0.00  0.00    +0.000 A 
ATOM      4  C   UNL     1       1.635   3.583  18.758  0.00  0.00    +0.000 A 
ATOM      5  C   UNL     1       2.396   4.302  17.833  0.00  0.00    +0.000 A 
ATOM      6  C   UNL     1       3.408   5.169  18.268  0.00  0.00    +0.000 A 
ATOM      7  C   UNL     1       3.658   5.301  19.644  0.00  0.00    +0.000 A 
ATOM      8  C   UNL     1       2.895   4.585  20.572  0.00  0.00    +0.000 A 
BRANCH   3  10
ATOM      9  O   UNL     1       1.575   2.478  22.110  0.00  0.00    +0.000 OA
ATOM     10  C   UNL     1       1.079   2.980  21.109  0.00  0.00    +0.000 C 
ENDBRANCH   3  10
ENDBRANCH   1   6
BRANCH   1  11
ATOM     11  O   UNL     1       4.523   5.040  16.215  0.00  0.00    +0.000 OA
BRANCH  11  12
ATOM     12  C   UNL     1       5.794   4.397  16.354  0.00  0.00    +0.000 C 
BRANCH  12  13
ATOM     13  C   UNL     1       6.799   5.019  15.380  0.00  0.00    +0.000 C 
ATOM     14  O   UNL     1       7.674   5.802  15.766  0.00  0.00    +0.000 OA
ATOM     15  N   UNL     1       6.685   4.670  14.053  0.00  0.00    +0.000 N 
ATOM     16  C   UNL     1       5.690   3.816  13.440  0.00  0.00    +0.000 C 
ATOM     17  C   UNL     1       6.428   3.228  12.252  0.00  0.00    +0.000 C 
ATOM     18  C   UNL     1       7.341   4.365  11.799  0.00  0.00    +0.000 C 
ATOM     19  C   UNL     1       7.619   5.174  13.064  0.00  0.00    +0.000 C 
ENDBRANCH  12  13
ENDBRANCH  11  12
ENDBRANCH   1  11
TORSDOF 5
ENDMDL
MODEL 3
REMARK VINA RESULT:      -6.6      3.170      5.271
REMARK  Name = 
REMARK  5 active torsions:
REMARK  status: ('A' for Active; 'I' for Inactive)
REMARK    1  A    between atoms: C_2  and  C_3
REMARK    2  A    between atoms: C_6  and  C_7
REMARK    3  A    between atoms: C_7  and  O_9
REMARK    4  A    between atoms: O_9  and  C_10
REMARK    5  A    between atoms: C_10  and  C_11
REMARK                            x       y       z     vdW  Elec       q    Type
REMARK                         _______ _______ _______ _____ _____    ______ ____
ROOT
ATOM      1  C   UNL     1       7.181   6.026  18.484  0.00  0.00    +0.000 C 
ATOM      2  O   UNL     1       8.025   6.892  18.652  0.00  0.00    +0.000 OA
ENDROOT
BRANCH   1   6
ATOM      3  C   UNL     1       5.871   4.588  14.664  0.00  0.00    +0.000 A 
ATOM      4  C   UNL     1       6.791   3.859  15.423  0.00  0.00    +0.000 A 
ATOM      5  C   UNL     1       7.217   4.351  16.659  0.00  0.00    +0.000 A 
ATOM      6  C   UNL     1       6.727   5.573  17.143  0.00  0.00    +0.000 A 
ATOM      7  C   UNL     1       5.794   6.293  16.378  0.00  0.00    +0.000 A 
ATOM      8  C   UNL     1       5.369   5.803  15.139  0.00  0.00    +0.000 A 
BRANCH   3  10
ATOM      9  O   UNL     1       6.197   3.563  12.557  0.00  0.00    +0.000 OA
ATOM     10  C   UNL     1       5.423   4.079  13.354  0.00  0.00    +0.000 C 
ENDBRANCH   3  10
ENDBRANCH   1   6
BRANCH   1  11
ATOM     11  O   UNL     1       6.569   5.316  19.463  0.00  0.00    +0.000 OA
BRANCH  11  12
ATOM     12  C   UNL     1       5.140   5.384  19.422  0.00  0.00    +0.000 C 
BRANCH  12  13
ATOM     13  C   UNL     1       4.550   3.979  19.565  0.00  0.00    +0.000 C 
ATOM     14  O   UNL     1       5.269   2.973  19.580  0.00  0.00    +0.000 OA
ATOM     15  N   UNL     1       3.181   3.881  19.674  0.00  0.00    +0.000 N 
ATOM     16  C   UNL     1       2.205   4.949  19.620  0.00  0.00    +0.000 C 
ATOM     17  C   UNL     1       1.072   4.421  20.479  0.00  0.00    +0.000 C 
ATOM     18  C   UNL     1       1.083   2.919  20.206  0.00  0.00    +0.000 C 
ATOM     19  C   UNL     1       2.535   2.594  19.857  0.00  0.00    +0.000 C 
ENDBRANCH  12  13
ENDBRANCH  11  12
ENDBRANCH   1  11
TORSDOF 5
ENDMDL
MODEL 4
REMARK VINA RESULT:      -6.4      3.481      6.152
REMARK  Name = 
REMARK  5 active torsions:
REMARK  status: ('A' for Active; 'I' for Inactive)
REMARK    1  A    between atoms: C_2  and  C_3
REMARK    2  A    between atoms: C_6  and  C_7
REMARK    3  A    between atoms: C_7  and  O_9
REMARK    4  A    between atoms: O_9  and  C_10
REMARK    5  A    between atoms: C_10  and  C_11
REMARK                            x       y       z     vdW  Elec       q    Type
REMARK                         _______ _______ _______ _____ _____    ______ ____
ROOT
ATOM      1  C   UNL     1       7.033   5.663  16.608  0.00  0.00    +0.000 C 
ATOM      2  O   UNL     1       7.586   6.751  16.646  0.00  0.00    +0.000 OA
ENDROOT
BRANCH   1   6
ATOM      3  C   UNL     1       5.800   3.736  12.983  0.00  0.00    +0.000 A 
ATOM      4  C   UNL     1       4.973   3.730  14.110  0.00  0.00    +0.000 A 
ATOM      5  C   UNL     1       5.399   4.351  15.286  0.00  0.00    +0.000 A 
ATOM      6  C   UNL     1       6.651   4.980  15.344  0.00  0.00    +0.000 A 
ATOM      7  C   UNL     1       7.471   4.989  14.203  0.00  0.00    +0.000 A 
ATOM      8  C   UNL     1       7.048   4.365  13.025  0.00  0.00    +0.000 A 
BRANCH   3  10
ATOM      9  O   UNL     1       5.581   1.889  11.520  0.00  0.00    +0.000 OA
ATOM     10  C   UNL     1       5.362   3.074  11.739  0.00  0.00    +0.000 C 
ENDBRANCH   3  10
ENDBRANCH   1   6
BRANCH   1  11
ATOM     11  O   UNL     1       6.729   4.892  17.681  0.00  0.00    +0.000 OA
BRANCH  11  12
ATOM     12  C   UNL     1       5.820   5.509  18.599  0.00  0.00    +0.000 C 
BRANCH  12  13
ATOM     13  C   UNL     1       4.920   4.444  19.231  0.00  0.00    +0.000 C 
ATOM     14  O   UNL     1       5.331   3.301  19.461  0.00  0.00    +0.000 OA
ATOM     15  N   UNL     1       3.628   4.813  19.532  0.00  0.00    +0.000 N 
ATOM     16  C   UNL     1       2.983   6.084  19.278  0.00  0.00    +0.000 C 
ATOM     17  C   UNL     1       1.954   6.174  20.389  0.00  0.00    +0.000 C 
ATOM     18  C   UNL     1       1.507   4.727  20.583  0.00  0.00    +0.000 C 
ATOM     19  C   UNL     1       2.714   3.885  20.173  0.00  0.00    +0.000 C 
ENDBRANCH  12  13
ENDBRANCH  11  12
ENDBRANCH   1  11
TORSDOF 5
ENDMDL
MODEL 5
REMARK VINA RESULT:      -6.4      3.463      4.048
REMARK  Name = 
REMARK  5 active torsions:
REMARK  status: ('A' for Active; 'I' for Inactive)
REMARK    1  A    between atoms: C_2  and  C_3
REMARK    2  A    between atoms: C_6  and  C_7
REMARK    3  A    between atoms: C_7  and  O_9
REMARK    4  A    between atoms: O_9  and  C_10
REMARK    5  A    between atoms: C_10  and  C_11
REMARK                            x       y       z     vdW  Elec       q    Type
REMARK                         _______ _______ _______ _____ _____    ______ ____
ROOT
ATOM      1  C   UNL     1       5.084   4.372  16.346  0.00  0.00    +0.000 C 
ATOM      2  O   UNL     1       5.221   3.898  15.229  0.00  0.00    +0.000 OA
ENDROOT
BRANCH   1   6
ATOM      3  C   UNL     1       7.701   7.304  18.057  0.00  0.00    +0.000 A 
ATOM      4  C   UNL     1       6.787   7.660  17.062  0.00  0.00    +0.000 A 
ATOM      5  C   UNL     1       5.952   6.687  16.506  0.00  0.00    +0.000 A 
ATOM      6  C   UNL     1       6.027   5.356  16.941  0.00  0.00    +0.000 A 
ATOM      7  C   UNL     1       6.942   5.010  17.949  0.00  0.00    +0.000 A 
ATOM      8  C   UNL     1       7.781   5.982  18.504  0.00  0.00    +0.000 A 
BRANCH   3  10
ATOM      9  O   UNL     1       8.424   9.522  18.453  0.00  0.00    +0.000 OA
ATOM     10  C   UNL     1       8.593   8.324  18.642  0.00  0.00    +0.000 C 
ENDBRANCH   3  10
ENDBRANCH   1   6
BRANCH   1  11
ATOM     11  O   UNL     1       4.051   4.128  17.188  0.00  0.00    +0.000 OA
BRANCH  11  12
ATOM     12  C   UNL     1       3.987   2.774  17.650  0.00  0.00    +0.000 C 
BRANCH  12  13
ATOM     13  C   UNL     1       4.046   2.745  19.180  0.00  0.00    +0.000 C 
ATOM     14  O   UNL     1       5.123   2.754  19.787  0.00  0.00    +0.000 OA
ATOM     15  N   UNL     1       2.846   2.705  19.853  0.00  0.00    +0.000 N 
ATOM     16  C   UNL     1       1.512   2.635  19.293  0.00  0.00    +0.000 C 
ATOM     17  C   UNL     1       0.664   3.330  20.341  0.00  0.00    +0.000 C 
ATOM     18  C   UNL     1       1.331   2.942  21.658  0.00  0.00    +0.000 C 
ATOM     19  C   UNL     1       2.801   2.719  21.304  0.00  0.00    +0.000 C 
ENDBRANCH  12  13
ENDBRANCH  11  12
ENDBRANCH   1  11
TORSDOF 5
ENDMDL
MODEL 6
REMARK VINA RESULT:      -6.4      3.516      6.249
REMARK  Name = 
REMARK  5 active torsions:
REMARK  status: ('A' for Active; 'I' for Inactive)
REMARK    1  A    between atoms: C_2  and  C_3
REMARK    2  A    between atoms: C_6  and  C_7
REMARK    3  A    between atoms: C_7  and  O_9
REMARK    4  A    between atoms: O_9  and  C_10
REMARK    5  A    between atoms: C_10  and  C_11
REMARK                            x       y       z     vdW  Elec       q    Type
REMARK                         _______ _______ _______ _____ _____    ______ ____
ROOT
ATOM      1  C   UNL     1       5.834   5.193  18.860  0.00  0.00    +0.000 C 
ATOM      2  O   UNL     1       6.634   5.257  19.780  0.00  0.00    +0.000 OA
ENDROOT
BRANCH   1   6
ATOM      3  C   UNL     1       2.128   3.072  19.240  0.00  0.00    +0.000 A 
ATOM      4  C   UNL     1       3.340   2.449  19.547  0.00  0.00    +0.000 A 
ATOM      5  C   UNL     1       4.538   3.152  19.403  0.00  0.00    +0.000 A 
ATOM      6  C   UNL     1       4.532   4.480  18.952  0.00  0.00    +0.000 A 
ATOM      7  C   UNL     1       3.308   5.101  18.655  0.00  0.00    +0.000 A 
ATOM      8  C   UNL     1       2.107   4.398  18.796  0.00  0.00    +0.000 A 
BRANCH   3  10
ATOM      9  O   UNL     1       0.101   2.156  18.435  0.00  0.00    +0.000 OA
ATOM     10  C   UNL     1       0.858   2.333  19.380  0.00  0.00    +0.000 C 
ENDBRANCH   3  10
ENDBRANCH   1   6
BRANCH   1  11
ATOM     11  O   UNL     1       5.970   5.788  17.649  0.00  0.00    +0.000 OA
BRANCH  11  12
ATOM     12  C   UNL     1       5.885   4.882  16.545  0.00  0.00    +0.000 C 
BRANCH  12  13
ATOM     13  C   UNL     1       6.863   5.311  15.447  0.00  0.00    +0.000 C 
ATOM     14  O   UNL     1       7.802   6.080  15.681  0.00  0.00    +0.000 OA
ATOM     15  N   UNL     1       6.650   4.804  14.184  0.00  0.00    +0.000 N 
ATOM     16  C   UNL     1       5.573   3.944  13.740  0.00  0.00    +0.000 C 
ATOM     17  C   UNL     1       6.205   3.165  12.602  0.00  0.00    +0.000 C 
ATOM     18  C   UNL     1       7.151   4.175  11.957  0.00  0.00    +0.000 C 
ATOM     19  C   UNL     1       7.550   5.119  13.090  0.00  0.00    +0.000 C 
ENDBRANCH  12  13
ENDBRANCH  11  12
ENDBRANCH   1  11
TORSDOF 5
ENDMDL
MODEL 7
REMARK VINA RESULT:      -6.4      2.570      4.771
REMARK  Name = 
REMARK  5 active torsions:
REMARK  status: ('A' for Active; 'I' for Inactive)
REMARK    1  A    between atoms: C_2  and  C_3
REMARK    2  A    between atoms: C_6  and  C_7
REMARK    3  A    between atoms: C_7  and  O_9
REMARK    4  A    between atoms: O_9  and  C_10
REMARK    5  A    between atoms: C_10  and  C_11
REMARK                            x       y       z     vdW  Elec       q    Type
REMARK                         _______ _______ _______ _____ _____    ______ ____
ROOT
ATOM      1  C   UNL     1       3.474   2.296  17.908  0.00  0.00    +0.000 C 
ATOM      2  O   UNL     1       3.749   1.125  18.120  0.00  0.00    +0.000 OA
ENDROOT
BRANCH   1   6
ATOM      3  C   UNL     1       6.338   5.472  17.608  0.00  0.00    +0.000 A 
ATOM      4  C   UNL     1       5.773   4.911  16.459  0.00  0.00    +0.000 A 
ATOM      5  C   UNL     1       4.852   3.867  16.577  0.00  0.00    +0.000 A 
ATOM      6  C   UNL     1       4.492   3.379  17.841  0.00  0.00    +0.000 A 
ATOM      7  C   UNL     1       5.057   3.955  18.990  0.00  0.00    +0.000 A 
ATOM      8  C   UNL     1       5.982   4.999  18.874  0.00  0.00    +0.000 A 
BRANCH   3  10
ATOM      9  O   UNL     1       7.732   6.959  16.407  0.00  0.00    +0.000 OA
ATOM     10  C   UNL     1       7.318   6.569  17.492  0.00  0.00    +0.000 C 
ENDBRANCH   3  10
ENDBRANCH   1   6
BRANCH   1  11
ATOM     11  O   UNL     1       2.236   2.786  17.655  0.00  0.00    +0.000 OA
BRANCH  11  12
ATOM     12  C   UNL     1       1.272   2.475  18.666  0.00  0.00    +0.000 C 
BRANCH  12  13
ATOM     13  C   UNL     1       1.412   3.456  19.834  0.00  0.00    +0.000 C 
ATOM     14  O   UNL     1       1.342   3.078  21.009  0.00  0.00    +0.000 OA
ATOM     15  N   UNL     1       1.619   4.781  19.520  0.00  0.00    +0.000 N 
ATOM     16  C   UNL     1       1.670   5.386  18.206  0.00  0.00    +0.000 C 
ATOM     17  C   UNL     1       2.593   6.572  18.412  0.00  0.00    +0.000 C 
ATOM     18  C   UNL     1       2.271   7.035  19.831  0.00  0.00    +0.000 C 
ATOM     19  C   UNL     1       1.807   5.776  20.560  0.00  0.00    +0.000 C 
ENDBRANCH  12  13
ENDBRANCH  11  12
ENDBRANCH   1  11
TORSDOF 5
ENDMDL
MODEL 8
REMARK VINA RESULT:      -6.3      3.609      6.075
REMARK  Name = 
REMARK  5 active torsions:
REMARK  status: ('A' for Active; 'I' for Inactive)
REMARK    1  A    between atoms: C_2  and  C_3
REMARK    2  A    between atoms: C_6  and  C_7
REMARK    3  A    between atoms: C_7  and  O_9
REMARK    4  A    between atoms: O_9  and  C_10
REMARK    5  A    between atoms: C_10  and  C_11
REMARK                            x       y       z     vdW  Elec       q    Type
REMARK                         _______ _______ _______ _____ _____    ______ ____
ROOT
ATOM      1  C   UNL     1       5.233   5.608  18.028  0.00  0.00    +0.000 C 
ATOM      2  O   UNL     1       6.185   6.222  18.483  0.00  0.00    +0.000 OA
ENDROOT
BRANCH   1   6
ATOM      3  C   UNL     1       2.302   3.543  20.378  0.00  0.00    +0.000 A 
ATOM      4  C   UNL     1       2.043   4.823  19.881  0.00  0.00    +0.000 A 
ATOM      5  C   UNL     1       3.016   5.486  19.129  0.00  0.00    +0.000 A 
ATOM      6  C   UNL     1       4.251   4.874  18.871  0.00  0.00    +0.000 A 
ATOM      7  C   UNL     1       4.498   3.583  19.366  0.00  0.00    +0.000 A 
ATOM      8  C   UNL     1       3.526   2.919  20.121  0.00  0.00    +0.000 A 
BRANCH   3  10
ATOM      9  O   UNL     1       1.516   2.422  22.308  0.00  0.00    +0.000 OA
ATOM     10  C   UNL     1       1.282   2.840  21.181  0.00  0.00    +0.000 C 
ENDBRANCH   3  10
ENDBRANCH   1   6
BRANCH   1  11
ATOM     11  O   UNL     1       4.889   5.536  16.719  0.00  0.00    +0.000 OA
BRANCH  11  12
ATOM     12  C   UNL     1       5.398   4.378  16.049  0.00  0.00    +0.000 C 
BRANCH  12  13
ATOM     13  C   UNL     1       6.504   4.789  15.072  0.00  0.00    +0.000 C 
ATOM     14  O   UNL     1       7.484   5.446  15.443  0.00  0.00    +0.000 OA
ATOM     15  N   UNL     1       6.359   4.398  13.760  0.00  0.00    +0.000 N 
ATOM     16  C   UNL     1       5.254   3.680  13.162  0.00  0.00    +0.000 C 
ATOM     17  C   UNL     1       5.912   2.929  12.020  0.00  0.00    +0.000 C 
ATOM     18  C   UNL     1       6.998   3.887  11.538  0.00  0.00    +0.000 C 
ATOM     19  C   UNL     1       7.378   4.704  12.772  0.00  0.00    +0.000 C 
ENDBRANCH  12  13
ENDBRANCH  11  12
ENDBRANCH   1  11
TORSDOF 5
ENDMDL
MODEL 9
REMARK VINA RESULT:      -6.3      3.498      6.210
REMARK  Name = 
REMARK  5 active torsions:
REMARK  status: ('A' for Active; 'I' for Inactive)
REMARK    1  A    between atoms: C_2  and  C_3
REMARK    2  A    between atoms: C_6  and  C_7
REMARK    3  A    between atoms: C_7  and  O_9
REMARK    4  A    between atoms: O_9  and  C_10
REMARK    5  A    between atoms: C_10  and  C_11
REMARK                            x       y       z     vdW  Elec       q    Type
REMARK                         _______ _______ _______ _____ _____    ______ ____
ROOT
ATOM      1  C   UNL     1       7.048   5.688  16.538  0.00  0.00    +0.000 C 
ATOM      2  O   UNL     1       7.583   6.785  16.554  0.00  0.00    +0.000 OA
ENDROOT
BRANCH   1   6
ATOM      3  C   UNL     1       5.900   3.695  12.920  0.00  0.00    +0.000 A 
ATOM      4  C   UNL     1       7.106   4.397  12.994  0.00  0.00    +0.000 A 
ATOM      5  C   UNL     1       7.456   5.053  14.178  0.00  0.00    +0.000 A 
ATOM      6  C   UNL     1       6.604   5.009  15.291  0.00  0.00    +0.000 A 
ATOM      7  C   UNL     1       5.399   4.291  15.210  0.00  0.00    +0.000 A 
ATOM      8  C   UNL     1       5.046   3.637  14.025  0.00  0.00    +0.000 A 
BRANCH   3  10
ATOM      9  O   UNL     1       4.350   2.881  11.328  0.00  0.00    +0.000 OA
ATOM     10  C   UNL     1       5.519   3.008  11.671  0.00  0.00    +0.000 C 
ENDBRANCH   3  10
ENDBRANCH   1   6
BRANCH   1  11
ATOM     11  O   UNL     1       6.820   4.902  17.619  0.00  0.00    +0.000 OA
BRANCH  11  12
ATOM     12  C   UNL     1       6.100   5.555  18.669  0.00  0.00    +0.000 C 
BRANCH  12  13
ATOM     13  C   UNL     1       4.628   5.703  18.274  0.00  0.00    +0.000 C 
ATOM     14  O   UNL     1       4.161   6.789  17.910  0.00  0.00    +0.000 OA
ATOM     15  N   UNL     1       3.843   4.574  18.345  0.00  0.00    +0.000 N 
ATOM     16  C   UNL     1       4.223   3.253  18.800  0.00  0.00    +0.000 C 
ATOM     17  C   UNL     1       3.301   2.342  18.012  0.00  0.00    +0.000 C 
ATOM     18  C   UNL     1       2.007   3.145  17.905  0.00  0.00    +0.000 C 
ATOM     19  C   UNL     1       2.447   4.607  17.948  0.00  0.00    +0.000 C 
ENDBRANCH  12  13
ENDBRANCH  11  12
ENDBRANCH   1  11
TORSDOF 5
ENDMDL
