MODEL 1
REMARK VINA RESULT:      -7.6      0.000      0.000
REMARK  Name = 
REMARK  5 active torsions:
REMARK  status: ('A' for Active; 'I' for Inactive)
REMARK    1  A    between atoms: C_1  and  N_2
REMARK    2  A    between atoms: N_2  and  C_3
REMARK    3  A    between atoms: N_2  and  C_13
REMARK    4  A    between atoms: C_3  and  C_4
REMARK    5  A    between atoms: C_7  and  C_8
REMARK                            x       y       z     vdW  Elec       q    Type
REMARK                         _______ _______ _______ _____ _____    ______ ____
ROOT
ATOM      1  C   UNL     1       6.819   5.466  19.443  0.00  0.00    +0.000 C 
ATOM      2  N   UNL     1       5.439   5.466  18.913  0.00  0.00    +0.000 N 
ENDROOT
BRANCH   2   3
ATOM      3  C   UNL     1       4.674   4.395  19.342  0.00  0.00    +0.000 A 
ATOM      4  N   UNL     1       5.392   3.253  19.410  0.00  0.00    +0.000 NA
ATOM      5  C   UNL     1       4.764   2.095  19.456  0.00  0.00    +0.000 A 
ATOM      6  N   UNL     1       3.451   1.944  19.428  0.00  0.00    +0.000 NA
ATOM      7  C   UNL     1       2.737   3.039  19.580  0.00  0.00    +0.000 A 
ATOM      8  C   UNL     1       1.391   2.799  19.756  0.00  0.00    +0.000 A 
ATOM      9  C   UNL     1       0.535   3.769  20.238  0.00  0.00    +0.000 A 
ATOM     10  C   UNL     1       1.040   5.037  20.505  0.00  0.00    +0.000 A 
ATOM     11  C   UNL     1       2.374   5.345  20.178  0.00  0.00    +0.000 A 
ATOM     12  C   UNL     1       3.285   4.347  19.678  0.00  0.00    +0.000 A 
ENDBRANCH   2   3
BRANCH   2  13
ATOM     13  C   UNL     1       5.269   6.257  17.697  0.00  0.00    +0.000 C 
BRANCH  13  14
ATOM     14  C   UNL     1       5.708   5.475  16.469  0.00  0.00    +0.000 A 
ATOM     15  C   UNL     1       7.005   5.567  15.938  0.00  0.00    +0.000 A 
ATOM     16  C   UNL     1       7.340   4.959  14.727  0.00  0.00    +0.000 A 
ATOM     17  C   UNL     1       6.375   4.238  14.025  0.00  0.00    +0.000 A 
ATOM     18  C   UNL     1       5.115   4.036  14.608  0.00  0.00    +0.000 A 
ATOM     19  C   UNL     1       4.787   4.638  15.826  0.00  0.00    +0.000 A 
BRANCH  17  20
ATOM     20  C   UNL     1       6.589   3.724  12.644  0.00  0.00    +0.000 C 
ATOM     21  N   UNL     1       6.015   2.536  12.287  0.00  0.00    +0.000 N 
ATOM     22  O   UNL     1       7.302   4.319  11.845  0.00  0.00    +0.000 OA
ATOM     23  H   UNL     1       5.469   1.946  12.894  0.00  0.00    +0.000 HD
ATOM     24  H   UNL     1       6.263   2.174  11.375  0.00  0.00    +0.000 HD
ENDBRANCH  17  20
ENDBRANCH  13  14
ENDBRANCH   2  13
TORSDOF 4
ENDMDL
MODEL 2
REMARK VINA RESULT:      -7.5      1.771      2.464
REMARK  Name = 
REMARK  5 active torsions:
REMARK  status: ('A' for Active; 'I' for Inactive)
REMARK    1  A    between atoms: C_1  and  N_2
REMARK    2  A    between atoms: N_2  and  C_3
REMARK    3  A    between atoms: N_2  and  C_13
REMARK    4  A    between atoms: C_3  and  C_4
REMARK    5  A    between atoms: C_7  and  C_8
REMARK                            x       y       z     vdW  Elec       q    Type
REMARK                         _______ _______ _______ _____ _____    ______ ____
ROOT
ATOM      1  C   UNL     1       4.026   7.595  17.142  0.00  0.00    +0.000 C 
ATOM      2  N   UNL     1       4.091   6.266  17.788  0.00  0.00    +0.000 N 
ENDROOT
BRANCH   2   3
ATOM      3  C   UNL     1       3.031   6.004  18.638  0.00  0.00    +0.000 A 
ATOM      4  N   UNL     1       2.662   7.096  19.341  0.00  0.00    +0.000 NA
ATOM      5  C   UNL     1       1.926   6.951  20.425  0.00  0.00    +0.000 A 
ATOM      6  N   UNL     1       1.513   5.793  20.910  0.00  0.00    +0.000 NA
ATOM      7  C   UNL     1       1.676   4.745  20.131  0.00  0.00    +0.000 A 
ATOM      8  C   UNL     1       1.041   3.611  20.592  0.00  0.00    +0.000 A 
ATOM      9  C   UNL     1       0.829   2.515  19.780  0.00  0.00    +0.000 A 
ATOM     10  C   UNL     1       1.313   2.540  18.477  0.00  0.00    +0.000 A 
ATOM     11  C   UNL     1       2.104   3.621  18.042  0.00  0.00    +0.000 A 
ATOM     12  C   UNL     1       2.335   4.777  18.871  0.00  0.00    +0.000 A 
ENDBRANCH   2   3
BRANCH   2  13
ATOM     13  C   UNL     1       5.431   5.688  17.824  0.00  0.00    +0.000 C 
BRANCH  13  14
ATOM     14  C   UNL     1       5.788   5.049  16.491  0.00  0.00    +0.000 A 
ATOM     15  C   UNL     1       6.896   5.455  15.730  0.00  0.00    +0.000 A 
ATOM     16  C   UNL     1       7.117   4.959  14.443  0.00  0.00    +0.000 A 
ATOM     17  C   UNL     1       6.226   4.036  13.895  0.00  0.00    +0.000 A 
ATOM     18  C   UNL     1       5.189   3.532  14.695  0.00  0.00    +0.000 A 
ATOM     19  C   UNL     1       4.978   4.024  15.985  0.00  0.00    +0.000 A 
BRANCH  17  20
ATOM     20  C   UNL     1       6.275   3.605  12.471  0.00  0.00    +0.000 C 
ATOM     21  N   UNL     1       5.136   3.125  11.888  0.00  0.00    +0.000 N 
ATOM     22  O   UNL     1       7.321   3.628  11.834  0.00  0.00    +0.000 OA
ATOM     23  H   UNL     1       4.249   3.007  12.351  0.00  0.00    +0.000 HD
ATOM     24  H   UNL     1       5.233   2.753  10.953  0.00  0.00    +0.000 HD
ENDBRANCH  17  20
ENDBRANCH  13  14
ENDBRANCH   2  13
TORSDOF 4
ENDMDL
MODEL 3
REMARK VINA RESULT:      -7.5      1.387      2.127
REMARK  Name = 
REMARK  5 active torsions:
REMARK  status: ('A' for Active; 'I' for Inactive)
REMARK    1  A    between atoms: C_1  and  N_2
REMARK    2  A    between atoms: N_2  and  C_3
REMARK    3  A    between atoms: N_2  and  C_13
REMARK    4  A    between atoms: C_3  and  C_4
REMARK    5  A    between atoms: C_7  and  C_8
REMARK                            x       y       z     vdW  Elec       q    Type
REMARK                         _______ _______ _______ _____ _____    ______ ____
ROOT
ATOM      1  C   UNL     1       5.939   4.897  19.156  0.00  0.00    +0.000 C 
ATOM      2  N   UNL     1       4.944   5.874  18.664  0.00  0.00    +0.000 N 
ENDROOT
BRANCH   2   3
ATOM      3  C   UNL     1       3.641   5.576  19.024  0.00  0.00    +0.000 A 
ATOM      4  N   UNL     1       3.031   6.619  19.627  0.00  0.00    +0.000 NA
ATOM      5  C   UNL     1       1.939   6.408  20.335  0.00  0.00    +0.000 A 
ATOM      6  N   UNL     1       1.375   5.228  20.526  0.00  0.00    +0.000 NA
ATOM      7  C   UNL     1       1.824   4.243  19.777  0.00  0.00    +0.000 A 
ATOM      8  C   UNL     1       1.064   3.096  19.863  0.00  0.00    +0.000 A 
ATOM      9  C   UNL     1       1.177   2.076  18.938  0.00  0.00    +0.000 A 
ATOM     10  C   UNL     1       2.120   2.193  17.923  0.00  0.00    +0.000 A 
ATOM     11  C   UNL     1       3.014   3.280  17.915  0.00  0.00    +0.000 A 
ATOM     12  C   UNL     1       2.911   4.357  18.868  0.00  0.00    +0.000 A 
ENDBRANCH   2   3
BRANCH   2  13
ATOM     13  C   UNL     1       5.400   6.662  17.522  0.00  0.00    +0.000 C 
BRANCH  13  14
ATOM     14  C   UNL     1       5.778   5.765  16.354  0.00  0.00    +0.000 A 
ATOM     15  C   UNL     1       7.106   5.604  15.923  0.00  0.00    +0.000 A 
ATOM     16  C   UNL     1       7.412   4.897  14.759  0.00  0.00    +0.000 A 
ATOM     17  C   UNL     1       6.386   4.331  14.003  0.00  0.00    +0.000 A 
ATOM     18  C   UNL     1       5.072   4.380  14.492  0.00  0.00    +0.000 A 
ATOM     19  C   UNL     1       4.770   5.080  15.663  0.00  0.00    +0.000 A 
BRANCH  17  20
ATOM     20  C   UNL     1       6.602   3.732  12.657  0.00  0.00    +0.000 C 
ATOM     21  N   UNL     1       5.965   2.563  12.346  0.00  0.00    +0.000 N 
ATOM     22  O   UNL     1       7.372   4.239  11.850  0.00  0.00    +0.000 OA
ATOM     23  H   UNL     1       5.368   2.041  12.966  0.00  0.00    +0.000 HD
ATOM     24  H   UNL     1       6.213   2.139  11.462  0.00  0.00    +0.000 HD
ENDBRANCH  17  20
ENDBRANCH  13  14
ENDBRANCH   2  13
TORSDOF 4
ENDMDL
MODEL 4
REMARK VINA RESULT:      -7.5      3.436      6.518
REMARK  Name = 
REMARK  5 active torsions:
REMARK  status: ('A' for Active; 'I' for Inactive)
REMARK    1  A    between atoms: C_1  and  N_2
REMARK    2  A    between atoms: N_2  and  C_3
REMARK    3  A    between atoms: N_2  and  C_13
REMARK    4  A    between atoms: C_3  and  C_4
REMARK    5  A    between atoms: C_7  and  C_8
REMARK                            x       y       z     vdW  Elec       q    Type
REMARK                         _______ _______ _______ _____ _____    ______ ____
ROOT
ATOM      1  C   UNL     1       3.300   2.918  19.085  0.00  0.00    +0.000 C 
ATOM      2  N   UNL     1       3.715   4.334  19.191  0.00  0.00    +0.000 N 
ENDROOT
BRANCH   2   3
ATOM      3  C   UNL     1       4.984   4.585  18.698  0.00  0.00    +0.000 A 
ATOM      4  N   UNL     1       5.862   4.871  19.683  0.00  0.00    +0.000 NA
ATOM      5  C   UNL     1       6.999   5.467  19.383  0.00  0.00    +0.000 A 
ATOM      6  N   UNL     1       7.364   5.834  18.167  0.00  0.00    +0.000 NA
ATOM      7  C   UNL     1       6.628   5.375  17.177  0.00  0.00    +0.000 A 
ATOM      8  C   UNL     1       7.172   5.609  15.932  0.00  0.00    +0.000 A 
ATOM      9  C   UNL     1       6.726   4.946  14.805  0.00  0.00    +0.000 A 
ATOM     10  C   UNL     1       5.667   4.054  14.928  0.00  0.00    +0.000 A 
ATOM     11  C   UNL     1       4.995   3.925  16.158  0.00  0.00    +0.000 A 
ATOM     12  C   UNL     1       5.445   4.605  17.346  0.00  0.00    +0.000 A 
ENDBRANCH   2   3
BRANCH   2  13
ATOM     13  C   UNL     1       2.978   5.095  20.197  0.00  0.00    +0.000 C 
BRANCH  13  14
ATOM     14  C   UNL     1       2.446   6.396  19.618  0.00  0.00    +0.000 A 
ATOM     15  C   UNL     1       2.596   6.737  18.263  0.00  0.00    +0.000 A 
ATOM     16  C   UNL     1       2.234   7.999  17.787  0.00  0.00    +0.000 A 
ATOM     17  C   UNL     1       1.709   8.946  18.665  0.00  0.00    +0.000 A 
ATOM     18  C   UNL     1       1.441   8.572  19.991  0.00  0.00    +0.000 A 
ATOM     19  C   UNL     1       1.795   7.305  20.461  0.00  0.00    +0.000 A 
BRANCH  17  20
ATOM     20  C   UNL     1       1.479  10.368  18.287  0.00  0.00    +0.000 C 
ATOM     21  N   UNL     1       0.199  10.848  18.274  0.00  0.00    +0.000 N 
ATOM     22  O   UNL     1       2.405  11.094  17.945  0.00  0.00    +0.000 OA
ATOM     23  H   UNL     1      -0.628  10.309  18.475  0.00  0.00    +0.000 HD
ATOM     24  H   UNL     1       0.076  11.787  17.919  0.00  0.00    +0.000 HD
ENDBRANCH  17  20
ENDBRANCH  13  14
ENDBRANCH   2  13
TORSDOF 4
ENDMDL
MODEL 5
REMARK VINA RESULT:      -7.5      3.447      6.655
REMARK  Name = 
REMARK  5 active torsions:
REMARK  status: ('A' for Active; 'I' for Inactive)
REMARK    1  A    between atoms: C_1  and  N_2
REMARK    2  A    between atoms: N_2  and  C_3
REMARK    3  A    between atoms: N_2  and  C_13
REMARK    4  A    between atoms: C_3  and  C_4
REMARK    5  A    between atoms: C_7  and  C_8
REMARK                            x       y       z     vdW  Elec       q    Type
REMARK                         _______ _______ _______ _____ _____    ______ ____
ROOT
ATOM      1  C   UNL     1       3.652   2.061  18.407  0.00  0.00    +0.000 C 
ATOM      2  N   UNL     1       3.425   3.207  17.499  0.00  0.00    +0.000 N 
ENDROOT
BRANCH   2   3
ATOM      3  C   UNL     1       4.589   3.820  17.068  0.00  0.00    +0.000 A 
ATOM      4  N   UNL     1       4.705   3.800  15.723  0.00  0.00    +0.000 NA
ATOM      5  C   UNL     1       5.883   4.015  15.172  0.00  0.00    +0.000 A 
ATOM      6  N   UNL     1       7.001   4.244  15.839  0.00  0.00    +0.000 NA
ATOM      7  C   UNL     1       6.871   4.480  17.127  0.00  0.00    +0.000 A 
ATOM      8  C   UNL     1       8.032   4.918  17.727  0.00  0.00    +0.000 A 
ATOM      9  C   UNL     1       8.029   5.511  18.975  0.00  0.00    +0.000 A 
ATOM     10  C   UNL     1       6.825   5.622  19.661  0.00  0.00    +0.000 A 
ATOM     11  C   UNL     1       5.659   5.034  19.135  0.00  0.00    +0.000 A 
ATOM     12  C   UNL     1       5.639   4.414  17.834  0.00  0.00    +0.000 A 
ENDBRANCH   2   3
BRANCH   2  13
ATOM     13  C   UNL     1       2.090   3.790  17.601  0.00  0.00    +0.000 C 
BRANCH  13  14
ATOM     14  C   UNL     1       2.090   4.998  18.524  0.00  0.00    +0.000 A 
ATOM     15  C   UNL     1       1.817   4.898  19.899  0.00  0.00    +0.000 A 
ATOM     16  C   UNL     1       1.674   6.036  20.696  0.00  0.00    +0.000 A 
ATOM     17  C   UNL     1       1.809   7.302  20.126  0.00  0.00    +0.000 A 
ATOM     18  C   UNL     1       2.204   7.407  18.784  0.00  0.00    +0.000 A 
ATOM     19  C   UNL     1       2.356   6.266  17.992  0.00  0.00    +0.000 A 
BRANCH  17  20
ATOM     20  C   UNL     1       1.484   8.560  20.853  0.00  0.00    +0.000 C 
ATOM     21  N   UNL     1       1.756   8.637  22.190  0.00  0.00    +0.000 N 
ATOM     22  O   UNL     1       0.939   9.500  20.287  0.00  0.00    +0.000 OA
ATOM     23  H   UNL     1       2.141   7.894  22.751  0.00  0.00    +0.000 HD
ATOM     24  H   UNL     1       1.433   9.469  22.666  0.00  0.00    +0.000 HD
ENDBRANCH  17  20
ENDBRANCH  13  14
ENDBRANCH   2  13
TORSDOF 4
ENDMDL
MODEL 6
REMARK VINA RESULT:      -7.4      3.222      6.611
REMARK  Name = 
REMARK  5 active torsions:
REMARK  status: ('A' for Active; 'I' for Inactive)
REMARK    1  A    between atoms: C_1  and  N_2
REMARK    2  A    between atoms: N_2  and  C_3
REMARK    3  A    between atoms: N_2  and  C_13
REMARK    4  A    between atoms: C_3  and  C_4
REMARK    5  A    between atoms: C_7  and  C_8
REMARK                            x       y       z     vdW  Elec       q    Type
REMARK                         _______ _______ _______ _____ _____    ______ ____
ROOT
ATOM      1  C   UNL     1       4.150   2.729  20.067  0.00  0.00    +0.000 C 
ATOM      2  N   UNL     1       4.000   3.526  18.830  0.00  0.00    +0.000 N 
ENDROOT
BRANCH   2   3
ATOM      3  C   UNL     1       5.175   4.118  18.399  0.00  0.00    +0.000 A 
ATOM      4  N   UNL     1       5.906   4.602  19.426  0.00  0.00    +0.000 NA
ATOM      5  C   UNL     1       6.854   5.485  19.186  0.00  0.00    +0.000 A 
ATOM      6  N   UNL     1       7.157   5.967  17.993  0.00  0.00    +0.000 NA
ATOM      7  C   UNL     1       6.609   5.354  16.964  0.00  0.00    +0.000 A 
ATOM      8  C   UNL     1       7.121   5.756  15.748  0.00  0.00    +0.000 A 
ATOM      9  C   UNL     1       6.913   5.026  14.594  0.00  0.00    +0.000 A 
ATOM     10  C   UNL     1       6.125   3.882  14.656  0.00  0.00    +0.000 A 
ATOM     11  C   UNL     1       5.463   3.549  15.853  0.00  0.00    +0.000 A 
ATOM     12  C   UNL     1       5.668   4.294  17.069  0.00  0.00    +0.000 A 
ENDBRANCH   2   3
BRANCH   2  13
ATOM     13  C   UNL     1       2.631   3.957  18.564  0.00  0.00    +0.000 C 
BRANCH  13  14
ATOM     14  C   UNL     1       2.449   5.432  18.885  0.00  0.00    +0.000 A 
ATOM     15  C   UNL     1       2.105   5.890  20.168  0.00  0.00    +0.000 A 
ATOM     16  C   UNL     1       1.797   7.231  20.404  0.00  0.00    +0.000 A 
ATOM     17  C   UNL     1       1.832   8.145  19.351  0.00  0.00    +0.000 A 
ATOM     18  C   UNL     1       2.294   7.721  18.095  0.00  0.00    +0.000 A 
ATOM     19  C   UNL     1       2.611   6.380  17.866  0.00  0.00    +0.000 A 
BRANCH  17  20
ATOM     20  C   UNL     1       1.335   9.543  19.470  0.00  0.00    +0.000 C 
ATOM     21  N   UNL     1       0.667   9.911  20.604  0.00  0.00    +0.000 N 
ATOM     22  O   UNL     1       1.472  10.348  18.556  0.00  0.00    +0.000 OA
ATOM     23  H   UNL     1       0.450   9.302  21.376  0.00  0.00    +0.000 HD
ATOM     24  H   UNL     1       0.262  10.837  20.605  0.00  0.00    +0.000 HD
ENDBRANCH  17  20
ENDBRANCH  13  14
ENDBRANCH   2  13
TORSDOF 4
ENDMDL
MODEL 7
REMARK VINA RESULT:      -7.3      3.982      6.994
REMARK  Name = 
REMARK  5 active torsions:
REMARK  status: ('A' for Active; 'I' for Inactive)
REMARK    1  A    between atoms: C_1  and  N_2
REMARK    2  A    between atoms: N_2  and  C_3
REMARK    3  A    between atoms: N_2  and  C_13
REMARK    4  A    between atoms: C_3  and  C_4
REMARK    5  A    between atoms: C_7  and  C_8
REMARK                            x       y       z     vdW  Elec       q    Type
REMARK                         _______ _______ _______ _____ _____    ______ ____
ROOT
ATOM      1  C   UNL     1       2.559   4.143  18.121  0.00  0.00    +0.000 C 
ATOM      2  N   UNL     1       3.415   5.176  18.746  0.00  0.00    +0.000 N 
ENDROOT
BRANCH   2   3
ATOM      3  C   UNL     1       4.752   5.079  18.400  0.00  0.00    +0.000 A 
ATOM      4  N   UNL     1       5.563   5.219  19.471  0.00  0.00    +0.000 NA
ATOM      5  C   UNL     1       6.837   5.502  19.285  0.00  0.00    +0.000 A 
ATOM      6  N   UNL     1       7.409   5.681  18.107  0.00  0.00    +0.000 NA
ATOM      7  C   UNL     1       6.694   5.340  17.056  0.00  0.00    +0.000 A 
ATOM      8  C   UNL     1       7.409   5.346  15.877  0.00  0.00    +0.000 A 
ATOM      9  C   UNL     1       6.937   4.728  14.736  0.00  0.00    +0.000 A 
ATOM     10  C   UNL     1       5.684   4.126  14.768  0.00  0.00    +0.000 A 
ATOM     11  C   UNL     1       4.873   4.251  15.912  0.00  0.00    +0.000 A 
ATOM     12  C   UNL     1       5.347   4.890  17.115  0.00  0.00    +0.000 A 
ENDBRANCH   2   3
BRANCH   2  13
ATOM     13  C   UNL     1       2.842   5.775  19.947  0.00  0.00    +0.000 C 
BRANCH  13  14
ATOM     14  C   UNL     1       2.271   7.153  19.653  0.00  0.00    +0.000 A 
ATOM     15  C   UNL     1       1.609   7.921  20.626  0.00  0.00    +0.000 A 
ATOM     16  C   UNL     1       0.964   9.114  20.296  0.00  0.00    +0.000 A 
ATOM     17  C   UNL     1       0.975   9.565  18.976  0.00  0.00    +0.000 A 
ATOM     18  C   UNL     1       1.738   8.871  18.025  0.00  0.00    +0.000 A 
ATOM     19  C   UNL     1       2.391   7.682  18.362  0.00  0.00    +0.000 A 
BRANCH  17  20
ATOM     20  C   UNL     1       0.157  10.715  18.502  0.00  0.00    +0.000 C 
ATOM     21  N   UNL     1      -0.834  10.487  17.589  0.00  0.00    +0.000 N 
ATOM     22  O   UNL     1       0.387  11.858  18.878  0.00  0.00    +0.000 OA
ATOM     23  H   UNL     1      -1.051   9.595  17.175  0.00  0.00    +0.000 HD
ATOM     24  H   UNL     1      -1.301  11.305  17.220  0.00  0.00    +0.000 HD
ENDBRANCH  17  20
ENDBRANCH  13  14
ENDBRANCH   2  13
TORSDOF 4
ENDMDL
MODEL 8
REMARK VINA RESULT:      -7.3      3.236      6.848
REMARK  Name = 
REMARK  5 active torsions:
REMARK  status: ('A' for Active; 'I' for Inactive)
REMARK    1  A    between atoms: C_1  and  N_2
REMARK    2  A    between atoms: N_2  and  C_3
REMARK    3  A    between atoms: N_2  and  C_13
REMARK    4  A    between atoms: C_3  and  C_4
REMARK    5  A    between atoms: C_7  and  C_8
REMARK                            x       y       z     vdW  Elec       q    Type
REMARK                         _______ _______ _______ _____ _____    ______ ____
ROOT
ATOM      1  C   UNL     1       4.350   2.905  20.100  0.00  0.00    +0.000 C 
ATOM      2  N   UNL     1       4.174   3.508  18.761  0.00  0.00    +0.000 N 
ENDROOT
BRANCH   2   3
ATOM      3  C   UNL     1       5.305   4.145  18.280  0.00  0.00    +0.000 A 
ATOM      4  N   UNL     1       6.050   4.676  19.274  0.00  0.00    +0.000 NA
ATOM      5  C   UNL     1       6.948   5.597  18.989  0.00  0.00    +0.000 A 
ATOM      6  N   UNL     1       7.186   6.075  17.780  0.00  0.00    +0.000 NA
ATOM      7  C   UNL     1       6.630   5.424  16.779  0.00  0.00    +0.000 A 
ATOM      8  C   UNL     1       7.080   5.832  15.540  0.00  0.00    +0.000 A 
ATOM      9  C   UNL     1       6.864   5.077  14.404  0.00  0.00    +0.000 A 
ATOM     10  C   UNL     1       6.131   3.900  14.508  0.00  0.00    +0.000 A 
ATOM     11  C   UNL     1       5.528   3.554  15.732  0.00  0.00    +0.000 A 
ATOM     12  C   UNL     1       5.742   4.325  16.931  0.00  0.00    +0.000 A 
ENDBRANCH   2   3
BRANCH   2  13
ATOM     13  C   UNL     1       2.782   3.766  18.404  0.00  0.00    +0.000 C 
BRANCH  13  14
ATOM     14  C   UNL     1       2.314   5.104  18.953  0.00  0.00    +0.000 A 
ATOM     15  C   UNL     1       2.547   6.318  18.284  0.00  0.00    +0.000 A 
ATOM     16  C   UNL     1       2.242   7.545  18.878  0.00  0.00    +0.000 A 
ATOM     17  C   UNL     1       1.691   7.576  20.159  0.00  0.00    +0.000 A 
ATOM     18  C   UNL     1       1.341   6.368  20.780  0.00  0.00    +0.000 A 
ATOM     19  C   UNL     1       1.638   5.143  20.179  0.00  0.00    +0.000 A 
BRANCH  17  20
ATOM     20  C   UNL     1       1.517   8.832  20.939  0.00  0.00    +0.000 C 
ATOM     21  N   UNL     1       1.794   8.821  22.277  0.00  0.00    +0.000 N 
ATOM     22  O   UNL     1       1.087   9.853  20.414  0.00  0.00    +0.000 OA
ATOM     23  H   UNL     1       2.087   8.016  22.805  0.00  0.00    +0.000 HD
ATOM     24  H   UNL     1       1.571   9.665  22.788  0.00  0.00    +0.000 HD
ENDBRANCH  17  20
ENDBRANCH  13  14
ENDBRANCH   2  13
TORSDOF 4
ENDMDL
MODEL 9
REMARK VINA RESULT:      -7.3      1.778      2.636
REMARK  Name = 
REMARK  5 active torsions:
REMARK  status: ('A' for Active; 'I' for Inactive)
REMARK    1  A    between atoms: C_1  and  N_2
REMARK    2  A    between atoms: N_2  and  C_3
REMARK    3  A    between atoms: N_2  and  C_13
REMARK    4  A    between atoms: C_3  and  C_4
REMARK    5  A    between atoms: C_7  and  C_8
REMARK                            x       y       z     vdW  Elec       q    Type
REMARK                         _______ _______ _______ _____ _____    ______ ____
ROOT
ATOM      1  C   UNL     1       4.233   7.509  17.234  0.00  0.00    +0.000 C 
ATOM      2  N   UNL     1       4.103   6.107  17.688  0.00  0.00    +0.000 N 
ENDROOT
BRANCH   2   3
ATOM      3  C   UNL     1       3.050   5.896  18.561  0.00  0.00    +0.000 A 
ATOM      4  N   UNL     1       2.726   7.015  19.244  0.00  0.00    +0.000 NA
ATOM      5  C   UNL     1       2.004   6.916  20.343  0.00  0.00    +0.000 A 
ATOM      6  N   UNL     1       1.565   5.783  20.862  0.00  0.00    +0.000 NA
ATOM      7  C   UNL     1       1.684   4.713  20.104  0.00  0.00    +0.000 A 
ATOM      8  C   UNL     1       1.023   3.609  20.601  0.00  0.00    +0.000 A 
ATOM      9  C   UNL     1       0.765   2.501  19.818  0.00  0.00    +0.000 A 
ATOM     10  C   UNL     1       1.228   2.483  18.507  0.00  0.00    +0.000 A 
ATOM     11  C   UNL     1       2.043   3.529  18.035  0.00  0.00    +0.000 A 
ATOM     12  C   UNL     1       2.323   4.696  18.834  0.00  0.00    +0.000 A 
ENDBRANCH   2   3
BRANCH   2  13
ATOM     13  C   UNL     1       5.330   5.325  17.559  0.00  0.00    +0.000 C 
BRANCH  13  14
ATOM     14  C   UNL     1       5.618   4.995  16.103  0.00  0.00    +0.000 A 
ATOM     15  C   UNL     1       4.673   4.375  15.268  0.00  0.00    +0.000 A 
ATOM     16  C   UNL     1       5.010   3.946  13.982  0.00  0.00    +0.000 A 
ATOM     17  C   UNL     1       6.307   4.137  13.506  0.00  0.00    +0.000 A 
ATOM     18  C   UNL     1       7.218   4.866  14.285  0.00  0.00    +0.000 A 
ATOM     19  C   UNL     1       6.874   5.302  15.567  0.00  0.00    +0.000 A 
BRANCH  17  20
ATOM     20  C   UNL     1       6.802   3.544  12.234  0.00  0.00    +0.000 C 
ATOM     21  N   UNL     1       6.466   2.254  11.933  0.00  0.00    +0.000 N 
ATOM     22  O   UNL     1       7.538   4.172  11.482  0.00  0.00    +0.000 OA
ATOM     23  H   UNL     1       5.923   1.641  12.520  0.00  0.00    +0.000 HD
ATOM     24  H   UNL     1       6.901   1.857  11.111  0.00  0.00    +0.000 HD
ENDBRANCH  17  20
ENDBRANCH  13  14
ENDBRANCH   2  13
TORSDOF 4
ENDMDL
