MODEL 1
REMARK VINA RESULT:      -8.6      0.000      0.000
REMARK  Name = 
REMARK  5 active torsions:
REMARK  status: ('A' for Active; 'I' for Inactive)
REMARK    1  A    between atoms: C_1  and  N_2
REMARK    2  A    between atoms: C_6  and  C_7
REMARK    3  A    between atoms: N_9  and  C_10
REMARK    4  A    between atoms: C_10  and  C_11
REMARK    5  A    between atoms: C_20  and  C_22
REMARK                            x       y       z     vdW  Elec       q    Type
REMARK                         _______ _______ _______ _____ _____    ______ ____
ROOT
ATOM      1  C   UNL     1       1.866   8.480  18.863  0.00  0.00    +0.000 A 
ATOM      2  C   UNL     1       1.803   8.230  20.251  0.00  0.00    +0.000 A 
ATOM      3  C   UNL     1       0.991   9.003  21.106  0.00  0.00    +0.000 A 
ATOM      4  C   UNL     1       0.228  10.019  20.560  0.00  0.00    +0.000 A 
ATOM      5  C   UNL     1       0.220  10.201  19.173  0.00  0.00    +0.000 A 
ATOM      6  C   UNL     1       1.030   9.462  18.320  0.00  0.00    +0.000 A 
ATOM      7  C   UNL     1      -0.770  11.238  18.764  0.00  0.00    +0.000 C 
ATOM      8  C   UNL     1      -1.098  11.874  20.109  0.00  0.00    +0.000 C 
ATOM      9  N   UNL     1      -0.583  11.002  21.185  0.00  0.00    +0.000 N 
ATOM     10  C   UNL     1      -0.777  11.163  22.564  0.00  0.00    +0.000 C 
ATOM     11  O   UNL     1      -0.361  10.393  23.426  0.00  0.00    +0.000 OA
ENDROOT
BRANCH  10  12
ATOM     12  C   UNL     1      -1.605  12.331  23.046  0.00  0.00    +0.000 A 
ATOM     13  C   UNL     1      -1.004  13.592  23.187  0.00  0.00    +0.000 A 
ATOM     14  C   UNL     1      -1.714  14.664  23.753  0.00  0.00    +0.000 A 
ATOM     15  C   UNL     1      -3.020  14.474  24.200  0.00  0.00    +0.000 A 
ATOM     16 CL   UNL     1      -3.862  15.745  24.995  0.00  0.00    +0.000 Cl
ATOM     17  C   UNL     1      -3.654  13.257  23.993  0.00  0.00    +0.000 A 
ATOM     18  C   UNL     1      -2.966  12.218  23.360  0.00  0.00    +0.000 A 
ENDBRANCH  10  12
BRANCH   1  19
ATOM     19  C   UNL     1       2.787   7.684  17.964  0.00  0.00    +0.000 C 
BRANCH  19  22
ATOM     20  C   UNL     1       3.410   5.366  18.592  0.00  0.00    +0.000 C 
ATOM     21  O   UNL     1       4.511   5.718  19.017  0.00  0.00    +0.000 OA
ATOM     22  N   UNL     1       2.516   6.269  18.056  0.00  0.00    +0.000 N 
ATOM     23  H   UNL     1       1.607   5.956  17.756  0.00  0.00    +0.000 HD
BRANCH  20  29
ATOM     24  C   UNL     1       2.011   3.893  20.970  0.00  0.00    +0.000 C 
ATOM     25  N   UNL     1       2.328   3.360  19.664  0.00  0.00    +0.000 N 
ATOM     26  N   UNL     1       1.989   2.078  19.404  0.00  0.00    +0.000 NA
ATOM     27  C   UNL     1       2.407   1.879  18.158  0.00  0.00    +0.000 A 
ATOM     28  C   UNL     1       3.006   3.023  17.615  0.00  0.00    +0.000 A 
ATOM     29  C   UNL     1       2.948   3.995  18.605  0.00  0.00    +0.000 A 
ENDBRANCH  20  29
ENDBRANCH  19  22
ENDBRANCH   1  19
TORSDOF 4
ENDMDL
MODEL 2
REMARK VINA RESULT:      -8.6      1.284      1.775
REMARK  Name = 
REMARK  5 active torsions:
REMARK  status: ('A' for Active; 'I' for Inactive)
REMARK    1  A    between atoms: C_1  and  N_2
REMARK    2  A    between atoms: C_6  and  C_7
REMARK    3  A    between atoms: N_9  and  C_10
REMARK    4  A    between atoms: C_10  and  C_11
REMARK    5  A    between atoms: C_20  and  C_22
REMARK                            x       y       z     vdW  Elec       q    Type
REMARK                         _______ _______ _______ _____ _____    ______ ____
ROOT
ATOM      1  C   UNL     1       1.613   8.840  18.677  0.00  0.00    +0.000 A 
ATOM      2  C   UNL     1       1.660   8.556  20.060  0.00  0.00    +0.000 A 
ATOM      3  C   UNL     1       0.866   9.260  20.987  0.00  0.00    +0.000 A 
ATOM      4  C   UNL     1       0.010  10.241  20.522  0.00  0.00    +0.000 A 
ATOM      5  C   UNL     1      -0.103  10.454  19.143  0.00  0.00    +0.000 A 
ATOM      6  C   UNL     1       0.686   9.783  18.218  0.00  0.00    +0.000 A 
ATOM      7  C   UNL     1      -1.177  11.440  18.830  0.00  0.00    +0.000 C 
ATOM      8  C   UNL     1      -1.447  12.025  20.211  0.00  0.00    +0.000 C 
ATOM      9  N   UNL     1      -0.810  11.161  21.226  0.00  0.00    +0.000 N 
ATOM     10  C   UNL     1      -0.917  11.280  22.619  0.00  0.00    +0.000 C 
ATOM     11  O   UNL     1      -0.399  10.516  23.430  0.00  0.00    +0.000 OA
ENDROOT
BRANCH  10  12
ATOM     12  C   UNL     1      -1.775  12.385  23.187  0.00  0.00    +0.000 A 
ATOM     13  C   UNL     1      -3.112  12.116  23.526  0.00  0.00    +0.000 A 
ATOM     14  C   UNL     1      -3.968  13.151  23.933  0.00  0.00    +0.000 A 
ATOM     15  C   UNL     1      -3.500  14.463  23.985  0.00  0.00    +0.000 A 
ATOM     16 CL   UNL     1      -4.565  15.755  24.375  0.00  0.00    +0.000 Cl
ATOM     17  C   UNL     1      -2.161  14.732  23.732  0.00  0.00    +0.000 A 
ATOM     18  C   UNL     1      -1.297  13.685  23.401  0.00  0.00    +0.000 A 
ENDBRANCH  10  12
BRANCH   1  19
ATOM     19  C   UNL     1       2.512   8.120  17.697  0.00  0.00    +0.000 C 
BRANCH  19  22
ATOM     20  C   UNL     1       3.875   6.048  17.600  0.00  0.00    +0.000 C 
ATOM     21  O   UNL     1       4.461   6.416  16.581  0.00  0.00    +0.000 OA
ATOM     22  N   UNL     1       2.905   6.825  18.199  0.00  0.00    +0.000 N 
ATOM     23  H   UNL     1       2.474   6.516  19.055  0.00  0.00    +0.000 HD
BRANCH  20  29
ATOM     24  C   UNL     1       6.366   5.338  19.353  0.00  0.00    +0.000 C 
ATOM     25  N   UNL     1       5.237   4.491  19.036  0.00  0.00    +0.000 N 
ATOM     26  N   UNL     1       5.221   3.239  19.545  0.00  0.00    +0.000 NA
ATOM     27  C   UNL     1       4.090   2.716  19.083  0.00  0.00    +0.000 A 
ATOM     28  C   UNL     1       3.378   3.622  18.286  0.00  0.00    +0.000 A 
ATOM     29  C   UNL     1       4.132   4.787  18.261  0.00  0.00    +0.000 A 
ENDBRANCH  20  29
ENDBRANCH  19  22
ENDBRANCH   1  19
TORSDOF 4
ENDMDL
MODEL 3
REMARK VINA RESULT:      -8.6      0.999      1.382
REMARK  Name = 
REMARK  5 active torsions:
REMARK  status: ('A' for Active; 'I' for Inactive)
REMARK    1  A    between atoms: C_1  and  N_2
REMARK    2  A    between atoms: C_6  and  C_7
REMARK    3  A    between atoms: N_9  and  C_10
REMARK    4  A    between atoms: C_10  and  C_11
REMARK    5  A    between atoms: C_20  and  C_22
REMARK                            x       y       z     vdW  Elec       q    Type
REMARK                         _______ _______ _______ _____ _____    ______ ____
ROOT
ATOM      1  C   UNL     1       1.859   8.381  18.886  0.00  0.00    +0.000 A 
ATOM      2  C   UNL     1       1.801   8.139  20.276  0.00  0.00    +0.000 A 
ATOM      3  C   UNL     1       0.996   8.920  21.130  0.00  0.00    +0.000 A 
ATOM      4  C   UNL     1       0.234   9.935  20.583  0.00  0.00    +0.000 A 
ATOM      5  C   UNL     1       0.221  10.110  19.194  0.00  0.00    +0.000 A 
ATOM      6  C   UNL     1       1.024   9.362  18.342  0.00  0.00    +0.000 A 
ATOM      7  C   UNL     1      -0.767  11.147  18.784  0.00  0.00    +0.000 C 
ATOM      8  C   UNL     1      -1.086  11.792  20.128  0.00  0.00    +0.000 C 
ATOM      9  N   UNL     1      -0.570  10.925  21.206  0.00  0.00    +0.000 N 
ATOM     10  C   UNL     1      -0.756  11.095  22.585  0.00  0.00    +0.000 C 
ATOM     11  O   UNL     1      -0.339  10.327  23.450  0.00  0.00    +0.000 OA
ENDROOT
BRANCH  10  12
ATOM     12  C   UNL     1      -1.578  12.268  23.065  0.00  0.00    +0.000 A 
ATOM     13  C   UNL     1      -2.937  12.080  23.368  0.00  0.00    +0.000 A 
ATOM     14  C   UNL     1      -3.755  13.175  23.691  0.00  0.00    +0.000 A 
ATOM     15  C   UNL     1      -3.224  14.463  23.693  0.00  0.00    +0.000 A 
ATOM     16 CL   UNL     1      -4.238  15.823  23.979  0.00  0.00    +0.000 Cl
ATOM     17  C   UNL     1      -1.866  14.655  23.476  0.00  0.00    +0.000 A 
ATOM     18  C   UNL     1      -1.044  13.552  23.230  0.00  0.00    +0.000 A 
ENDBRANCH  10  12
BRANCH   1  19
ATOM     19  C   UNL     1       2.772   7.576  17.987  0.00  0.00    +0.000 C 
BRANCH  19  22
ATOM     20  C   UNL     1       2.598   5.139  18.423  0.00  0.00    +0.000 C 
ATOM     21  O   UNL     1       1.630   5.018  17.672  0.00  0.00    +0.000 OA
ATOM     22  N   UNL     1       3.205   6.360  18.632  0.00  0.00    +0.000 N 
ATOM     23  H   UNL     1       4.022   6.419  19.219  0.00  0.00    +0.000 HD
BRANCH  20  29
ATOM     24  C   UNL     1       1.435   3.766  20.981  0.00  0.00    +0.000 C 
ATOM     25  N   UNL     1       2.658   3.441  20.281  0.00  0.00    +0.000 N 
ATOM     26  N   UNL     1       3.410   2.425  20.759  0.00  0.00    +0.000 NA
ATOM     27  C   UNL     1       4.448   2.372  19.930  0.00  0.00    +0.000 A 
ATOM     28  C   UNL     1       4.366   3.342  18.922  0.00  0.00    +0.000 A 
ATOM     29  C   UNL     1       3.187   4.039  19.154  0.00  0.00    +0.000 A 
ENDBRANCH  20  29
ENDBRANCH  19  22
ENDBRANCH   1  19
TORSDOF 4
ENDMDL
MODEL 4
REMARK VINA RESULT:      -8.5      1.175      1.496
REMARK  Name = 
REMARK  5 active torsions:
REMARK  status: ('A' for Active; 'I' for Inactive)
REMARK    1  A    between atoms: C_1  and  N_2
REMARK    2  A    between atoms: C_6  and  C_7
REMARK    3  A    between atoms: N_9  and  C_10
REMARK    4  A    between atoms: C_10  and  C_11
REMARK    5  A    between atoms: C_20  and  C_22
REMARK                            x       y       z     vdW  Elec       q    Type
REMARK                         _______ _______ _______ _____ _____    ______ ____
ROOT
ATOM      1  C   UNL     1       1.806   8.397  18.918  0.00  0.00    +0.000 A 
ATOM      2  C   UNL     1       1.757   8.166  20.310  0.00  0.00    +0.000 A 
ATOM      3  C   UNL     1       0.957   8.953  21.163  0.00  0.00    +0.000 A 
ATOM      4  C   UNL     1       0.192   9.964  20.612  0.00  0.00    +0.000 A 
ATOM      5  C   UNL     1       0.170  10.128  19.222  0.00  0.00    +0.000 A 
ATOM      6  C   UNL     1       0.968   9.374  18.371  0.00  0.00    +0.000 A 
ATOM      7  C   UNL     1      -0.821  11.162  18.810  0.00  0.00    +0.000 C 
ATOM      8  C   UNL     1      -1.132  11.818  20.150  0.00  0.00    +0.000 C 
ATOM      9  N   UNL     1      -0.609  10.959  21.232  0.00  0.00    +0.000 N 
ATOM     10  C   UNL     1      -0.786  11.139  22.611  0.00  0.00    +0.000 C 
ATOM     11  O   UNL     1      -0.364  10.379  23.479  0.00  0.00    +0.000 OA
ENDROOT
BRANCH  10  12
ATOM     12  C   UNL     1      -1.606  12.316  23.086  0.00  0.00    +0.000 A 
ATOM     13  C   UNL     1      -0.992  13.572  23.227  0.00  0.00    +0.000 A 
ATOM     14  C   UNL     1      -1.694  14.652  23.787  0.00  0.00    +0.000 A 
ATOM     15  C   UNL     1      -3.004  14.476  24.228  0.00  0.00    +0.000 A 
ATOM     16 CL   UNL     1      -3.838  15.757  25.017  0.00  0.00    +0.000 Cl
ATOM     17  C   UNL     1      -3.650  13.265  24.021  0.00  0.00    +0.000 A 
ATOM     18  C   UNL     1      -2.969  12.218  23.394  0.00  0.00    +0.000 A 
ENDBRANCH  10  12
BRANCH   1  19
ATOM     19  C   UNL     1       2.714   7.585  18.019  0.00  0.00    +0.000 C 
BRANCH  19  22
ATOM     20  C   UNL     1       2.675   5.140  18.445  0.00  0.00    +0.000 C 
ATOM     21  O   UNL     1       1.761   4.959  17.640  0.00  0.00    +0.000 OA
ATOM     22  N   UNL     1       3.189   6.398  18.688  0.00  0.00    +0.000 N 
ATOM     23  H   UNL     1       3.965   6.507  19.320  0.00  0.00    +0.000 HD
BRANCH  20  29
ATOM     24  C   UNL     1       5.633   4.154  18.210  0.00  0.00    +0.000 C 
ATOM     25  N   UNL     1       4.603   3.657  19.094  0.00  0.00    +0.000 N 
ATOM     26  N   UNL     1       4.924   2.649  19.936  0.00  0.00    +0.000 NA
ATOM     27  C   UNL     1       3.796   2.411  20.599  0.00  0.00    +0.000 A 
ATOM     28  C   UNL     1       2.758   3.258  20.193  0.00  0.00    +0.000 A 
ATOM     29  C   UNL     1       3.292   4.078  19.208  0.00  0.00    +0.000 A 
ENDBRANCH  20  29
ENDBRANCH  19  22
ENDBRANCH   1  19
TORSDOF 4
ENDMDL
MODEL 5
REMARK VINA RESULT:      -8.4      0.909      1.039
REMARK  Name = 
REMARK  5 active torsions:
REMARK  status: ('A' for Active; 'I' for Inactive)
REMARK    1  A    between atoms: C_1  and  N_2
REMARK    2  A    between atoms: C_6  and  C_7
REMARK    3  A    between atoms: N_9  and  C_10
REMARK    4  A    between atoms: C_10  and  C_11
REMARK    5  A    between atoms: C_20  and  C_22
REMARK                            x       y       z     vdW  Elec       q    Type
REMARK                         _______ _______ _______ _____ _____    ______ ____
ROOT
ATOM      1  C   UNL     1       1.795   8.509  18.937  0.00  0.00    +0.000 A 
ATOM      2  C   UNL     1       1.649   8.218  20.311  0.00  0.00    +0.000 A 
ATOM      3  C   UNL     1       0.829   8.999  21.150  0.00  0.00    +0.000 A 
ATOM      4  C   UNL     1       0.141  10.066  20.603  0.00  0.00    +0.000 A 
ATOM      5  C   UNL     1       0.214  10.294  19.224  0.00  0.00    +0.000 A 
ATOM      6  C   UNL     1       1.033   9.546  18.387  0.00  0.00    +0.000 A 
ATOM      7  C   UNL     1      -0.707  11.388  18.802  0.00  0.00    +0.000 C 
ATOM      8  C   UNL     1      -1.075  11.994  20.150  0.00  0.00    +0.000 C 
ATOM      9  N   UNL     1      -0.657  11.065  21.219  0.00  0.00    +0.000 N 
ATOM     10  C   UNL     1      -0.914  11.190  22.592  0.00  0.00    +0.000 C 
ATOM     11  O   UNL     1      -0.578  10.374  23.447  0.00  0.00    +0.000 OA
ENDROOT
BRANCH  10  12
ATOM     12  C   UNL     1      -1.713  12.378  23.072  0.00  0.00    +0.000 A 
ATOM     13  C   UNL     1      -1.070  13.612  23.262  0.00  0.00    +0.000 A 
ATOM     14  C   UNL     1      -1.757  14.698  23.828  0.00  0.00    +0.000 A 
ATOM     15  C   UNL     1      -3.084  14.550  24.226  0.00  0.00    +0.000 A 
ATOM     16 CL   UNL     1      -3.905  15.835  25.021  0.00  0.00    +0.000 Cl
ATOM     17  C   UNL     1      -3.757  13.363  23.971  0.00  0.00    +0.000 A 
ATOM     18  C   UNL     1      -3.088  12.312  23.337  0.00  0.00    +0.000 A 
ENDBRANCH  10  12
BRANCH   1  19
ATOM     19  C   UNL     1       2.724   7.701  18.058  0.00  0.00    +0.000 C 
BRANCH  19  22
ATOM     20  C   UNL     1       3.668   5.409  17.937  0.00  0.00    +0.000 C 
ATOM     21  O   UNL     1       4.218   5.633  16.859  0.00  0.00    +0.000 OA
ATOM     22  N   UNL     1       2.915   6.370  18.581  0.00  0.00    +0.000 N 
ATOM     23  H   UNL     1       2.514   6.170  19.482  0.00  0.00    +0.000 HD
BRANCH  20  29
ATOM     24  C   UNL     1       1.382   3.293  18.216  0.00  0.00    +0.000 C 
ATOM     25  N   UNL     1       2.728   3.215  18.739  0.00  0.00    +0.000 N 
ATOM     26  N   UNL     1       3.075   2.107  19.433  0.00  0.00    +0.000 NA
ATOM     27  C   UNL     1       4.338   2.327  19.782  0.00  0.00    +0.000 A 
ATOM     28  C   UNL     1       4.806   3.563  19.316  0.00  0.00    +0.000 A 
ATOM     29  C   UNL     1       3.747   4.141  18.629  0.00  0.00    +0.000 A 
ENDBRANCH  20  29
ENDBRANCH  19  22
ENDBRANCH   1  19
TORSDOF 4
ENDMDL
MODEL 6
REMARK VINA RESULT:      -8.4      0.716      1.125
REMARK  Name = 
REMARK  5 active torsions:
REMARK  status: ('A' for Active; 'I' for Inactive)
REMARK    1  A    between atoms: C_1  and  N_2
REMARK    2  A    between atoms: C_6  and  C_7
REMARK    3  A    between atoms: N_9  and  C_10
REMARK    4  A    between atoms: C_10  and  C_11
REMARK    5  A    between atoms: C_20  and  C_22
REMARK                            x       y       z     vdW  Elec       q    Type
REMARK                         _______ _______ _______ _____ _____    ______ ____
ROOT
ATOM      1  C   UNL     1       1.806   8.603  18.883  0.00  0.00    +0.000 A 
ATOM      2  C   UNL     1       1.739   8.347  20.270  0.00  0.00    +0.000 A 
ATOM      3  C   UNL     1       0.914   9.106  21.124  0.00  0.00    +0.000 A 
ATOM      4  C   UNL     1       0.140  10.113  20.579  0.00  0.00    +0.000 A 
ATOM      5  C   UNL     1       0.136  10.301  19.192  0.00  0.00    +0.000 A 
ATOM      6  C   UNL     1       0.959   9.576  18.340  0.00  0.00    +0.000 A 
ATOM      7  C   UNL     1      -0.865  11.327  18.783  0.00  0.00    +0.000 C 
ATOM      8  C   UNL     1      -1.207  11.953  20.130  0.00  0.00    +0.000 C 
ATOM      9  N   UNL     1      -0.686  11.084  21.204  0.00  0.00    +0.000 N 
ATOM     10  C   UNL     1      -0.887  11.237  22.584  0.00  0.00    +0.000 C 
ATOM     11  O   UNL     1      -0.465  10.468  23.444  0.00  0.00    +0.000 OA
ENDROOT
BRANCH  10  12
ATOM     12  C   UNL     1      -1.733  12.392  23.067  0.00  0.00    +0.000 A 
ATOM     13  C   UNL     1      -1.151  13.663  23.206  0.00  0.00    +0.000 A 
ATOM     14  C   UNL     1      -1.876  14.723  23.773  0.00  0.00    +0.000 A 
ATOM     15  C   UNL     1      -3.178  14.513  24.222  0.00  0.00    +0.000 A 
ATOM     16 CL   UNL     1      -4.038  15.772  25.019  0.00  0.00    +0.000 Cl
ATOM     17  C   UNL     1      -3.794  13.286  24.018  0.00  0.00    +0.000 A 
ATOM     18  C   UNL     1      -3.091  12.258  23.384  0.00  0.00    +0.000 A 
ENDBRANCH  10  12
BRANCH   1  19
ATOM     19  C   UNL     1       2.740   7.822  17.984  0.00  0.00    +0.000 C 
BRANCH  19  22
ATOM     20  C   UNL     1       3.135   5.496  18.754  0.00  0.00    +0.000 C 
ATOM     21  O   UNL     1       4.091   5.831  19.453  0.00  0.00    +0.000 OA
ATOM     22  N   UNL     1       2.429   6.413  18.002  0.00  0.00    +0.000 N 
ATOM     23  H   UNL     1       1.626   6.114  17.474  0.00  0.00    +0.000 HD
BRANCH  20  29
ATOM     24  C   UNL     1       4.398   3.218  17.023  0.00  0.00    +0.000 C 
ATOM     25  N   UNL     1       3.234   3.137  17.877  0.00  0.00    +0.000 N 
ATOM     26  N   UNL     1       2.593   1.950  17.966  0.00  0.00    +0.000 NA
ATOM     27  C   UNL     1       1.585   2.188  18.798  0.00  0.00    +0.000 A 
ATOM     28  C   UNL     1       1.575   3.515  19.248  0.00  0.00    +0.000 A 
ATOM     29  C   UNL     1       2.661   4.134  18.644  0.00  0.00    +0.000 A 
ENDBRANCH  20  29
ENDBRANCH  19  22
ENDBRANCH   1  19
TORSDOF 4
ENDMDL
MODEL 7
REMARK VINA RESULT:      -8.4      2.808      3.850
REMARK  Name = 
REMARK  5 active torsions:
REMARK  status: ('A' for Active; 'I' for Inactive)
REMARK    1  A    between atoms: C_1  and  N_2
REMARK    2  A    between atoms: C_6  and  C_7
REMARK    3  A    between atoms: N_9  and  C_10
REMARK    4  A    between atoms: C_10  and  C_11
REMARK    5  A    between atoms: C_20  and  C_22
REMARK                            x       y       z     vdW  Elec       q    Type
REMARK                         _______ _______ _______ _____ _____    ______ ____
ROOT
ATOM      1  C   UNL     1       2.524   6.350  19.594  0.00  0.00    +0.000 A 
ATOM      2  C   UNL     1       1.825   6.619  20.791  0.00  0.00    +0.000 A 
ATOM      3  C   UNL     1       1.199   7.862  21.019  0.00  0.00    +0.000 A 
ATOM      4  C   UNL     1       1.263   8.829  20.034  0.00  0.00    +0.000 A 
ATOM      5  C   UNL     1       1.874   8.525  18.812  0.00  0.00    +0.000 A 
ATOM      6  C   UNL     1       2.512   7.314  18.579  0.00  0.00    +0.000 A 
ATOM      7  C   UNL     1       1.712   9.635  17.830  0.00  0.00    +0.000 C 
ATOM      8  C   UNL     1       1.223  10.758  18.737  0.00  0.00    +0.000 C 
ATOM      9  N   UNL     1       0.823  10.179  20.035  0.00  0.00    +0.000 N 
ATOM     10  C   UNL     1       0.212  10.851  21.104  0.00  0.00    +0.000 C 
ATOM     11  O   UNL     1      -0.140  10.323  22.156  0.00  0.00    +0.000 OA
ENDROOT
BRANCH  10  12
ATOM     12  C   UNL     1      -0.103  12.320  20.949  0.00  0.00    +0.000 A 
ATOM     13  C   UNL     1      -1.396  12.712  20.564  0.00  0.00    +0.000 A 
ATOM     14  C   UNL     1      -1.683  14.059  20.288  0.00  0.00    +0.000 A 
ATOM     15  C   UNL     1      -0.674  15.016  20.374  0.00  0.00    +0.000 A 
ATOM     16 CL   UNL     1      -0.983  16.649  19.932  0.00  0.00    +0.000 Cl
ATOM     17  C   UNL     1       0.587  14.657  20.831  0.00  0.00    +0.000 A 
ATOM     18  C   UNL     1       0.843  13.328  21.177  0.00  0.00    +0.000 A 
ENDBRANCH  10  12
BRANCH   1  19
ATOM     19  C   UNL     1       3.242   5.035  19.383  0.00  0.00    +0.000 C 
BRANCH  19  22
ATOM     20  C   UNL     1       5.363   4.576  18.179  0.00  0.00    +0.000 C 
ATOM     21  O   UNL     1       5.883   4.070  19.173  0.00  0.00    +0.000 OA
ATOM     22  N   UNL     1       4.077   5.076  18.207  0.00  0.00    +0.000 N 
ATOM     23  H   UNL     1       3.665   5.445  17.365  0.00  0.00    +0.000 HD
BRANCH  20  29
ATOM     24  C   UNL     1       7.383   6.814  17.345  0.00  0.00    +0.000 C 
ATOM     25  N   UNL     1       6.925   5.695  16.551  0.00  0.00    +0.000 N 
ATOM     26  N   UNL     1       7.410   5.569  15.295  0.00  0.00    +0.000 NA
ATOM     27  C   UNL     1       6.812   4.478  14.826  0.00  0.00    +0.000 A 
ATOM     28  C   UNL     1       5.952   3.902  15.769  0.00  0.00    +0.000 A 
ATOM     29  C   UNL     1       6.031   4.702  16.902  0.00  0.00    +0.000 A 
ENDBRANCH  20  29
ENDBRANCH  19  22
ENDBRANCH   1  19
TORSDOF 4
ENDMDL
MODEL 8
REMARK VINA RESULT:      -8.3      2.005      2.722
REMARK  Name = 
REMARK  5 active torsions:
REMARK  status: ('A' for Active; 'I' for Inactive)
REMARK    1  A    between atoms: C_1  and  N_2
REMARK    2  A    between atoms: C_6  and  C_7
REMARK    3  A    between atoms: N_9  and  C_10
REMARK    4  A    between atoms: C_10  and  C_11
REMARK    5  A    between atoms: C_20  and  C_22
REMARK                            x       y       z     vdW  Elec       q    Type
REMARK                         _______ _______ _______ _____ _____    ______ ____
ROOT
ATOM      1  C   UNL     1       1.786   8.535  18.349  0.00  0.00    +0.000 A 
ATOM      2  C   UNL     1       1.889   8.256  19.729  0.00  0.00    +0.000 A 
ATOM      3  C   UNL     1       1.136   8.967  20.686  0.00  0.00    +0.000 A 
ATOM      4  C   UNL     1       0.266   9.949  20.252  0.00  0.00    +0.000 A 
ATOM      5  C   UNL     1       0.096  10.157  18.878  0.00  0.00    +0.000 A 
ATOM      6  C   UNL     1       0.845   9.479  17.924  0.00  0.00    +0.000 A 
ATOM      7  C   UNL     1      -0.986  11.145  18.605  0.00  0.00    +0.000 C 
ATOM      8  C   UNL     1      -1.197  11.737  19.993  0.00  0.00    +0.000 C 
ATOM      9  N   UNL     1      -0.522  10.875  20.985  0.00  0.00    +0.000 N 
ATOM     10  C   UNL     1      -0.571  10.999  22.381  0.00  0.00    +0.000 C 
ATOM     11  O   UNL     1      -0.023  10.236  23.173  0.00  0.00    +0.000 OA
ENDROOT
BRANCH  10  12
ATOM     12  C   UNL     1      -1.402  12.110  22.979  0.00  0.00    +0.000 A 
ATOM     13  C   UNL     1      -2.704  11.833  23.427  0.00  0.00    +0.000 A 
ATOM     14  C   UNL     1      -3.544  12.868  23.867  0.00  0.00    +0.000 A 
ATOM     15  C   UNL     1      -3.094  14.187  23.843  0.00  0.00    +0.000 A 
ATOM     16 CL   UNL     1      -4.148  15.476  24.274  0.00  0.00    +0.000 Cl
ATOM     17  C   UNL     1      -1.783  14.467  23.480  0.00  0.00    +0.000 A 
ATOM     18  C   UNL     1      -0.930  13.422  23.116  0.00  0.00    +0.000 A 
ENDBRANCH  10  12
BRANCH   1  19
ATOM     19  C   UNL     1       2.642   7.807  17.335  0.00  0.00    +0.000 C 
BRANCH  19  22
ATOM     20  C   UNL     1       4.875   6.730  17.209  0.00  0.00    +0.000 C 
ATOM     21  O   UNL     1       4.810   6.614  15.985  0.00  0.00    +0.000 OA
ATOM     22  N   UNL     1       3.851   7.298  17.938  0.00  0.00    +0.000 N 
ATOM     23  H   UNL     1       3.951   7.417  18.933  0.00  0.00    +0.000 HD
BRANCH  20  29
ATOM     24  C   UNL     1       4.937   4.310  19.189  0.00  0.00    +0.000 C 
ATOM     25  N   UNL     1       6.017   5.215  18.864  0.00  0.00    +0.000 N 
ATOM     26  N   UNL     1       7.211   5.019  19.467  0.00  0.00    +0.000 NA
ATOM     27  C   UNL     1       7.980   5.989  18.985  0.00  0.00    +0.000 A 
ATOM     28  C   UNL     1       7.293   6.804  18.076  0.00  0.00    +0.000 A 
ATOM     29  C   UNL     1       6.005   6.290  17.996  0.00  0.00    +0.000 A 
ENDBRANCH  20  29
ENDBRANCH  19  22
ENDBRANCH   1  19
TORSDOF 4
ENDMDL
MODEL 9
REMARK VINA RESULT:      -8.2      2.719      3.748
REMARK  Name = 
REMARK  5 active torsions:
REMARK  status: ('A' for Active; 'I' for Inactive)
REMARK    1  A    between atoms: C_1  and  N_2
REMARK    2  A    between atoms: C_6  and  C_7
REMARK    3  A    between atoms: N_9  and  C_10
REMARK    4  A    between atoms: C_10  and  C_11
REMARK    5  A    between atoms: C_20  and  C_22
REMARK                            x       y       z     vdW  Elec       q    Type
REMARK                         _______ _______ _______ _____ _____    ______ ____
ROOT
ATOM      1  C   UNL     1       2.430   6.827  19.582  0.00  0.00    +0.000 A 
ATOM      2  C   UNL     1       2.393   7.758  18.521  0.00  0.00    +0.000 A 
ATOM      3  C   UNL     1       1.696   8.979  18.632  0.00  0.00    +0.000 A 
ATOM      4  C   UNL     1       1.048   9.270  19.817  0.00  0.00    +0.000 A 
ATOM      5  C   UNL     1       1.166   8.388  20.898  0.00  0.00    +0.000 A 
ATOM      6  C   UNL     1       1.832   7.173  20.799  0.00  0.00    +0.000 A 
ATOM      7  C   UNL     1       0.527   8.942  22.126  0.00  0.00    +0.000 C 
ATOM      8  C   UNL     1      -0.268  10.103  21.543  0.00  0.00    +0.000 C 
ATOM      9  N   UNL     1       0.199  10.353  20.164  0.00  0.00    +0.000 N 
ATOM     10  C   UNL     1      -0.190  11.404  19.321  0.00  0.00    +0.000 C 
ATOM     11  O   UNL     1       0.251  11.598  18.190  0.00  0.00    +0.000 OA
ENDROOT
BRANCH  10  12
ATOM     12  C   UNL     1      -1.178  12.421  19.842  0.00  0.00    +0.000 A 
ATOM     13  C   UNL     1      -0.704  13.605  20.430  0.00  0.00    +0.000 A 
ATOM     14  C   UNL     1      -1.593  14.507  21.038  0.00  0.00    +0.000 A 
ATOM     15  C   UNL     1      -2.956  14.220  21.078  0.00  0.00    +0.000 A 
ATOM     16 CL   UNL     1      -4.041  15.260  21.914  0.00  0.00    +0.000 Cl
ATOM     17  C   UNL     1      -3.448  13.096  20.430  0.00  0.00    +0.000 A 
ATOM     18  C   UNL     1      -2.566  12.242  19.762  0.00  0.00    +0.000 A 
ENDBRANCH  10  12
BRANCH   1  19
ATOM     19  C   UNL     1       3.131   5.494  19.433  0.00  0.00    +0.000 C 
BRANCH  19  22
ATOM     20  C   UNL     1       5.163   4.728  18.233  0.00  0.00    +0.000 C 
ATOM     21  O   UNL     1       5.508   4.002  19.166  0.00  0.00    +0.000 OA
ATOM     22  N   UNL     1       4.016   5.492  18.293  0.00  0.00    +0.000 N 
ATOM     23  H   UNL     1       3.739   6.043  17.497  0.00  0.00    +0.000 HD
BRANCH  20  29
ATOM     24  C   UNL     1       7.395   6.831  17.618  0.00  0.00    +0.000 C 
ATOM     25  N   UNL     1       6.897   5.790  16.747  0.00  0.00    +0.000 N 
ATOM     26  N   UNL     1       7.441   5.682  15.514  0.00  0.00    +0.000 NA
ATOM     27  C   UNL     1       6.787   4.665  14.960  0.00  0.00    +0.000 A 
ATOM     28  C   UNL     1       5.833   4.119  15.827  0.00  0.00    +0.000 A 
ATOM     29  C   UNL     1       5.910   4.857  17.000  0.00  0.00    +0.000 A 
ENDBRANCH  20  29
ENDBRANCH  19  22
ENDBRANCH   1  19
TORSDOF 4
ENDMDL
