MODEL 1
REMARK VINA RESULT:      -5.9      0.000      0.000
REMARK  Name = 
REMARK  13 active torsions:
REMARK  status: ('A' for Active; 'I' for Inactive)
REMARK    1  A    between atoms: C_1  and  O_2
REMARK    2  A    between atoms: O_2  and  C_3
REMARK    3  A    between atoms: C_6  and  C_7
REMARK    4  A    between atoms: N_8  and  C_9
REMARK    5  A    between atoms: C_12  and  C_13
REMARK    6  A    between atoms: C_16  and  N_17
REMARK    7  A    between atoms: C_18  and  C_19
REMARK    8  A    between atoms: C_22  and  O_23
REMARK    9  A    between atoms: O_23  and  C_24
REMARK   10  A    between atoms: C_25  and  O_26
REMARK   11  A    between atoms: C_28  and  C_29
REMARK   12  A    between atoms: C_32  and  C_33
REMARK   13  A    between atoms: C_35  and  O_36
REMARK                            x       y       z     vdW  Elec       q    Type
REMARK                         _______ _______ _______ _____ _____    ______ ____
ROOT
ATOM      1  C   UNL     1       3.625   6.842  17.643  0.00  0.00    +0.000 A 
ATOM      2  C   UNL     1       3.226   8.111  17.198  0.00  0.00    +0.000 A 
ATOM      3  C   UNL     1       2.415   8.934  17.982  0.00  0.00    +0.000 A 
ATOM      4  C   UNL     1       1.923   8.499  19.215  0.00  0.00    +0.000 A 
ATOM      5  C   UNL     1       2.279   7.200  19.627  0.00  0.00    +0.000 A 
ATOM      6  C   UNL     1       3.134   6.378  18.870  0.00  0.00    +0.000 A 
ATOM      7  C   UNL     1       3.479   5.014  19.394  0.00  0.00    +0.000 C 
ENDROOT
BRANCH   4   8
ATOM      8  C   UNL     1       1.057   9.359  20.047  0.00  0.00    +0.000 A 
ATOM      9  C   UNL     1       0.272  10.381  19.506  0.00  0.00    +0.000 A 
ATOM     10  C   UNL     1      -0.581  11.138  20.318  0.00  0.00    +0.000 A 
ATOM     11  C   UNL     1      -0.707  10.894  21.692  0.00  0.00    +0.000 A 
ATOM     12  C   UNL     1       0.082   9.883  22.260  0.00  0.00    +0.000 A 
ATOM     13  C   UNL     1       0.072   9.469  23.704  0.00  0.00    +0.000 C 
ATOM     14  C   UNL     1       0.969   9.158  21.434  0.00  0.00    +0.000 A 
BRANCH  11  15
ATOM     15  N   UNL     1      -1.708  11.629  22.350  0.00  0.00    +0.000 NA
ATOM     16  C   UNL     1      -2.474  12.422  21.679  0.00  0.00    +0.000 C 
BRANCH  16  17
ATOM     17  C   UNL     1      -3.541  13.200  22.336  0.00  0.00    +0.000 A 
ATOM     18  C   UNL     1      -4.844  13.231  21.824  0.00  0.00    +0.000 A 
ATOM     19  C   UNL     1      -5.827  14.013  22.447  0.00  0.00    +0.000 A 
ATOM     20  C   UNL     1      -5.510  14.756  23.583  0.00  0.00    +0.000 A 
ATOM     21  C   UNL     1      -4.204  14.690  24.086  0.00  0.00    +0.000 A 
ATOM     22  C   UNL     1      -3.217  13.927  23.477  0.00  0.00    +0.000 A 
BRANCH  20  23
ATOM     23  O   UNL     1      -6.354  15.575  24.285  0.00  0.00    +0.000 OA
ATOM     24  C   UNL     1      -6.631  16.850  23.716  0.00  0.00    +0.000 C 
ENDBRANCH  20  23
BRANCH  21  25
ATOM     25  O   UNL     1      -3.865  15.399  25.206  0.00  0.00    +0.000 OA
ATOM     26  H   UNL     1      -4.690  15.438  25.730  0.00  0.00    +0.000 HD
ENDBRANCH  21  25
ENDBRANCH  16  17
ENDBRANCH  11  15
ENDBRANCH   4   8
BRANCH   1  28
ATOM     27  C   UNL     1       4.729   6.385  15.659  0.00  0.00    +0.000 C 
ATOM     28  N   UNL     1       4.454   6.009  16.867  0.00  0.00    +0.000 NA
BRANCH  27  32
ATOM     29  C   UNL     1       7.085   3.990  13.034  0.00  0.00    +0.000 A 
ATOM     30  C   UNL     1       5.767   3.623  13.353  0.00  0.00    +0.000 A 
ATOM     31  C   UNL     1       4.996   4.402  14.217  0.00  0.00    +0.000 A 
ATOM     32  C   UNL     1       5.547   5.557  14.764  0.00  0.00    +0.000 A 
ATOM     33  C   UNL     1       6.861   5.925  14.474  0.00  0.00    +0.000 A 
ATOM     34  C   UNL     1       7.622   5.139  13.613  0.00  0.00    +0.000 A 
BRANCH  29  36
ATOM     35  C   UNL     1       6.925   2.145  11.518  0.00  0.00    +0.000 C 
ATOM     36  O   UNL     1       7.705   3.141  12.164  0.00  0.00    +0.000 OA
ENDBRANCH  29  36
BRANCH  34  37
ATOM     37  O   UNL     1       8.904   5.518  13.347  0.00  0.00    +0.000 OA
ATOM     38  H   UNL     1       9.490   5.101  13.995  0.00  0.00    +0.000 HD
ENDBRANCH  34  37
ENDBRANCH  27  32
ENDBRANCH   1  28
TORSDOF 9
ENDMDL
MODEL 2
REMARK VINA RESULT:      -5.8      0.751      1.220
REMARK  Name = 
REMARK  13 active torsions:
REMARK  status: ('A' for Active; 'I' for Inactive)
REMARK    1  A    between atoms: C_1  and  O_2
REMARK    2  A    between atoms: O_2  and  C_3
REMARK    3  A    between atoms: C_6  and  C_7
REMARK    4  A    between atoms: N_8  and  C_9
REMARK    5  A    between atoms: C_12  and  C_13
REMARK    6  A    between atoms: C_16  and  N_17
REMARK    7  A    between atoms: C_18  and  C_19
REMARK    8  A    between atoms: C_22  and  O_23
REMARK    9  A    between atoms: O_23  and  C_24
REMARK   10  A    between atoms: C_25  and  O_26
REMARK   11  A    between atoms: C_28  and  C_29
REMARK   12  A    between atoms: C_32  and  C_33
REMARK   13  A    between atoms: C_35  and  O_36
REMARK                            x       y       z     vdW  Elec       q    Type
REMARK                         _______ _______ _______ _____ _____    ______ ____
ROOT
ATOM      1  C   UNL     1       3.329   6.834  17.784  0.00  0.00    +0.000 A 
ATOM      2  C   UNL     1       2.932   8.101  17.331  0.00  0.00    +0.000 A 
ATOM      3  C   UNL     1       2.245   8.986  18.164  0.00  0.00    +0.000 A 
ATOM      4  C   UNL     1       1.876   8.620  19.461  0.00  0.00    +0.000 A 
ATOM      5  C   UNL     1       2.226   7.324  19.885  0.00  0.00    +0.000 A 
ATOM      6  C   UNL     1       2.959   6.438  19.075  0.00  0.00    +0.000 A 
ATOM      7  C   UNL     1       3.308   5.081  19.616  0.00  0.00    +0.000 C 
ENDROOT
BRANCH   4   8
ATOM      8  C   UNL     1       1.140   9.546  20.345  0.00  0.00    +0.000 A 
ATOM      9  C   UNL     1       0.755  10.827  19.937  0.00  0.00    +0.000 A 
ATOM     10  C   UNL     1       0.008  11.656  20.783  0.00  0.00    +0.000 A 
ATOM     11  C   UNL     1      -0.405  11.238  22.055  0.00  0.00    +0.000 A 
ATOM     12  C   UNL     1      -0.017   9.962  22.491  0.00  0.00    +0.000 A 
ATOM     13  C   UNL     1      -0.378   9.339  23.810  0.00  0.00    +0.000 C 
ATOM     14  C   UNL     1       0.772   9.156  21.642  0.00  0.00    +0.000 A 
BRANCH  11  15
ATOM     15  N   UNL     1      -1.272  12.114  22.729  0.00  0.00    +0.000 NA
ATOM     16  C   UNL     1      -2.051  12.896  22.059  0.00  0.00    +0.000 C 
BRANCH  16  17
ATOM     17  C   UNL     1      -2.980  13.821  22.734  0.00  0.00    +0.000 A 
ATOM     18  C   UNL     1      -2.692  14.355  23.996  0.00  0.00    +0.000 A 
ATOM     19  C   UNL     1      -3.614  15.199  24.631  0.00  0.00    +0.000 A 
ATOM     20  C   UNL     1      -4.818  15.513  24.002  0.00  0.00    +0.000 A 
ATOM     21  C   UNL     1      -5.072  14.982  22.732  0.00  0.00    +0.000 A 
ATOM     22  C   UNL     1      -4.173  14.139  22.092  0.00  0.00    +0.000 A 
BRANCH  20  23
ATOM     23  O   UNL     1      -5.818  16.304  24.503  0.00  0.00    +0.000 OA
ATOM     24  C   UNL     1      -5.563  17.703  24.563  0.00  0.00    +0.000 C 
ENDBRANCH  20  23
BRANCH  21  25
ATOM     25  O   UNL     1      -6.239  15.282  22.084  0.00  0.00    +0.000 OA
ATOM     26  H   UNL     1      -6.942  14.997  22.703  0.00  0.00    +0.000 HD
ENDBRANCH  21  25
ENDBRANCH  16  17
ENDBRANCH  11  15
ENDBRANCH   4   8
BRANCH   1  28
ATOM     27  C   UNL     1       4.761   6.434  16.008  0.00  0.00    +0.000 C 
ATOM     28  N   UNL     1       4.034   5.937  16.958  0.00  0.00    +0.000 NA
BRANCH  27  32
ATOM     29  C   UNL     1       6.865   3.940  13.263  0.00  0.00    +0.000 A 
ATOM     30  C   UNL     1       5.608   3.560  13.761  0.00  0.00    +0.000 A 
ATOM     31  C   UNL     1       4.920   4.372  14.665  0.00  0.00    +0.000 A 
ATOM     32  C   UNL     1       5.494   5.572  15.071  0.00  0.00    +0.000 A 
ATOM     33  C   UNL     1       6.751   5.956  14.603  0.00  0.00    +0.000 A 
ATOM     34  C   UNL     1       7.429   5.137  13.704  0.00  0.00    +0.000 A 
BRANCH  29  36
ATOM     35  C   UNL     1       6.531   2.347  11.509  0.00  0.00    +0.000 C 
ATOM     36  O   UNL     1       7.405   3.055  12.376  0.00  0.00    +0.000 OA
ENDBRANCH  29  36
BRANCH  34  37
ATOM     37  O   UNL     1       8.657   5.531  13.263  0.00  0.00    +0.000 OA
ATOM     38  H   UNL     1       8.584   5.786  12.331  0.00  0.00    +0.000 HD
ENDBRANCH  34  37
ENDBRANCH  27  32
ENDBRANCH   1  28
TORSDOF 9
ENDMDL
MODEL 3
REMARK VINA RESULT:      -5.7      1.020      1.682
REMARK  Name = 
REMARK  13 active torsions:
REMARK  status: ('A' for Active; 'I' for Inactive)
REMARK    1  A    between atoms: C_1  and  O_2
REMARK    2  A    between atoms: O_2  and  C_3
REMARK    3  A    between atoms: C_6  and  C_7
REMARK    4  A    between atoms: N_8  and  C_9
REMARK    5  A    between atoms: C_12  and  C_13
REMARK    6  A    between atoms: C_16  and  N_17
REMARK    7  A    between atoms: C_18  and  C_19
REMARK    8  A    between atoms: C_22  and  O_23
REMARK    9  A    between atoms: O_23  and  C_24
REMARK   10  A    between atoms: C_25  and  O_26
REMARK   11  A    between atoms: C_28  and  C_29
REMARK   12  A    between atoms: C_32  and  C_33
REMARK   13  A    between atoms: C_35  and  O_36
REMARK                            x       y       z     vdW  Elec       q    Type
REMARK                         _______ _______ _______ _____ _____    ______ ____
ROOT
ATOM      1  C   UNL     1       3.427   6.691  17.848  0.00  0.00    +0.000 A 
ATOM      2  C   UNL     1       2.953   7.932  17.396  0.00  0.00    +0.000 A 
ATOM      3  C   UNL     1       2.164   8.747  18.209  0.00  0.00    +0.000 A 
ATOM      4  C   UNL     1       1.769   8.332  19.483  0.00  0.00    +0.000 A 
ATOM      5  C   UNL     1       2.199   7.059  19.905  0.00  0.00    +0.000 A 
ATOM      6  C   UNL     1       3.033   6.246  19.116  0.00  0.00    +0.000 A 
ATOM      7  C   UNL     1       3.462   4.911  19.653  0.00  0.00    +0.000 C 
ENDROOT
BRANCH   4   8
ATOM      8  C   UNL     1       0.927   9.184  20.347  0.00  0.00    +0.000 A 
ATOM      9  C   UNL     1       1.091   9.244  21.733  0.00  0.00    +0.000 A 
ATOM     10  C   UNL     1       0.312  10.107  22.513  0.00  0.00    +0.000 A 
ATOM     11  C   UNL     1      -0.643  10.960  21.945  0.00  0.00    +0.000 A 
ATOM     12  C   UNL     1      -0.837  10.906  20.557  0.00  0.00    +0.000 A 
ATOM     13  C   UNL     1      -1.799  11.752  19.772  0.00  0.00    +0.000 C 
ATOM     14  C   UNL     1      -0.072   9.999  19.790  0.00  0.00    +0.000 A 
BRANCH  11  15
ATOM     15  N   UNL     1      -1.242  11.874  22.829  0.00  0.00    +0.000 NA
ATOM     16  C   UNL     1      -1.778  12.956  22.374  0.00  0.00    +0.000 C 
BRANCH  16  17
ATOM     17  C   UNL     1      -2.423  13.932  23.272  0.00  0.00    +0.000 A 
ATOM     18  C   UNL     1      -3.787  14.233  23.166  0.00  0.00    +0.000 A 
ATOM     19  C   UNL     1      -4.363  15.196  24.007  0.00  0.00    +0.000 A 
ATOM     20  C   UNL     1      -3.579  15.850  24.956  0.00  0.00    +0.000 A 
ATOM     21  C   UNL     1      -2.223  15.515  25.054  0.00  0.00    +0.000 A 
ATOM     22  C   UNL     1      -1.635  14.570  24.225  0.00  0.00    +0.000 A 
BRANCH  20  23
ATOM     23  O   UNL     1      -3.994  16.821  25.828  0.00  0.00    +0.000 OA
ATOM     24  C   UNL     1      -4.932  17.771  25.334  0.00  0.00    +0.000 C 
ENDBRANCH  20  23
BRANCH  21  25
ATOM     25  O   UNL     1      -1.430  16.132  25.984  0.00  0.00    +0.000 OA
ATOM     26  H   UNL     1      -1.669  15.705  26.830  0.00  0.00    +0.000 HD
ENDBRANCH  21  25
ENDBRANCH  16  17
ENDBRANCH  11  15
ENDBRANCH   4   8
BRANCH   1  28
ATOM     27  C   UNL     1       4.697   6.363  15.939  0.00  0.00    +0.000 C 
ATOM     28  N   UNL     1       4.234   5.865  17.042  0.00  0.00    +0.000 NA
BRANCH  27  32
ATOM     29  C   UNL     1       7.034   4.041  13.233  0.00  0.00    +0.000 A 
ATOM     30  C   UNL     1       5.746   3.625  13.609  0.00  0.00    +0.000 A 
ATOM     31  C   UNL     1       4.981   4.381  14.500  0.00  0.00    +0.000 A 
ATOM     32  C   UNL     1       5.509   5.560  15.017  0.00  0.00    +0.000 A 
ATOM     33  C   UNL     1       6.795   5.976  14.670  0.00  0.00    +0.000 A 
ATOM     34  C   UNL     1       7.549   5.213  13.782  0.00  0.00    +0.000 A 
BRANCH  29  36
ATOM     35  C   UNL     1       6.846   2.495  11.415  0.00  0.00    +0.000 C 
ATOM     36  O   UNL     1       7.650   3.209  12.343  0.00  0.00    +0.000 OA
ENDBRANCH  29  36
BRANCH  34  37
ATOM     37  O   UNL     1       8.803   5.640  13.461  0.00  0.00    +0.000 OA
ATOM     38  H   UNL     1       9.444   4.993  13.792  0.00  0.00    +0.000 HD
ENDBRANCH  34  37
ENDBRANCH  27  32
ENDBRANCH   1  28
TORSDOF 9
ENDMDL
MODEL 4
REMARK VINA RESULT:      -5.0      1.652      2.178
REMARK  Name = 
REMARK  13 active torsions:
REMARK  status: ('A' for Active; 'I' for Inactive)
REMARK    1  A    between atoms: C_1  and  O_2
REMARK    2  A    between atoms: O_2  and  C_3
REMARK    3  A    between atoms: C_6  and  C_7
REMARK    4  A    between atoms: N_8  and  C_9
REMARK    5  A    between atoms: C_12  and  C_13
REMARK    6  A    between atoms: C_16  and  N_17
REMARK    7  A    between atoms: C_18  and  C_19
REMARK    8  A    between atoms: C_22  and  O_23
REMARK    9  A    between atoms: O_23  and  C_24
REMARK   10  A    between atoms: C_25  and  O_26
REMARK   11  A    between atoms: C_28  and  C_29
REMARK   12  A    between atoms: C_32  and  C_33
REMARK   13  A    between atoms: C_35  and  O_36
REMARK                            x       y       z     vdW  Elec       q    Type
REMARK                         _______ _______ _______ _____ _____    ______ ____
ROOT
ATOM      1  C   UNL     1       3.346   7.153  17.865  0.00  0.00    +0.000 A 
ATOM      2  C   UNL     1       2.899   8.369  17.326  0.00  0.00    +0.000 A 
ATOM      3  C   UNL     1       2.067   9.222  18.051  0.00  0.00    +0.000 A 
ATOM      4  C   UNL     1       1.600   8.869  19.320  0.00  0.00    +0.000 A 
ATOM      5  C   UNL     1       2.004   7.620  19.829  0.00  0.00    +0.000 A 
ATOM      6  C   UNL     1       2.881   6.771  19.130  0.00  0.00    +0.000 A 
ATOM      7  C   UNL     1       3.278   5.465  19.756  0.00  0.00    +0.000 C 
ENDROOT
BRANCH   4   8
ATOM      8  C   UNL     1       0.710   9.762  20.090  0.00  0.00    +0.000 A 
ATOM      9  C   UNL     1       0.962  10.109  21.421  0.00  0.00    +0.000 A 
ATOM     10  C   UNL     1       0.128  11.003  22.101  0.00  0.00    +0.000 A 
ATOM     11  C   UNL     1      -0.976  11.605  21.482  0.00  0.00    +0.000 A 
ATOM     12  C   UNL     1      -1.258  11.260  20.151  0.00  0.00    +0.000 A 
ATOM     13  C   UNL     1      -2.383  11.813  19.322  0.00  0.00    +0.000 C 
ATOM     14  C   UNL     1      -0.430  10.324  19.494  0.00  0.00    +0.000 A 
BRANCH  11  15
ATOM     15  N   UNL     1      -1.631  12.592  22.237  0.00  0.00    +0.000 NA
ATOM     16  C   UNL     1      -0.958  13.564  22.756  0.00  0.00    +0.000 C 
BRANCH  16  17
ATOM     17  C   UNL     1      -1.616  14.621  23.545  0.00  0.00    +0.000 A 
ATOM     18  C   UNL     1      -2.375  14.319  24.682  0.00  0.00    +0.000 A 
ATOM     19  C   UNL     1      -3.023  15.343  25.389  0.00  0.00    +0.000 A 
ATOM     20  C   UNL     1      -2.906  16.665  24.964  0.00  0.00    +0.000 A 
ATOM     21  C   UNL     1      -2.124  16.941  23.835  0.00  0.00    +0.000 A 
ATOM     22  C   UNL     1      -1.482  15.940  23.119  0.00  0.00    +0.000 A 
BRANCH  20  23
ATOM     23  O   UNL     1      -3.492  17.762  25.537  0.00  0.00    +0.000 OA
ATOM     24  C   UNL     1      -4.900  17.896  25.377  0.00  0.00    +0.000 C 
ENDBRANCH  20  23
BRANCH  21  25
ATOM     25  O   UNL     1      -1.980  18.230  23.400  0.00  0.00    +0.000 OA
ATOM     26  H   UNL     1      -1.029  18.312  23.187  0.00  0.00    +0.000 HD
ENDBRANCH  21  25
ENDBRANCH  16  17
ENDBRANCH  11  15
ENDBRANCH   4   8
BRANCH   1  28
ATOM     27  C   UNL     1       4.467   6.591  15.918  0.00  0.00    +0.000 C 
ATOM     28  N   UNL     1       4.198   6.290  17.149  0.00  0.00    +0.000 NA
BRANCH  27  32
ATOM     29  C   UNL     1       6.889   4.082  13.465  0.00  0.00    +0.000 A 
ATOM     30  C   UNL     1       5.608   3.671  13.869  0.00  0.00    +0.000 A 
ATOM     31  C   UNL     1       4.816   4.488  14.678  0.00  0.00    +0.000 A 
ATOM     32  C   UNL     1       5.309   5.725  15.083  0.00  0.00    +0.000 A 
ATOM     33  C   UNL     1       6.587   6.139  14.707  0.00  0.00    +0.000 A 
ATOM     34  C   UNL     1       7.369   5.315  13.903  0.00  0.00    +0.000 A 
BRANCH  29  36
ATOM     35  C   UNL     1       6.781   2.490  11.681  0.00  0.00    +0.000 C 
ATOM     36  O   UNL     1       7.535   3.186  12.664  0.00  0.00    +0.000 OA
ENDBRANCH  29  36
BRANCH  34  37
ATOM     37  O   UNL     1       8.615   5.741  13.552  0.00  0.00    +0.000 OA
ATOM     38  H   UNL     1       8.588   6.057  12.637  0.00  0.00    +0.000 HD
ENDBRANCH  34  37
ENDBRANCH  27  32
ENDBRANCH   1  28
TORSDOF 9
ENDMDL
MODEL 5
REMARK VINA RESULT:      -4.8      1.196     14.154
REMARK  Name = 
REMARK  13 active torsions:
REMARK  status: ('A' for Active; 'I' for Inactive)
REMARK    1  A    between atoms: C_1  and  O_2
REMARK    2  A    between atoms: O_2  and  C_3
REMARK    3  A    between atoms: C_6  and  C_7
REMARK    4  A    between atoms: N_8  and  C_9
REMARK    5  A    between atoms: C_12  and  C_13
REMARK    6  A    between atoms: C_16  and  N_17
REMARK    7  A    between atoms: C_18  and  C_19
REMARK    8  A    between atoms: C_22  and  O_23
REMARK    9  A    between atoms: O_23  and  C_24
REMARK   10  A    between atoms: C_25  and  O_26
REMARK   11  A    between atoms: C_28  and  C_29
REMARK   12  A    between atoms: C_32  and  C_33
REMARK   13  A    between atoms: C_35  and  O_36
REMARK                            x       y       z     vdW  Elec       q    Type
REMARK                         _______ _______ _______ _____ _____    ______ ____
ROOT
ATOM      1  C   UNL     1       0.033  10.615  21.794  0.00  0.00    +0.000 A 
ATOM      2  C   UNL     1       0.173  10.900  20.427  0.00  0.00    +0.000 A 
ATOM      3  C   UNL     1       0.848  10.029  19.570  0.00  0.00    +0.000 A 
ATOM      4  C   UNL     1       1.460   8.870  20.054  0.00  0.00    +0.000 A 
ATOM      5  C   UNL     1       1.365   8.623  21.437  0.00  0.00    +0.000 A 
ATOM      6  C   UNL     1       0.648   9.466  22.305  0.00  0.00    +0.000 A 
ATOM      7  C   UNL     1       0.581   9.116  23.764  0.00  0.00    +0.000 C 
ENDROOT
BRANCH   4   8
ATOM      8  C   UNL     1       2.185   7.948  19.156  0.00  0.00    +0.000 A 
ATOM      9  C   UNL     1       2.518   8.286  17.841  0.00  0.00    +0.000 A 
ATOM     10  C   UNL     1       3.257   7.409  17.038  0.00  0.00    +0.000 A 
ATOM     11  C   UNL     1       3.713   6.174  17.515  0.00  0.00    +0.000 A 
ATOM     12  C   UNL     1       3.378   5.806  18.827  0.00  0.00    +0.000 A 
ATOM     13  C   UNL     1       3.790   4.534  19.513  0.00  0.00    +0.000 C 
ATOM     14  C   UNL     1       2.596   6.684  19.609  0.00  0.00    +0.000 A 
BRANCH  11  15
ATOM     15  N   UNL     1       4.566   5.468  16.650  0.00  0.00    +0.000 NA
ATOM     16  C   UNL     1       4.490   5.649  15.375  0.00  0.00    +0.000 C 
BRANCH  16  17
ATOM     17  C   UNL     1       5.377   4.932  14.440  0.00  0.00    +0.000 A 
ATOM     18  C   UNL     1       6.770   5.046  14.521  0.00  0.00    +0.000 A 
ATOM     19  C   UNL     1       7.586   4.385  13.592  0.00  0.00    +0.000 A 
ATOM     20  C   UNL     1       7.010   3.606  12.590  0.00  0.00    +0.000 A 
ATOM     21  C   UNL     1       5.615   3.493  12.544  0.00  0.00    +0.000 A 
ATOM     22  C   UNL     1       4.792   4.146  13.451  0.00  0.00    +0.000 A 
BRANCH  20  23
ATOM     23  O   UNL     1       7.674   2.921  11.607  0.00  0.00    +0.000 OA
ATOM     24  C   UNL     1       7.284   1.569  11.392  0.00  0.00    +0.000 C 
ENDBRANCH  20  23
BRANCH  21  25
ATOM     25  O   UNL     1       5.021   2.726  11.579  0.00  0.00    +0.000 OA
ATOM     26  H   UNL     1       5.577   2.858  10.786  0.00  0.00    +0.000 HD
ENDBRANCH  21  25
ENDBRANCH  16  17
ENDBRANCH  11  15
ENDBRANCH   4   8
BRANCH   1  28
ATOM     27  C   UNL     1      -1.228  12.524  22.156  0.00  0.00    +0.000 C 
ATOM     28  N   UNL     1      -0.658  11.479  22.666  0.00  0.00    +0.000 NA
BRANCH  27  32
ATOM     29  C   UNL     1      -3.286  15.338  24.611  0.00  0.00    +0.000 A 
ATOM     30  C   UNL     1      -3.957  14.655  23.583  0.00  0.00    +0.000 A 
ATOM     31  C   UNL     1      -3.284  13.738  22.774  0.00  0.00    +0.000 A 
ATOM     32  C   UNL     1      -1.930  13.502  22.996  0.00  0.00    +0.000 A 
ATOM     33  C   UNL     1      -1.244  14.187  23.999  0.00  0.00    +0.000 A 
ATOM     34  C   UNL     1      -1.925  15.101  24.799  0.00  0.00    +0.000 A 
BRANCH  29  36
ATOM     35  C   UNL     1      -4.540  17.374  24.699  0.00  0.00    +0.000 C 
ATOM     36  O   UNL     1      -4.080  16.186  25.327  0.00  0.00    +0.000 OA
ENDBRANCH  29  36
BRANCH  34  37
ATOM     37  O   UNL     1      -1.232  15.759  25.770  0.00  0.00    +0.000 OA
ATOM     38  H   UNL     1      -0.873  16.576  25.394  0.00  0.00    +0.000 HD
ENDBRANCH  34  37
ENDBRANCH  27  32
ENDBRANCH   1  28
TORSDOF 9
ENDMDL
MODEL 6
REMARK VINA RESULT:      -4.7      1.158     14.176
REMARK  Name = 
REMARK  13 active torsions:
REMARK  status: ('A' for Active; 'I' for Inactive)
REMARK    1  A    between atoms: C_1  and  O_2
REMARK    2  A    between atoms: O_2  and  C_3
REMARK    3  A    between atoms: C_6  and  C_7
REMARK    4  A    between atoms: N_8  and  C_9
REMARK    5  A    between atoms: C_12  and  C_13
REMARK    6  A    between atoms: C_16  and  N_17
REMARK    7  A    between atoms: C_18  and  C_19
REMARK    8  A    between atoms: C_22  and  O_23
REMARK    9  A    between atoms: O_23  and  C_24
REMARK   10  A    between atoms: C_25  and  O_26
REMARK   11  A    between atoms: C_28  and  C_29
REMARK   12  A    between atoms: C_32  and  C_33
REMARK   13  A    between atoms: C_35  and  O_36
REMARK                            x       y       z     vdW  Elec       q    Type
REMARK                         _______ _______ _______ _____ _____    ______ ____
ROOT
ATOM      1  C   UNL     1      -0.198  11.097  22.188  0.00  0.00    +0.000 A 
ATOM      2  C   UNL     1       0.098  11.415  20.854  0.00  0.00    +0.000 A 
ATOM      3  C   UNL     1       0.716  10.493  20.008  0.00  0.00    +0.000 A 
ATOM      4  C   UNL     1       1.114   9.237  20.475  0.00  0.00    +0.000 A 
ATOM      5  C   UNL     1       0.867   8.949  21.831  0.00  0.00    +0.000 A 
ATOM      6  C   UNL     1       0.203   9.850  22.684  0.00  0.00    +0.000 A 
ATOM      7  C   UNL     1      -0.038   9.453  24.112  0.00  0.00    +0.000 C 
ENDROOT
BRANCH   4   8
ATOM      8  C   UNL     1       1.777   8.259  19.590  0.00  0.00    +0.000 A 
ATOM      9  C   UNL     1       2.061   8.531  18.249  0.00  0.00    +0.000 A 
ATOM     10  C   UNL     1       2.743   7.601  17.455  0.00  0.00    +0.000 A 
ATOM     11  C   UNL     1       3.188   6.375  17.967  0.00  0.00    +0.000 A 
ATOM     12  C   UNL     1       2.901   6.073  19.307  0.00  0.00    +0.000 A 
ATOM     13  C   UNL     1       3.310   4.822  20.031  0.00  0.00    +0.000 C 
ATOM     14  C   UNL     1       2.175   7.005  20.081  0.00  0.00    +0.000 A 
BRANCH  11  15
ATOM     15  N   UNL     1       3.986   5.610  17.100  0.00  0.00    +0.000 NA
ATOM     16  C   UNL     1       4.594   6.175  16.111  0.00  0.00    +0.000 C 
BRANCH  16  17
ATOM     17  C   UNL     1       5.446   5.403  15.188  0.00  0.00    +0.000 A 
ATOM     18  C   UNL     1       6.843   5.487  15.241  0.00  0.00    +0.000 A 
ATOM     19  C   UNL     1       7.627   4.773  14.323  0.00  0.00    +0.000 A 
ATOM     20  C   UNL     1       7.015   3.973  13.360  0.00  0.00    +0.000 A 
ATOM     21  C   UNL     1       5.617   3.891  13.343  0.00  0.00    +0.000 A 
ATOM     22  C   UNL     1       4.826   4.596  14.239  0.00  0.00    +0.000 A 
BRANCH  20  23
ATOM     23  O   UNL     1       7.644   3.236  12.391  0.00  0.00    +0.000 OA
ATOM     24  C   UNL     1       7.404   3.614  11.040  0.00  0.00    +0.000 C 
ENDBRANCH  20  23
BRANCH  21  25
ATOM     25  O   UNL     1       4.988   3.104  12.417  0.00  0.00    +0.000 OA
ATOM     26  H   UNL     1       5.496   2.268  12.421  0.00  0.00    +0.000 HD
ENDBRANCH  21  25
ENDBRANCH  16  17
ENDBRANCH  11  15
ENDBRANCH   4   8
BRANCH   1  28
ATOM     27  C   UNL     1      -1.686  12.839  22.529  0.00  0.00    +0.000 C 
ATOM     28  N   UNL     1      -0.833  12.015  23.047  0.00  0.00    +0.000 NA
BRANCH  27  32
ATOM     29  C   UNL     1      -3.633  15.826  24.867  0.00  0.00    +0.000 A 
ATOM     30  C   UNL     1      -2.232  15.729  24.847  0.00  0.00    +0.000 A 
ATOM     31  C   UNL     1      -1.592  14.748  24.087  0.00  0.00    +0.000 A 
ATOM     32  C   UNL     1      -2.361  13.859  23.341  0.00  0.00    +0.000 A 
ATOM     33  C   UNL     1      -3.754  13.928  23.365  0.00  0.00    +0.000 A 
ATOM     34  C   UNL     1      -4.381  14.909  24.129  0.00  0.00    +0.000 A 
BRANCH  29  36
ATOM     35  C   UNL     1      -3.881  18.180  25.216  0.00  0.00    +0.000 C 
ATOM     36  O   UNL     1      -4.111  16.844  25.639  0.00  0.00    +0.000 OA
ENDBRANCH  29  36
BRANCH  34  37
ATOM     37  O   UNL     1      -5.743  14.954  24.139  0.00  0.00    +0.000 OA
ATOM     38  H   UNL     1      -6.026  15.819  23.808  0.00  0.00    +0.000 HD
ENDBRANCH  34  37
ENDBRANCH  27  32
ENDBRANCH   1  28
TORSDOF 9
ENDMDL
MODEL 7
REMARK VINA RESULT:      -4.7      1.339      1.925
REMARK  Name = 
REMARK  13 active torsions:
REMARK  status: ('A' for Active; 'I' for Inactive)
REMARK    1  A    between atoms: C_1  and  O_2
REMARK    2  A    between atoms: O_2  and  C_3
REMARK    3  A    between atoms: C_6  and  C_7
REMARK    4  A    between atoms: N_8  and  C_9
REMARK    5  A    between atoms: C_12  and  C_13
REMARK    6  A    between atoms: C_16  and  N_17
REMARK    7  A    between atoms: C_18  and  C_19
REMARK    8  A    between atoms: C_22  and  O_23
REMARK    9  A    between atoms: O_23  and  C_24
REMARK   10  A    between atoms: C_25  and  O_26
REMARK   11  A    between atoms: C_28  and  C_29
REMARK   12  A    between atoms: C_32  and  C_33
REMARK   13  A    between atoms: C_35  and  O_36
REMARK                            x       y       z     vdW  Elec       q    Type
REMARK                         _______ _______ _______ _____ _____    ______ ____
ROOT
ATOM      1  C   UNL     1       3.996   6.317  17.205  0.00  0.00    +0.000 A 
ATOM      2  C   UNL     1       3.963   7.716  17.100  0.00  0.00    +0.000 A 
ATOM      3  C   UNL     1       3.143   8.486  17.926  0.00  0.00    +0.000 A 
ATOM      4  C   UNL     1       2.282   7.889  18.850  0.00  0.00    +0.000 A 
ATOM      5  C   UNL     1       2.277   6.482  18.906  0.00  0.00    +0.000 A 
ATOM      6  C   UNL     1       3.132   5.694  18.113  0.00  0.00    +0.000 A 
ATOM      7  C   UNL     1       3.076   4.199  18.253  0.00  0.00    +0.000 C 
ENDROOT
BRANCH   4   8
ATOM      8  C   UNL     1       1.404   8.695  19.721  0.00  0.00    +0.000 A 
ATOM      9  C   UNL     1       1.586   8.776  21.104  0.00  0.00    +0.000 A 
ATOM     10  C   UNL     1       0.770   9.597  21.891  0.00  0.00    +0.000 A 
ATOM     11  C   UNL     1      -0.244  10.387  21.333  0.00  0.00    +0.000 A 
ATOM     12  C   UNL     1      -0.456  10.311  19.948  0.00  0.00    +0.000 A 
ATOM     13  C   UNL     1      -1.480  11.092  19.174  0.00  0.00    +0.000 C 
ATOM     14  C   UNL     1       0.349   9.445  19.176  0.00  0.00    +0.000 A 
BRANCH  11  15
ATOM     15  N   UNL     1      -0.882  11.271  22.220  0.00  0.00    +0.000 NA
ATOM     16  C   UNL     1      -1.220  12.452  21.825  0.00  0.00    +0.000 C 
BRANCH  16  17
ATOM     17  C   UNL     1      -1.899  13.401  22.726  0.00  0.00    +0.000 A 
ATOM     18  C   UNL     1      -1.488  14.735  22.827  0.00  0.00    +0.000 A 
ATOM     19  C   UNL     1      -2.127  15.604  23.724  0.00  0.00    +0.000 A 
ATOM     20  C   UNL     1      -3.179  15.140  24.511  0.00  0.00    +0.000 A 
ATOM     21  C   UNL     1      -3.584  13.806  24.376  0.00  0.00    +0.000 A 
ATOM     22  C   UNL     1      -2.958  12.931  23.499  0.00  0.00    +0.000 A 
BRANCH  20  23
ATOM     23  O   UNL     1      -3.883  15.860  25.440  0.00  0.00    +0.000 OA
ATOM     24  C   UNL     1      -4.028  17.255  25.195  0.00  0.00    +0.000 C 
ENDBRANCH  20  23
BRANCH  21  25
ATOM     25  O   UNL     1      -4.622  13.325  25.127  0.00  0.00    +0.000 OA
ATOM     26  H   UNL     1      -4.798  14.030  25.780  0.00  0.00    +0.000 HD
ENDBRANCH  21  25
ENDBRANCH  16  17
ENDBRANCH  11  15
ENDBRANCH   4   8
BRANCH   1  28
ATOM     27  C   UNL     1       4.925   5.850  15.135  0.00  0.00    +0.000 C 
ATOM     28  N   UNL     1       4.829   5.530  16.386  0.00  0.00    +0.000 NA
BRANCH  27  32
ATOM     29  C   UNL     1       7.256   3.565  12.393  0.00  0.00    +0.000 A 
ATOM     30  C   UNL     1       5.911   3.241  12.636  0.00  0.00    +0.000 A 
ATOM     31  C   UNL     1       5.147   3.984  13.538  0.00  0.00    +0.000 A 
ATOM     32  C   UNL     1       5.734   5.059  14.200  0.00  0.00    +0.000 A 
ATOM     33  C   UNL     1       7.074   5.381  13.985  0.00  0.00    +0.000 A 
ATOM     34  C   UNL     1       7.827   4.632  13.085  0.00  0.00    +0.000 A 
BRANCH  29  36
ATOM     35  C   UNL     1       7.175   1.606  11.021  0.00  0.00    +0.000 C 
ATOM     36  O   UNL     1       7.865   2.761  11.473  0.00  0.00    +0.000 OA
ENDBRANCH  29  36
BRANCH  34  37
ATOM     37  O   UNL     1       9.135   4.965  12.895  0.00  0.00    +0.000 OA
ATOM     38  H   UNL     1       9.380   4.746  11.984  0.00  0.00    +0.000 HD
ENDBRANCH  34  37
ENDBRANCH  27  32
ENDBRANCH   1  28
TORSDOF 9
ENDMDL
MODEL 8
REMARK VINA RESULT:      -4.7      1.201      1.875
REMARK  Name = 
REMARK  13 active torsions:
REMARK  status: ('A' for Active; 'I' for Inactive)
REMARK    1  A    between atoms: C_1  and  O_2
REMARK    2  A    between atoms: O_2  and  C_3
REMARK    3  A    between atoms: C_6  and  C_7
REMARK    4  A    between atoms: N_8  and  C_9
REMARK    5  A    between atoms: C_12  and  C_13
REMARK    6  A    between atoms: C_16  and  N_17
REMARK    7  A    between atoms: C_18  and  C_19
REMARK    8  A    between atoms: C_22  and  O_23
REMARK    9  A    between atoms: O_23  and  C_24
REMARK   10  A    between atoms: C_25  and  O_26
REMARK   11  A    between atoms: C_28  and  C_29
REMARK   12  A    between atoms: C_32  and  C_33
REMARK   13  A    between atoms: C_35  and  O_36
REMARK                            x       y       z     vdW  Elec       q    Type
REMARK                         _______ _______ _______ _____ _____    ______ ____
ROOT
ATOM      1  C   UNL     1       3.621   6.580  17.451  0.00  0.00    +0.000 A 
ATOM      2  C   UNL     1       3.328   7.886  17.030  0.00  0.00    +0.000 A 
ATOM      3  C   UNL     1       2.616   8.768  17.845  0.00  0.00    +0.000 A 
ATOM      4  C   UNL     1       2.120   8.363  19.087  0.00  0.00    +0.000 A 
ATOM      5  C   UNL     1       2.367   7.032  19.475  0.00  0.00    +0.000 A 
ATOM      6  C   UNL     1       3.123   6.147  18.686  0.00  0.00    +0.000 A 
ATOM      7  C   UNL     1       3.357   4.750  19.186  0.00  0.00    +0.000 C 
ENDROOT
BRANCH   4   8
ATOM      8  C   UNL     1       1.357   9.287  19.952  0.00  0.00    +0.000 A 
ATOM      9  C   UNL     1       0.868  10.513  19.494  0.00  0.00    +0.000 A 
ATOM     10  C   UNL     1       0.100  11.336  20.326  0.00  0.00    +0.000 A 
ATOM     11  C   UNL     1      -0.233  10.964  21.635  0.00  0.00    +0.000 A 
ATOM     12  C   UNL     1       0.260   9.744  22.121  0.00  0.00    +0.000 A 
ATOM     13  C   UNL     1      -0.004   9.173  23.486  0.00  0.00    +0.000 C 
ATOM     14  C   UNL     1       1.069   8.946  21.283  0.00  0.00    +0.000 A 
BRANCH  11  15
ATOM     15  N   UNL     1      -1.131  11.817  22.298  0.00  0.00    +0.000 NA
ATOM     16  C   UNL     1      -0.774  13.017  22.610  0.00  0.00    +0.000 C 
BRANCH  16  17
ATOM     17  C   UNL     1      -1.695  13.941  23.297  0.00  0.00    +0.000 A 
ATOM     18  C   UNL     1      -1.284  15.217  23.702  0.00  0.00    +0.000 A 
ATOM     19  C   UNL     1      -2.170  16.058  24.391  0.00  0.00    +0.000 A 
ATOM     20  C   UNL     1      -3.466  15.626  24.666  0.00  0.00    +0.000 A 
ATOM     21  C   UNL     1      -3.859  14.354  24.232  0.00  0.00    +0.000 A 
ATOM     22  C   UNL     1      -2.992  13.506  23.556  0.00  0.00    +0.000 A 
BRANCH  20  23
ATOM     23  O   UNL     1      -4.433  16.324  25.342  0.00  0.00    +0.000 OA
ATOM     24  C   UNL     1      -4.479  17.730  25.126  0.00  0.00    +0.000 C 
ENDBRANCH  20  23
BRANCH  21  25
ATOM     25  O   UNL     1      -5.128  13.907  24.477  0.00  0.00    +0.000 OA
ATOM     26  H   UNL     1      -5.458  14.487  25.191  0.00  0.00    +0.000 HD
ENDBRANCH  21  25
ENDBRANCH  16  17
ENDBRANCH  11  15
ENDBRANCH   4   8
BRANCH   1  28
ATOM     27  C   UNL     1       4.800   6.123  15.510  0.00  0.00    +0.000 C 
ATOM     28  N   UNL     1       4.350   5.686  16.643  0.00  0.00    +0.000 NA
BRANCH  27  32
ATOM     29  C   UNL     1       6.932   3.561  12.851  0.00  0.00    +0.000 A 
ATOM     30  C   UNL     1       7.618   4.411  13.734  0.00  0.00    +0.000 A 
ATOM     31  C   UNL     1       6.923   5.256  14.601  0.00  0.00    +0.000 A 
ATOM     32  C   UNL     1       5.531   5.248  14.585  0.00  0.00    +0.000 A 
ATOM     33  C   UNL     1       4.834   4.424  13.701  0.00  0.00    +0.000 A 
ATOM     34  C   UNL     1       5.539   3.588  12.838  0.00  0.00    +0.000 A 
BRANCH  29  36
ATOM     35  C   UNL     1       7.149   1.870  11.172  0.00  0.00    +0.000 C 
ATOM     36  O   UNL     1       7.747   2.784  12.080  0.00  0.00    +0.000 OA
ENDBRANCH  29  36
BRANCH  34  37
ATOM     37  O   UNL     1       4.835   2.795  11.982  0.00  0.00    +0.000 OA
ATOM     38  H   UNL     1       5.170   1.889  12.053  0.00  0.00    +0.000 HD
ENDBRANCH  34  37
ENDBRANCH  27  32
ENDBRANCH   1  28
TORSDOF 9
ENDMDL
MODEL 9
REMARK VINA RESULT:      -4.7      1.021      1.500
REMARK  Name = 
REMARK  13 active torsions:
REMARK  status: ('A' for Active; 'I' for Inactive)
REMARK    1  A    between atoms: C_1  and  O_2
REMARK    2  A    between atoms: O_2  and  C_3
REMARK    3  A    between atoms: C_6  and  C_7
REMARK    4  A    between atoms: N_8  and  C_9
REMARK    5  A    between atoms: C_12  and  C_13
REMARK    6  A    between atoms: C_16  and  N_17
REMARK    7  A    between atoms: C_18  and  C_19
REMARK    8  A    between atoms: C_22  and  O_23
REMARK    9  A    between atoms: O_23  and  C_24
REMARK   10  A    between atoms: C_25  and  O_26
REMARK   11  A    between atoms: C_28  and  C_29
REMARK   12  A    between atoms: C_32  and  C_33
REMARK   13  A    between atoms: C_35  and  O_36
REMARK                            x       y       z     vdW  Elec       q    Type
REMARK                         _______ _______ _______ _____ _____    ______ ____
ROOT
ATOM      1  C   UNL     1       3.709   6.366  17.333  0.00  0.00    +0.000 A 
ATOM      2  C   UNL     1       3.539   7.725  17.027  0.00  0.00    +0.000 A 
ATOM      3  C   UNL     1       2.825   8.575  17.873  0.00  0.00    +0.000 A 
ATOM      4  C   UNL     1       2.205   8.092  19.028  0.00  0.00    +0.000 A 
ATOM      5  C   UNL     1       2.330   6.715  19.295  0.00  0.00    +0.000 A 
ATOM      6  C   UNL     1       3.086   5.855  18.478  0.00  0.00    +0.000 A 
ATOM      7  C   UNL     1       3.184   4.403  18.849  0.00  0.00    +0.000 C 
ENDROOT
BRANCH   4   8
ATOM      8  C   UNL     1       1.440   8.982  19.924  0.00  0.00    +0.000 A 
ATOM      9  C   UNL     1       0.713  10.079  19.452  0.00  0.00    +0.000 A 
ATOM     10  C   UNL     1      -0.048  10.867  20.324  0.00  0.00    +0.000 A 
ATOM     11  C   UNL     1      -0.136  10.583  21.693  0.00  0.00    +0.000 A 
ATOM     12  C   UNL     1       0.597   9.496  22.192  0.00  0.00    +0.000 A 
ATOM     13  C   UNL     1       0.613   9.032  23.622  0.00  0.00    +0.000 C 
ATOM     14  C   UNL     1       1.393   8.738  21.306  0.00  0.00    +0.000 A 
BRANCH  11  15
ATOM     15  N   UNL     1      -1.052  11.366  22.416  0.00  0.00    +0.000 NA
ATOM     16  C   UNL     1      -1.335  12.561  22.021  0.00  0.00    +0.000 C 
BRANCH  16  17
ATOM     17  C   UNL     1      -2.299  13.405  22.751  0.00  0.00    +0.000 A 
ATOM     18  C   UNL     1      -3.644  13.478  22.368  0.00  0.00    +0.000 A 
ATOM     19  C   UNL     1      -4.528  14.321  23.057  0.00  0.00    +0.000 A 
ATOM     20  C   UNL     1      -4.069  15.084  24.129  0.00  0.00    +0.000 A 
ATOM     21  C   UNL     1      -2.724  14.978  24.504  0.00  0.00    +0.000 A 
ATOM     22  C   UNL     1      -1.834  14.153  23.829  0.00  0.00    +0.000 A 
BRANCH  20  23
ATOM     23  O   UNL     1      -4.805  15.962  24.880  0.00  0.00    +0.000 OA
ATOM     24  C   UNL     1      -5.583  16.920  24.171  0.00  0.00    +0.000 C 
ENDBRANCH  20  23
BRANCH  21  25
ATOM     25  O   UNL     1      -2.247  15.705  25.559  0.00  0.00    +0.000 OA
ATOM     26  H   UNL     1      -2.481  15.176  26.347  0.00  0.00    +0.000 HD
ENDBRANCH  21  25
ENDBRANCH  16  17
ENDBRANCH  11  15
ENDBRANCH   4   8
BRANCH   1  28
ATOM     27  C   UNL     1       4.777   5.938  15.323  0.00  0.00    +0.000 C 
ATOM     28  N   UNL     1       4.439   5.502  16.494  0.00  0.00    +0.000 NA
BRANCH  27  32
ATOM     29  C   UNL     1       6.881   3.452  12.571  0.00  0.00    +0.000 A 
ATOM     30  C   UNL     1       7.576   4.243  13.501  0.00  0.00    +0.000 A 
ATOM     31  C   UNL     1       6.890   5.063  14.399  0.00  0.00    +0.000 A 
ATOM     32  C   UNL     1       5.499   5.090  14.366  0.00  0.00    +0.000 A 
ATOM     33  C   UNL     1       4.794   4.326  13.435  0.00  0.00    +0.000 A 
ATOM     34  C   UNL     1       5.489   3.514  12.543  0.00  0.00    +0.000 A 
BRANCH  29  36
ATOM     35  C   UNL     1       7.141   1.526  11.175  0.00  0.00    +0.000 C 
ATOM     36  O   UNL     1       7.687   2.692  11.774  0.00  0.00    +0.000 OA
ENDBRANCH  29  36
BRANCH  34  37
ATOM     37  O   UNL     1       4.778   2.780  11.641  0.00  0.00    +0.000 OA
ATOM     38  H   UNL     1       4.774   1.856  11.930  0.00  0.00    +0.000 HD
ENDBRANCH  34  37
ENDBRANCH  27  32
ENDBRANCH   1  28
TORSDOF 9
ENDMDL
