MODEL 1
REMARK VINA RESULT:      -8.4      0.000      0.000
REMARK  Name = 
REMARK  2 active torsions:
REMARK  status: ('A' for Active; 'I' for Inactive)
REMARK    1  A    between atoms: C_1  and  C_16
REMARK    2  A    between atoms: C_2  and  C_3
REMARK                            x       y       z     vdW  Elec       q    Type
REMARK                         _______ _______ _______ _____ _____    ______ ____
ROOT
ATOM      1  C   UNL     1       4.303   5.002  17.513  0.00  0.00    +0.000 A 
ATOM      2  N   UNL     1       4.264   3.876  18.170  0.00  0.00    +0.000 NA
ATOM      3  C   UNL     1       3.514   3.792  19.369  0.00  0.00    +0.000 A 
ATOM      4  C   UNL     1       3.512   2.593  20.076  0.00  0.00    +0.000 A 
ATOM      5  C   UNL     1       2.793   2.481  21.268  0.00  0.00    +0.000 A 
ATOM      6  C   UNL     1       2.062   3.567  21.764  0.00  0.00    +0.000 A 
ATOM      7  C   UNL     1       2.048   4.778  21.074  0.00  0.00    +0.000 A 
ATOM      8  C   UNL     1       2.778   4.872  19.889  0.00  0.00    +0.000 A 
ATOM      9  N   UNL     1       2.846   6.043  19.142  0.00  0.00    +0.000 N 
ATOM     10  N   UNL     1       2.263   7.223  19.401  0.00  0.00    +0.000 NA
ATOM     11  N   UNL     1       2.649   8.021  18.408  0.00  0.00    +0.000 NA
ATOM     12  N   UNL     1       3.472   7.355  17.520  0.00  0.00    +0.000 NA
ATOM     13  C   UNL     1       3.576   6.136  17.998  0.00  0.00    +0.000 A 
ENDROOT
BRANCH   1  15
ATOM     14  C   UNL     1       5.307   4.115  15.447  0.00  0.00    +0.000 C 
ATOM     15  C   UNL     1       5.087   5.161  16.260  0.00  0.00    +0.000 C 
BRANCH  14  16
ATOM     16  C   UNL     1       6.043   4.207  14.179  0.00  0.00    +0.000 A 
ATOM     17  C   UNL     1       5.694   3.456  13.048  0.00  0.00    +0.000 A 
ATOM     18  C   UNL     1       6.444   3.546  11.875  0.00  0.00    +0.000 A 
ATOM     19  C   UNL     1       7.538   4.406  11.809  0.00  0.00    +0.000 A 
ATOM     20  C   UNL     1       7.870   5.191  12.912  0.00  0.00    +0.000 A 
ATOM     21  C   UNL     1       7.123   5.095  14.088  0.00  0.00    +0.000 A 
ENDBRANCH  14  16
ENDBRANCH   1  15
TORSDOF 2
ENDMDL
MODEL 2
REMARK VINA RESULT:      -8.4      0.085      1.055
REMARK  Name = 
REMARK  2 active torsions:
REMARK  status: ('A' for Active; 'I' for Inactive)
REMARK    1  A    between atoms: C_1  and  C_16
REMARK    2  A    between atoms: C_2  and  C_3
REMARK                            x       y       z     vdW  Elec       q    Type
REMARK                         _______ _______ _______ _____ _____    ______ ____
ROOT
ATOM      1  C   UNL     1       4.414   4.981  17.562  0.00  0.00    +0.000 A 
ATOM      2  N   UNL     1       4.354   3.861  18.230  0.00  0.00    +0.000 NA
ATOM      3  C   UNL     1       3.553   3.785  19.395  0.00  0.00    +0.000 A 
ATOM      4  C   UNL     1       3.528   2.594  20.115  0.00  0.00    +0.000 A 
ATOM      5  C   UNL     1       2.759   2.490  21.276  0.00  0.00    +0.000 A 
ATOM      6  C   UNL     1       2.001   3.576  21.729  0.00  0.00    +0.000 A 
ATOM      7  C   UNL     1       2.010   4.780  21.026  0.00  0.00    +0.000 A 
ATOM      8  C   UNL     1       2.789   4.866  19.873  0.00  0.00    +0.000 A 
ATOM      9  N   UNL     1       2.883   6.029  19.116  0.00  0.00    +0.000 N 
ATOM     10  N   UNL     1       2.282   7.208  19.338  0.00  0.00    +0.000 NA
ATOM     11  N   UNL     1       2.705   7.998  18.354  0.00  0.00    +0.000 NA
ATOM     12  N   UNL     1       3.570   7.329  17.509  0.00  0.00    +0.000 NA
ATOM     13  C   UNL     1       3.660   6.116  18.004  0.00  0.00    +0.000 A 
ENDROOT
BRANCH   1  15
ATOM     14  C   UNL     1       5.299   4.162  15.416  0.00  0.00    +0.000 C 
ATOM     15  C   UNL     1       5.250   5.133  16.342  0.00  0.00    +0.000 C 
BRANCH  14  16
ATOM     16  C   UNL     1       6.076   4.259  14.173  0.00  0.00    +0.000 A 
ATOM     17  C   UNL     1       7.152   5.145  14.024  0.00  0.00    +0.000 A 
ATOM     18  C   UNL     1       7.840   5.231  12.812  0.00  0.00    +0.000 A 
ATOM     19  C   UNL     1       7.477   4.415  11.743  0.00  0.00    +0.000 A 
ATOM     20  C   UNL     1       6.437   3.499  11.892  0.00  0.00    +0.000 A 
ATOM     21  C   UNL     1       5.744   3.418  13.102  0.00  0.00    +0.000 A 
ENDBRANCH  14  16
ENDBRANCH   1  15
TORSDOF 2
ENDMDL
MODEL 3
REMARK VINA RESULT:      -8.2      4.877      7.120
REMARK  Name = 
REMARK  2 active torsions:
REMARK  status: ('A' for Active; 'I' for Inactive)
REMARK    1  A    between atoms: C_1  and  C_16
REMARK    2  A    between atoms: C_2  and  C_3
REMARK                            x       y       z     vdW  Elec       q    Type
REMARK                         _______ _______ _______ _____ _____    ______ ____
ROOT
ATOM      1  C   UNL     1       7.547   6.664  17.645  0.00  0.00    +0.000 A 
ATOM      2  N   UNL     1       7.586   6.555  16.345  0.00  0.00    +0.000 NA
ATOM      3  C   UNL     1       6.943   5.461  15.716  0.00  0.00    +0.000 A 
ATOM      4  C   UNL     1       7.024   5.341  14.331  0.00  0.00    +0.000 A 
ATOM      5  C   UNL     1       6.412   4.267  13.682  0.00  0.00    +0.000 A 
ATOM      6  C   UNL     1       5.705   3.302  14.409  0.00  0.00    +0.000 A 
ATOM      7  C   UNL     1       5.609   3.400  15.797  0.00  0.00    +0.000 A 
ATOM      8  C   UNL     1       6.233   4.476  16.428  0.00  0.00    +0.000 A 
ATOM      9  N   UNL     1       6.215   4.649  17.808  0.00  0.00    +0.000 N 
ATOM     10  N   UNL     1       5.634   3.867  18.730  0.00  0.00    +0.000 NA
ATOM     11  N   UNL     1       5.918   4.443  19.896  0.00  0.00    +0.000 NA
ATOM     12  N   UNL     1       6.675   5.586  19.720  0.00  0.00    +0.000 NA
ATOM     13  C   UNL     1       6.843   5.688  18.421  0.00  0.00    +0.000 A 
ENDROOT
BRANCH   1  15
ATOM     14  C   UNL     1       8.216   9.022  17.868  0.00  0.00    +0.000 C 
ATOM     15  C   UNL     1       8.218   7.776  18.368  0.00  0.00    +0.000 C 
BRANCH  14  16
ATOM     16  C   UNL     1       8.829  10.174  18.543  0.00  0.00    +0.000 A 
ATOM     17  C   UNL     1       9.340  10.099  19.846  0.00  0.00    +0.000 A 
ATOM     18  C   UNL     1       9.881  11.228  20.464  0.00  0.00    +0.000 A 
ATOM     19  C   UNL     1       9.939  12.439  19.779  0.00  0.00    +0.000 A 
ATOM     20  C   UNL     1       9.474  12.516  18.468  0.00  0.00    +0.000 A 
ATOM     21  C   UNL     1       8.926  11.388  17.852  0.00  0.00    +0.000 A 
ENDBRANCH  14  16
ENDBRANCH   1  15
TORSDOF 2
ENDMDL
MODEL 4
REMARK VINA RESULT:      -8.2      4.908      7.121
REMARK  Name = 
REMARK  2 active torsions:
REMARK  status: ('A' for Active; 'I' for Inactive)
REMARK    1  A    between atoms: C_1  and  C_16
REMARK    2  A    between atoms: C_2  and  C_3
REMARK                            x       y       z     vdW  Elec       q    Type
REMARK                         _______ _______ _______ _____ _____    ______ ____
ROOT
ATOM      1  C   UNL     1       7.543   6.713  17.655  0.00  0.00    +0.000 A 
ATOM      2  N   UNL     1       7.581   6.594  16.356  0.00  0.00    +0.000 NA
ATOM      3  C   UNL     1       6.959   5.481  15.738  0.00  0.00    +0.000 A 
ATOM      4  C   UNL     1       7.038   5.351  14.355  0.00  0.00    +0.000 A 
ATOM      5  C   UNL     1       6.447   4.259  13.716  0.00  0.00    +0.000 A 
ATOM      6  C   UNL     1       5.764   3.286  14.454  0.00  0.00    +0.000 A 
ATOM      7  C   UNL     1       5.670   3.393  15.841  0.00  0.00    +0.000 A 
ATOM      8  C   UNL     1       6.273   4.488  16.461  0.00  0.00    +0.000 A 
ATOM      9  N   UNL     1       6.256   4.672  17.840  0.00  0.00    +0.000 N 
ATOM     10  N   UNL     1       5.694   3.885  18.770  0.00  0.00    +0.000 NA
ATOM     11  N   UNL     1       5.970   4.478  19.930  0.00  0.00    +0.000 NA
ATOM     12  N   UNL     1       6.702   5.635  19.742  0.00  0.00    +0.000 NA
ATOM     13  C   UNL     1       6.863   5.730  18.442  0.00  0.00    +0.000 A 
ENDROOT
BRANCH   1  15
ATOM     14  C   UNL     1       8.251   9.066  17.808  0.00  0.00    +0.000 C 
ATOM     15  C   UNL     1       8.193   7.846  18.366  0.00  0.00    +0.000 C 
BRANCH  14  16
ATOM     16  C   UNL     1       8.847  10.236  18.466  0.00  0.00    +0.000 A 
ATOM     17  C   UNL     1       8.883  11.502  17.865  0.00  0.00    +0.000 A 
ATOM     18  C   UNL     1       9.493  12.580  18.511  0.00  0.00    +0.000 A 
ATOM     19  C   UNL     1      10.053  12.410  19.775  0.00  0.00    +0.000 A 
ATOM     20  C   UNL     1       9.987  11.167  20.401  0.00  0.00    +0.000 A 
ATOM     21  C   UNL     1       9.382  10.088  19.753  0.00  0.00    +0.000 A 
ENDBRANCH  14  16
ENDBRANCH   1  15
TORSDOF 2
ENDMDL
MODEL 5
REMARK VINA RESULT:      -8.0      2.018      7.265
REMARK  Name = 
REMARK  2 active torsions:
REMARK  status: ('A' for Active; 'I' for Inactive)
REMARK    1  A    between atoms: C_1  and  C_16
REMARK    2  A    between atoms: C_2  and  C_3
REMARK                            x       y       z     vdW  Elec       q    Type
REMARK                         _______ _______ _______ _____ _____    ______ ____
ROOT
ATOM      1  C   UNL     1       4.876   4.597  16.367  0.00  0.00    +0.000 A 
ATOM      2  N   UNL     1       4.783   3.934  15.247  0.00  0.00    +0.000 NA
ATOM      3  C   UNL     1       5.753   4.135  14.234  0.00  0.00    +0.000 A 
ATOM      4  C   UNL     1       5.620   3.446  13.032  0.00  0.00    +0.000 A 
ATOM      5  C   UNL     1       6.551   3.632  12.008  0.00  0.00    +0.000 A 
ATOM      6  C   UNL     1       7.631   4.507  12.177  0.00  0.00    +0.000 A 
ATOM      7  C   UNL     1       7.786   5.209  13.371  0.00  0.00    +0.000 A 
ATOM      8  C   UNL     1       6.842   5.015  14.379  0.00  0.00    +0.000 A 
ATOM      9  N   UNL     1       6.895   5.686  15.596  0.00  0.00    +0.000 N 
ATOM     10  N   UNL     1       7.803   6.586  16.002  0.00  0.00    +0.000 NA
ATOM     11  N   UNL     1       7.406   6.946  17.221  0.00  0.00    +0.000 NA
ATOM     12  N   UNL     1       6.253   6.280  17.590  0.00  0.00    +0.000 NA
ATOM     13  C   UNL     1       5.961   5.509  16.568  0.00  0.00    +0.000 A 
ENDROOT
BRANCH   1  15
ATOM     14  C   UNL     1       3.944   3.409  18.311  0.00  0.00    +0.000 C 
ATOM     15  C   UNL     1       3.881   4.446  17.461  0.00  0.00    +0.000 C 
BRANCH  14  16
ATOM     16  C   UNL     1       3.015   3.215  19.433  0.00  0.00    +0.000 A 
ATOM     17  C   UNL     1       3.420   2.671  20.660  0.00  0.00    +0.000 A 
ATOM     18  C   UNL     1       2.496   2.469  21.688  0.00  0.00    +0.000 A 
ATOM     19  C   UNL     1       1.163   2.832  21.510  0.00  0.00    +0.000 A 
ATOM     20  C   UNL     1       0.757   3.413  20.310  0.00  0.00    +0.000 A 
ATOM     21  C   UNL     1       1.680   3.608  19.280  0.00  0.00    +0.000 A 
ENDBRANCH  14  16
ENDBRANCH   1  15
TORSDOF 2
ENDMDL
MODEL 6
REMARK VINA RESULT:      -8.0      2.023      7.235
REMARK  Name = 
REMARK  2 active torsions:
REMARK  status: ('A' for Active; 'I' for Inactive)
REMARK    1  A    between atoms: C_1  and  C_16
REMARK    2  A    between atoms: C_2  and  C_3
REMARK                            x       y       z     vdW  Elec       q    Type
REMARK                         _______ _______ _______ _____ _____    ______ ____
ROOT
ATOM      1  C   UNL     1       4.843   4.567  16.322  0.00  0.00    +0.000 A 
ATOM      2  N   UNL     1       4.765   3.918  15.192  0.00  0.00    +0.000 NA
ATOM      3  C   UNL     1       5.751   4.127  14.197  0.00  0.00    +0.000 A 
ATOM      4  C   UNL     1       5.634   3.454  12.984  0.00  0.00    +0.000 A 
ATOM      5  C   UNL     1       6.582   3.648  11.977  0.00  0.00    +0.000 A 
ATOM      6  C   UNL     1       7.662   4.516  12.174  0.00  0.00    +0.000 A 
ATOM      7  C   UNL     1       7.802   5.203  13.379  0.00  0.00    +0.000 A 
ATOM      8  C   UNL     1       6.841   5.000  14.370  0.00  0.00    +0.000 A 
ATOM      9  N   UNL     1       6.879   5.656  15.596  0.00  0.00    +0.000 N 
ATOM     10  N   UNL     1       7.784   6.546  16.028  0.00  0.00    +0.000 NA
ATOM     11  N   UNL     1       7.369   6.893  17.245  0.00  0.00    +0.000 NA
ATOM     12  N   UNL     1       6.208   6.228  17.587  0.00  0.00    +0.000 NA
ATOM     13  C   UNL     1       5.928   5.471  16.551  0.00  0.00    +0.000 A 
ENDROOT
BRANCH   1  15
ATOM     14  C   UNL     1       3.893   3.374  18.254  0.00  0.00    +0.000 C 
ATOM     15  C   UNL     1       3.830   4.406  17.398  0.00  0.00    +0.000 C 
BRANCH  14  16
ATOM     16  C   UNL     1       2.947   3.172  19.361  0.00  0.00    +0.000 A 
ATOM     17  C   UNL     1       1.578   3.449  19.242  0.00  0.00    +0.000 A 
ATOM     18  C   UNL     1       0.720   3.278  20.330  0.00  0.00    +0.000 A 
ATOM     19  C   UNL     1       1.217   2.807  21.543  0.00  0.00    +0.000 A 
ATOM     20  C   UNL     1       2.568   2.488  21.662  0.00  0.00    +0.000 A 
ATOM     21  C   UNL     1       3.427   2.665  20.575  0.00  0.00    +0.000 A 
ENDBRANCH  14  16
ENDBRANCH   1  15
TORSDOF 2
ENDMDL
MODEL 7
REMARK VINA RESULT:      -8.0      3.540      8.006
REMARK  Name = 
REMARK  2 active torsions:
REMARK  status: ('A' for Active; 'I' for Inactive)
REMARK    1  A    between atoms: C_1  and  C_16
REMARK    2  A    between atoms: C_2  and  C_3
REMARK                            x       y       z     vdW  Elec       q    Type
REMARK                         _______ _______ _______ _____ _____    ______ ____
ROOT
ATOM      1  C   UNL     1       2.613   6.372  19.468  0.00  0.00    +0.000 A 
ATOM      2  N   UNL     1       3.255   6.889  18.456  0.00  0.00    +0.000 NA
ATOM      3  C   UNL     1       3.976   6.041  17.580  0.00  0.00    +0.000 A 
ATOM      4  C   UNL     1       4.684   6.612  16.526  0.00  0.00    +0.000 A 
ATOM      5  C   UNL     1       5.416   5.805  15.652  0.00  0.00    +0.000 A 
ATOM      6  C   UNL     1       5.445   4.416  15.819  0.00  0.00    +0.000 A 
ATOM      7  C   UNL     1       4.745   3.820  16.867  0.00  0.00    +0.000 A 
ATOM      8  C   UNL     1       4.025   4.643  17.733  0.00  0.00    +0.000 A 
ATOM      9  N   UNL     1       3.314   4.147  18.821  0.00  0.00    +0.000 N 
ATOM     10  N   UNL     1       3.195   2.871  19.216  0.00  0.00    +0.000 NA
ATOM     11  N   UNL     1       2.438   2.921  20.311  0.00  0.00    +0.000 NA
ATOM     12  N   UNL     1       2.076   4.220  20.612  0.00  0.00    +0.000 NA
ATOM     13  C   UNL     1       2.631   4.956  19.676  0.00  0.00    +0.000 A 
ENDROOT
BRANCH   1  15
ATOM     14  C   UNL     1       1.382   8.414  20.080  0.00  0.00    +0.000 C 
ATOM     15  C   UNL     1       1.854   7.208  20.435  0.00  0.00    +0.000 C 
BRANCH  14  16
ATOM     16  C   UNL     1       0.596   9.277  20.972  0.00  0.00    +0.000 A 
ATOM     17  C   UNL     1      -0.076  10.420  20.515  0.00  0.00    +0.000 A 
ATOM     18  C   UNL     1      -0.781  11.234  21.404  0.00  0.00    +0.000 A 
ATOM     19  C   UNL     1      -0.842  10.903  22.756  0.00  0.00    +0.000 A 
ATOM     20  C   UNL     1      -0.214   9.747  23.215  0.00  0.00    +0.000 A 
ATOM     21  C   UNL     1       0.497   8.936  22.327  0.00  0.00    +0.000 A 
ENDBRANCH  14  16
ENDBRANCH   1  15
TORSDOF 2
ENDMDL
MODEL 8
REMARK VINA RESULT:      -8.0      3.733      8.082
REMARK  Name = 
REMARK  2 active torsions:
REMARK  status: ('A' for Active; 'I' for Inactive)
REMARK    1  A    between atoms: C_1  and  C_16
REMARK    2  A    between atoms: C_2  and  C_3
REMARK                            x       y       z     vdW  Elec       q    Type
REMARK                         _______ _______ _______ _____ _____    ______ ____
ROOT
ATOM      1  C   UNL     1       2.400   6.543  19.506  0.00  0.00    +0.000 A 
ATOM      2  N   UNL     1       3.147   7.050  18.563  0.00  0.00    +0.000 NA
ATOM      3  C   UNL     1       3.825   6.186  17.669  0.00  0.00    +0.000 A 
ATOM      4  C   UNL     1       4.645   6.742  16.690  0.00  0.00    +0.000 A 
ATOM      5  C   UNL     1       5.337   5.917  15.801  0.00  0.00    +0.000 A 
ATOM      6  C   UNL     1       5.213   4.525  15.876  0.00  0.00    +0.000 A 
ATOM      7  C   UNL     1       4.398   3.944  16.847  0.00  0.00    +0.000 A 
ATOM      8  C   UNL     1       3.720   4.784  17.730  0.00  0.00    +0.000 A 
ATOM      9  N   UNL     1       2.903   4.300  18.746  0.00  0.00    +0.000 N 
ATOM     10  N   UNL     1       2.632   3.022  19.049  0.00  0.00    +0.000 NA
ATOM     11  N   UNL     1       1.825   3.085  20.106  0.00  0.00    +0.000 NA
ATOM     12  N   UNL     1       1.583   4.394  20.476  0.00  0.00    +0.000 NA
ATOM     13  C   UNL     1       2.261   5.123  19.619  0.00  0.00    +0.000 A 
ENDROOT
BRANCH   1  15
ATOM     14  C   UNL     1       1.330   8.654  20.183  0.00  0.00    +0.000 C 
ATOM     15  C   UNL     1       1.679   7.394  20.489  0.00  0.00    +0.000 C 
BRANCH  14  16
ATOM     16  C   UNL     1       0.588   9.538  21.092  0.00  0.00    +0.000 A 
ATOM     17  C   UNL     1       0.163   9.128  22.363  0.00  0.00    +0.000 A 
ATOM     18  C   UNL     1      -0.573   9.989  23.179  0.00  0.00    +0.000 A 
ATOM     19  C   UNL     1      -0.872  11.278  22.745  0.00  0.00    +0.000 A 
ATOM     20  C   UNL     1      -0.418  11.713  21.501  0.00  0.00    +0.000 A 
ATOM     21  C   UNL     1       0.312  10.849  20.681  0.00  0.00    +0.000 A 
ENDBRANCH  14  16
ENDBRANCH   1  15
TORSDOF 2
ENDMDL
MODEL 9
REMARK VINA RESULT:      -7.9      3.282      7.693
REMARK  Name = 
REMARK  2 active torsions:
REMARK  status: ('A' for Active; 'I' for Inactive)
REMARK    1  A    between atoms: C_1  and  C_16
REMARK    2  A    between atoms: C_2  and  C_3
REMARK                            x       y       z     vdW  Elec       q    Type
REMARK                         _______ _______ _______ _____ _____    ______ ____
ROOT
ATOM      1  C   UNL     1       2.971   6.128  18.802  0.00  0.00    +0.000 A 
ATOM      2  N   UNL     1       4.115   6.567  18.352  0.00  0.00    +0.000 NA
ATOM      3  C   UNL     1       4.838   5.795  17.410  0.00  0.00    +0.000 A 
ATOM      4  C   UNL     1       6.072   6.262  16.966  0.00  0.00    +0.000 A 
ATOM      5  C   UNL     1       6.816   5.519  16.048  0.00  0.00    +0.000 A 
ATOM      6  C   UNL     1       6.332   4.301  15.558  0.00  0.00    +0.000 A 
ATOM      7  C   UNL     1       5.099   3.811  15.987  0.00  0.00    +0.000 A 
ATOM      8  C   UNL     1       4.374   4.565  16.909  0.00  0.00    +0.000 A 
ATOM      9  N   UNL     1       3.146   4.152  17.416  0.00  0.00    +0.000 N 
ATOM     10  N   UNL     1       2.474   3.026  17.132  0.00  0.00    +0.000 NA
ATOM     11  N   UNL     1       1.375   3.086  17.882  0.00  0.00    +0.000 NA
ATOM     12  N   UNL     1       1.347   4.241  18.640  0.00  0.00    +0.000 NA
ATOM     13  C   UNL     1       2.452   4.880  18.331  0.00  0.00    +0.000 A 
ENDROOT
BRANCH   1  15
ATOM     14  C   UNL     1       1.839   8.163  19.598  0.00  0.00    +0.000 C 
ATOM     15  C   UNL     1       2.173   6.880  19.806  0.00  0.00    +0.000 C 
BRANCH  14  16
ATOM     16  C   UNL     1       1.025   8.956  20.529  0.00  0.00    +0.000 A 
ATOM     17  C   UNL     1       0.172   9.982  20.100  0.00  0.00    +0.000 A 
ATOM     18  C   UNL     1      -0.556  10.736  21.022  0.00  0.00    +0.000 A 
ATOM     19  C   UNL     1      -0.457  10.458  22.384  0.00  0.00    +0.000 A 
ATOM     20  C   UNL     1       0.355   9.413  22.821  0.00  0.00    +0.000 A 
ATOM     21  C   UNL     1       1.088   8.664  21.898  0.00  0.00    +0.000 A 
ENDBRANCH  14  16
ENDBRANCH   1  15
TORSDOF 2
ENDMDL
