MODEL 1
REMARK VINA RESULT:      -7.9      0.000      0.000
REMARK  Name = 
REMARK  7 active torsions:
REMARK  status: ('A' for Active; 'I' for Inactive)
REMARK    1  A    between atoms: S_2  and  N_4
REMARK    2  A    between atoms: S_2  and  C_20
REMARK    3  A    between atoms: N_4  and  C_5
REMARK    4  A    between atoms: C_5  and  C_6
REMARK    5  A    between atoms: C_6  and  C_7
REMARK    6  A    between atoms: C_7  and  N_8
REMARK    7  A    between atoms: N_8  and  C_9
REMARK                            x       y       z     vdW  Elec       q    Type
REMARK                         _______ _______ _______ _____ _____    ______ ____
ROOT
ATOM      1  C   UNL     1       2.077   4.232  21.334  0.00  0.00    +0.000 C 
ENDROOT
BRANCH   1   2
ATOM      2  C   UNL     1       1.830   2.817  20.805  0.00  0.00    +0.000 C 
BRANCH   2   3
ATOM      3  N   UNL     1       3.030   2.290  20.134  0.00  0.00    +0.000 NA
ATOM      4  H   UNL     1       3.919   2.623  20.507  0.00  0.00    +0.000 HD
BRANCH   3   6
ATOM      5  O   UNL     1       3.811   1.225  17.985  0.00  0.00    +0.000 OA
ATOM      6  S   UNL     1       3.072   2.378  18.444  0.00  0.00    +0.000 S 
ATOM      7  O   UNL     1       1.737   2.679  17.979  0.00  0.00    +0.000 OA
BRANCH   6   8
ATOM      8  C   UNL     1       4.102   3.802  18.158  0.00  0.00    +0.000 A 
ATOM      9  C   UNL     1       3.965   4.512  16.957  0.00  0.00    +0.000 A 
ATOM     10  C   UNL     1       4.747   5.645  16.738  0.00  0.00    +0.000 A 
ATOM     11  C   UNL     1       5.644   6.062  17.719  0.00  0.00    +0.000 A 
ATOM     12  F   UNL     1       6.382   7.160  17.512  0.00  0.00    +0.000 F 
ATOM     13  C   UNL     1       5.778   5.362  18.915  0.00  0.00    +0.000 A 
ATOM     14  C   UNL     1       5.005   4.222  19.140  0.00  0.00    +0.000 A 
ENDBRANCH   6   8
ENDBRANCH   3   6
ENDBRANCH   2   3
ENDBRANCH   1   2
BRANCH   1  15
ATOM     15  C   UNL     1       1.557   5.344  20.423  0.00  0.00    +0.000 C 
BRANCH  15  16
ATOM     16  N   UNL     1       2.494   6.469  20.393  0.00  0.00    +0.000 N 
ATOM     17  H   UNL     1       3.393   6.174  20.018  0.00  0.00    +0.000 HD
BRANCH  16  18
ATOM     18  C   UNL     1       2.075   7.677  19.783  0.00  0.00    +0.000 A 
ATOM     19  C   UNL     1       2.272   7.897  18.416  0.00  0.00    +0.000 A 
ATOM     20  C   UNL     1       1.799   9.059  17.840  0.00  0.00    +0.000 A 
ATOM     21  N   UNL     1       1.118  10.002  18.509  0.00  0.00    +0.000 NA
ATOM     22  C   UNL     1       0.867   9.794  19.807  0.00  0.00    +0.000 A 
ATOM     23  C   UNL     1       0.136  10.767  20.467  0.00  0.00    +0.000 A 
ATOM     24  C   UNL     1      -0.181  10.648  21.814  0.00  0.00    +0.000 A 
ATOM     25 CL   UNL     1      -1.090  11.883  22.595  0.00  0.00    +0.000 Cl
ATOM     26  C   UNL     1       0.229   9.534  22.530  0.00  0.00    +0.000 A 
ATOM     27  C   UNL     1       0.963   8.536  21.884  0.00  0.00    +0.000 A 
ATOM     28  C   UNL     1       1.307   8.641  20.509  0.00  0.00    +0.000 A 
ENDBRANCH  16  18
ENDBRANCH  15  16
ENDBRANCH   1  15
TORSDOF 7
ENDMDL
MODEL 2
REMARK VINA RESULT:      -7.6      2.174      2.588
REMARK  Name = 
REMARK  7 active torsions:
REMARK  status: ('A' for Active; 'I' for Inactive)
REMARK    1  A    between atoms: S_2  and  N_4
REMARK    2  A    between atoms: S_2  and  C_20
REMARK    3  A    between atoms: N_4  and  C_5
REMARK    4  A    between atoms: C_5  and  C_6
REMARK    5  A    between atoms: C_6  and  C_7
REMARK    6  A    between atoms: C_7  and  N_8
REMARK    7  A    between atoms: N_8  and  C_9
REMARK                            x       y       z     vdW  Elec       q    Type
REMARK                         _______ _______ _______ _____ _____    ______ ____
ROOT
ATOM      1  C   UNL     1       2.172   4.840  20.456  0.00  0.00    +0.000 C 
ENDROOT
BRANCH   1   2
ATOM      2  C   UNL     1       2.819   4.951  19.072  0.00  0.00    +0.000 C 
BRANCH   2   3
ATOM      3  N   UNL     1       4.141   5.594  19.161  0.00  0.00    +0.000 NA
ATOM      4  H   UNL     1       4.280   6.391  18.540  0.00  0.00    +0.000 HD
BRANCH   3   6
ATOM      5  O   UNL     1       6.579   5.285  19.729  0.00  0.00    +0.000 OA
ATOM      6  S   UNL     1       5.497   4.585  19.077  0.00  0.00    +0.000 S 
ATOM      7  O   UNL     1       5.089   3.254  19.467  0.00  0.00    +0.000 OA
BRANCH   6   8
ATOM      8  C   UNL     1       5.863   4.573  17.335  0.00  0.00    +0.000 A 
ATOM      9  C   UNL     1       7.117   5.023  16.898  0.00  0.00    +0.000 A 
ATOM     10  C   UNL     1       7.421   4.990  15.538  0.00  0.00    +0.000 A 
ATOM     11  C   UNL     1       6.481   4.499  14.635  0.00  0.00    +0.000 A 
ATOM     12  F   UNL     1       6.782   4.452  13.331  0.00  0.00    +0.000 F 
ATOM     13  C   UNL     1       5.238   4.045  15.066  0.00  0.00    +0.000 A 
ATOM     14  C   UNL     1       4.921   4.081  16.425  0.00  0.00    +0.000 A 
ENDBRANCH   6   8
ENDBRANCH   3   6
ENDBRANCH   2   3
ENDBRANCH   1   2
BRANCH   1  15
ATOM     15  C   UNL     1       1.368   6.071  20.874  0.00  0.00    +0.000 C 
BRANCH  15  16
ATOM     16  N   UNL     1       2.175   7.286  20.738  0.00  0.00    +0.000 N 
ATOM     17  H   UNL     1       3.055   7.079  20.272  0.00  0.00    +0.000 HD
BRANCH  16  18
ATOM     18  C   UNL     1       1.571   8.434  20.170  0.00  0.00    +0.000 A 
ATOM     19  C   UNL     1       1.683   8.702  18.801  0.00  0.00    +0.000 A 
ATOM     20  C   UNL     1       1.034   9.796  18.267  0.00  0.00    +0.000 A 
ATOM     21  N   UNL     1       0.255  10.625  18.980  0.00  0.00    +0.000 NA
ATOM     22  C   UNL     1       0.085  10.363  20.282  0.00  0.00    +0.000 A 
ATOM     23  C   UNL     1      -0.747  11.215  20.988  0.00  0.00    +0.000 A 
ATOM     24  C   UNL     1      -0.993  11.032  22.342  0.00  0.00    +0.000 A 
ATOM     25 CL   UNL     1      -2.032  12.117  23.181  0.00  0.00    +0.000 Cl
ATOM     26  C   UNL     1      -0.407   9.974  23.019  0.00  0.00    +0.000 A 
ATOM     27  C   UNL     1       0.432   9.098  22.326  0.00  0.00    +0.000 A 
ATOM     28  C   UNL     1       0.706   9.271  20.942  0.00  0.00    +0.000 A 
ENDBRANCH  16  18
ENDBRANCH  15  16
ENDBRANCH   1  15
TORSDOF 7
ENDMDL
MODEL 3
REMARK VINA RESULT:      -7.5      1.723      2.017
REMARK  Name = 
REMARK  7 active torsions:
REMARK  status: ('A' for Active; 'I' for Inactive)
REMARK    1  A    between atoms: S_2  and  N_4
REMARK    2  A    between atoms: S_2  and  C_20
REMARK    3  A    between atoms: N_4  and  C_5
REMARK    4  A    between atoms: C_5  and  C_6
REMARK    5  A    between atoms: C_6  and  C_7
REMARK    6  A    between atoms: C_7  and  N_8
REMARK    7  A    between atoms: N_8  and  C_9
REMARK                            x       y       z     vdW  Elec       q    Type
REMARK                         _______ _______ _______ _____ _____    ______ ____
ROOT
ATOM      1  C   UNL     1       3.190   4.290  19.960  0.00  0.00    +0.000 C 
ENDROOT
BRANCH   1   2
ATOM      2  C   UNL     1       3.350   3.244  18.853  0.00  0.00    +0.000 C 
BRANCH   2   3
ATOM      3  N   UNL     1       4.723   3.251  18.320  0.00  0.00    +0.000 NA
ATOM      4  H   UNL     1       5.456   3.430  19.007  0.00  0.00    +0.000 HD
BRANCH   3   6
ATOM      5  O   UNL     1       5.686   3.342  15.990  0.00  0.00    +0.000 OA
ATOM      6  S   UNL     1       5.013   4.192  16.944  0.00  0.00    +0.000 S 
ATOM      7  O   UNL     1       3.795   4.904  16.624  0.00  0.00    +0.000 OA
BRANCH   6   8
ATOM      8  C   UNL     1       6.215   5.369  17.528  0.00  0.00    +0.000 A 
ATOM      9  C   UNL     1       6.313   6.616  16.893  0.00  0.00    +0.000 A 
ATOM     10  C   UNL     1       7.232   7.553  17.363  0.00  0.00    +0.000 A 
ATOM     11  C   UNL     1       8.029   7.243  18.463  0.00  0.00    +0.000 A 
ATOM     12  F   UNL     1       8.899   8.152  18.922  0.00  0.00    +0.000 F 
ATOM     13  C   UNL     1       7.929   6.009  19.099  0.00  0.00    +0.000 A 
ATOM     14  C   UNL     1       7.018   5.061  18.631  0.00  0.00    +0.000 A 
ENDBRANCH   6   8
ENDBRANCH   3   6
ENDBRANCH   2   3
ENDBRANCH   1   2
BRANCH   1  15
ATOM     15  C   UNL     1       2.187   5.398  19.637  0.00  0.00    +0.000 C 
BRANCH  15  16
ATOM     16  N   UNL     1       2.668   6.690  20.130  0.00  0.00    +0.000 N 
ATOM     17  H   UNL     1       3.680   6.749  20.049  0.00  0.00    +0.000 HD
BRANCH  16  18
ATOM     18  C   UNL     1       2.062   7.869  19.630  0.00  0.00    +0.000 A 
ATOM     19  C   UNL     1       2.126   8.188  18.269  0.00  0.00    +0.000 A 
ATOM     20  C   UNL     1       1.475   9.312  17.803  0.00  0.00    +0.000 A 
ATOM     21  N   UNL     1       0.738  10.124  18.578  0.00  0.00    +0.000 NA
ATOM     22  C   UNL     1       0.614   9.815  19.873  0.00  0.00    +0.000 A 
ATOM     23  C   UNL     1      -0.176  10.651  20.644  0.00  0.00    +0.000 A 
ATOM     24  C   UNL     1      -0.374  10.418  21.999  0.00  0.00    +0.000 A 
ATOM     25 CL   UNL     1      -1.362  11.486  22.918  0.00  0.00    +0.000 Cl
ATOM     26  C   UNL     1       0.220   9.327  22.611  0.00  0.00    +0.000 A 
ATOM     27  C   UNL     1       1.018   8.465  21.853  0.00  0.00    +0.000 A 
ATOM     28  C   UNL     1       1.241   8.688  20.467  0.00  0.00    +0.000 A 
ENDBRANCH  16  18
ENDBRANCH  15  16
ENDBRANCH   1  15
TORSDOF 7
ENDMDL
MODEL 4
REMARK VINA RESULT:      -7.3      2.974      3.541
REMARK  Name = 
REMARK  7 active torsions:
REMARK  status: ('A' for Active; 'I' for Inactive)
REMARK    1  A    between atoms: S_2  and  N_4
REMARK    2  A    between atoms: S_2  and  C_20
REMARK    3  A    between atoms: N_4  and  C_5
REMARK    4  A    between atoms: C_5  and  C_6
REMARK    5  A    between atoms: C_6  and  C_7
REMARK    6  A    between atoms: C_7  and  N_8
REMARK    7  A    between atoms: N_8  and  C_9
REMARK                            x       y       z     vdW  Elec       q    Type
REMARK                         _______ _______ _______ _____ _____    ______ ____
ROOT
ATOM      1  C   UNL     1       4.029   4.434  19.136  0.00  0.00    +0.000 C 
ENDROOT
BRANCH   1   2
ATOM      2  C   UNL     1       5.241   5.351  19.325  0.00  0.00    +0.000 C 
BRANCH   2   3
ATOM      3  N   UNL     1       5.579   6.040  18.068  0.00  0.00    +0.000 NA
ATOM      4  H   UNL     1       4.857   6.011  17.348  0.00  0.00    +0.000 HD
BRANCH   3   6
ATOM      5  O   UNL     1       7.727   6.935  17.095  0.00  0.00    +0.000 OA
ATOM      6  S   UNL     1       7.076   5.675  17.366  0.00  0.00    +0.000 S 
ATOM      7  O   UNL     1       7.697   4.634  18.154  0.00  0.00    +0.000 OA
BRANCH   6   8
ATOM      8  C   UNL     1       6.606   4.985  15.793  0.00  0.00    +0.000 A 
ATOM      9  C   UNL     1       7.474   5.125  14.701  0.00  0.00    +0.000 A 
ATOM     10  C   UNL     1       7.127   4.562  13.473  0.00  0.00    +0.000 A 
ATOM     11  C   UNL     1       5.930   3.859  13.354  0.00  0.00    +0.000 A 
ATOM     12  F   UNL     1       5.607   3.305  12.178  0.00  0.00    +0.000 F 
ATOM     13  C   UNL     1       5.069   3.713  14.438  0.00  0.00    +0.000 A 
ATOM     14  C   UNL     1       5.404   4.279  15.669  0.00  0.00    +0.000 A 
ENDBRANCH   6   8
ENDBRANCH   3   6
ENDBRANCH   2   3
ENDBRANCH   1   2
BRANCH   1  15
ATOM     15  C   UNL     1       2.680   5.143  19.261  0.00  0.00    +0.000 C 
BRANCH  15  16
ATOM     16  N   UNL     1       2.814   6.376  20.042  0.00  0.00    +0.000 N 
ATOM     17  H   UNL     1       3.782   6.518  20.319  0.00  0.00    +0.000 HD
BRANCH  16  18
ATOM     18  C   UNL     1       2.271   7.571  19.510  0.00  0.00    +0.000 A 
ATOM     19  C   UNL     1       2.368   7.859  18.144  0.00  0.00    +0.000 A 
ATOM     20  C   UNL     1       1.777   9.002  17.647  0.00  0.00    +0.000 A 
ATOM     21  N   UNL     1       1.068   9.864  18.395  0.00  0.00    +0.000 NA
ATOM     22  C   UNL     1       0.913   9.586  19.695  0.00  0.00    +0.000 A 
ATOM     23  C   UNL     1       0.152  10.474  20.437  0.00  0.00    +0.000 A 
ATOM     24  C   UNL     1      -0.074  10.278  21.794  0.00  0.00    +0.000 A 
ATOM     25 CL   UNL     1      -1.023  11.408  22.678  0.00  0.00    +0.000 Cl
ATOM     26  C   UNL     1       0.460   9.172  22.436  0.00  0.00    +0.000 A 
ATOM     27  C   UNL     1       1.226   8.259  21.706  0.00  0.00    +0.000 A 
ATOM     28  C   UNL     1       1.478   8.444  20.319  0.00  0.00    +0.000 A 
ENDBRANCH  16  18
ENDBRANCH  15  16
ENDBRANCH   1  15
TORSDOF 7
ENDMDL
MODEL 5
REMARK VINA RESULT:      -7.2      6.634      7.686
REMARK  Name = 
REMARK  7 active torsions:
REMARK  status: ('A' for Active; 'I' for Inactive)
REMARK    1  A    between atoms: S_2  and  N_4
REMARK    2  A    between atoms: S_2  and  C_20
REMARK    3  A    between atoms: N_4  and  C_5
REMARK    4  A    between atoms: C_5  and  C_6
REMARK    5  A    between atoms: C_6  and  C_7
REMARK    6  A    between atoms: C_7  and  N_8
REMARK    7  A    between atoms: N_8  and  C_9
REMARK                            x       y       z     vdW  Elec       q    Type
REMARK                         _______ _______ _______ _____ _____    ______ ____
ROOT
ATOM      1  C   UNL     1       8.167   7.881  18.147  0.00  0.00    +0.000 C 
ENDROOT
BRANCH   1   2
ATOM      2  C   UNL     1       6.880   7.423  17.456  0.00  0.00    +0.000 C 
BRANCH   2   3
ATOM      3  N   UNL     1       6.869   5.961  17.283  0.00  0.00    +0.000 NA
ATOM      4  H   UNL     1       7.788   5.524  17.210  0.00  0.00    +0.000 HD
BRANCH   3   6
ATOM      5  O   UNL     1       5.518   6.433  15.207  0.00  0.00    +0.000 OA
ATOM      6  S   UNL     1       5.861   5.333  16.077  0.00  0.00    +0.000 S 
ATOM      7  O   UNL     1       6.460   4.112  15.584  0.00  0.00    +0.000 OA
BRANCH   6   8
ATOM      8  C   UNL     1       4.389   4.910  16.985  0.00  0.00    +0.000 A 
ATOM      9  C   UNL     1       3.641   5.934  17.584  0.00  0.00    +0.000 A 
ATOM     10  C   UNL     1       2.471   5.613  18.273  0.00  0.00    +0.000 A 
ATOM     11  C   UNL     1       2.057   4.285  18.344  0.00  0.00    +0.000 A 
ATOM     12  F   UNL     1       0.925   3.983  18.992  0.00  0.00    +0.000 F 
ATOM     13  C   UNL     1       2.795   3.268  17.745  0.00  0.00    +0.000 A 
ATOM     14  C   UNL     1       3.971   3.578  17.060  0.00  0.00    +0.000 A 
ENDBRANCH   6   8
ENDBRANCH   3   6
ENDBRANCH   2   3
ENDBRANCH   1   2
BRANCH   1  15
ATOM     15  C   UNL     1       8.398   9.392  18.106  0.00  0.00    +0.000 C 
BRANCH  15  16
ATOM     16  N   UNL     1       9.211   9.822  19.247  0.00  0.00    +0.000 N 
ATOM     17  H   UNL     1       9.847   9.080  19.531  0.00  0.00    +0.000 HD
BRANCH  16  18
ATOM     18  C   UNL     1       9.899  11.057  19.154  0.00  0.00    +0.000 A 
ATOM     19  C   UNL     1      10.606  11.400  17.997  0.00  0.00    +0.000 A 
ATOM     20  C   UNL     1      11.216  12.635  17.915  0.00  0.00    +0.000 A 
ATOM     21  N   UNL     1      11.151  13.567  18.880  0.00  0.00    +0.000 NA
ATOM     22  C   UNL     1      10.436  13.288  19.976  0.00  0.00    +0.000 A 
ATOM     23  C   UNL     1      10.359  14.277  20.942  0.00  0.00    +0.000 A 
ATOM     24  C   UNL     1       9.641  14.091  22.116  0.00  0.00    +0.000 A 
ATOM     25 CL   UNL     1       9.573  15.347  23.290  0.00  0.00    +0.000 Cl
ATOM     26  C   UNL     1       8.975  12.897  22.342  0.00  0.00    +0.000 A 
ATOM     27  C   UNL     1       9.034  11.886  21.380  0.00  0.00    +0.000 A 
ATOM     28  C   UNL     1       9.770  12.051  20.175  0.00  0.00    +0.000 A 
ENDBRANCH  16  18
ENDBRANCH  15  16
ENDBRANCH   1  15
TORSDOF 7
ENDMDL
MODEL 6
REMARK VINA RESULT:      -7.1      7.178      8.237
REMARK  Name = 
REMARK  7 active torsions:
REMARK  status: ('A' for Active; 'I' for Inactive)
REMARK    1  A    between atoms: S_2  and  N_4
REMARK    2  A    between atoms: S_2  and  C_20
REMARK    3  A    between atoms: N_4  and  C_5
REMARK    4  A    between atoms: C_5  and  C_6
REMARK    5  A    between atoms: C_6  and  C_7
REMARK    6  A    between atoms: C_7  and  N_8
REMARK    7  A    between atoms: N_8  and  C_9
REMARK                            x       y       z     vdW  Elec       q    Type
REMARK                         _______ _______ _______ _____ _____    ______ ____
ROOT
ATOM      1  C   UNL     1       8.552   8.492  18.287  0.00  0.00    +0.000 C 
ENDROOT
BRANCH   1   2
ATOM      2  C   UNL     1       7.260   7.973  17.649  0.00  0.00    +0.000 C 
BRANCH   2   3
ATOM      3  N   UNL     1       7.503   6.717  16.920  0.00  0.00    +0.000 NA
ATOM      4  H   UNL     1       7.026   6.634  16.023  0.00  0.00    +0.000 HD
BRANCH   3   6
ATOM      5  O   UNL     1       7.940   4.234  17.005  0.00  0.00    +0.000 OA
ATOM      6  S   UNL     1       7.309   5.273  17.783  0.00  0.00    +0.000 S 
ATOM      7  O   UNL     1       7.657   5.527  19.164  0.00  0.00    +0.000 OA
BRANCH   6   8
ATOM      8  C   UNL     1       5.552   5.000  17.687  0.00  0.00    +0.000 A 
ATOM      9  C   UNL     1       5.077   3.831  17.075  0.00  0.00    +0.000 A 
ATOM     10  C   UNL     1       3.703   3.596  17.022  0.00  0.00    +0.000 A 
ATOM     11  C   UNL     1       2.825   4.518  17.588  0.00  0.00    +0.000 A 
ATOM     12  F   UNL     1       1.508   4.281  17.550  0.00  0.00    +0.000 F 
ATOM     13  C   UNL     1       3.295   5.675  18.202  0.00  0.00    +0.000 A 
ATOM     14  C   UNL     1       4.667   5.923  18.254  0.00  0.00    +0.000 A 
ENDBRANCH   6   8
ENDBRANCH   3   6
ENDBRANCH   2   3
ENDBRANCH   1   2
BRANCH   1  15
ATOM     15  C   UNL     1       8.685  10.015  18.283  0.00  0.00    +0.000 C 
BRANCH  15  16
ATOM     16  N   UNL     1       9.611  10.456  19.329  0.00  0.00    +0.000 N 
ATOM     17  H   UNL     1      10.192   9.681  19.640  0.00  0.00    +0.000 HD
BRANCH  16  18
ATOM     18  C   UNL     1      10.405  11.604  19.086  0.00  0.00    +0.000 A 
ATOM     19  C   UNL     1      11.143  11.729  17.904  0.00  0.00    +0.000 A 
ATOM     20  C   UNL     1      11.858  12.886  17.670  0.00  0.00    +0.000 A 
ATOM     21  N   UNL     1      11.871  13.939  18.502  0.00  0.00    +0.000 NA
ATOM     22  C   UNL     1      11.131  13.869  19.615  0.00  0.00    +0.000 A 
ATOM     23  C   UNL     1      11.136  14.981  20.441  0.00  0.00    +0.000 A 
ATOM     24  C   UNL     1      10.401  15.014  21.618  0.00  0.00    +0.000 A 
ATOM     25 CL   UNL     1      10.439  16.415  22.616  0.00  0.00    +0.000 Cl
ATOM     26  C   UNL     1       9.633  13.922  21.990  0.00  0.00    +0.000 A 
ATOM     27  C   UNL     1       9.607  12.791  21.170  0.00  0.00    +0.000 A 
ATOM     28  C   UNL     1      10.359  12.731  19.965  0.00  0.00    +0.000 A 
ENDBRANCH  16  18
ENDBRANCH  15  16
ENDBRANCH   1  15
TORSDOF 7
ENDMDL
MODEL 7
REMARK VINA RESULT:      -7.1      2.774      3.815
REMARK  Name = 
REMARK  7 active torsions:
REMARK  status: ('A' for Active; 'I' for Inactive)
REMARK    1  A    between atoms: S_2  and  N_4
REMARK    2  A    between atoms: S_2  and  C_20
REMARK    3  A    between atoms: N_4  and  C_5
REMARK    4  A    between atoms: C_5  and  C_6
REMARK    5  A    between atoms: C_6  and  C_7
REMARK    6  A    between atoms: C_7  and  N_8
REMARK    7  A    between atoms: N_8  and  C_9
REMARK                            x       y       z     vdW  Elec       q    Type
REMARK                         _______ _______ _______ _____ _____    ______ ____
ROOT
ATOM      1  C   UNL     1       2.985   7.597  18.032  0.00  0.00    +0.000 C 
ENDROOT
BRANCH   1   2
ATOM      2  C   UNL     1       2.441   6.803  19.223  0.00  0.00    +0.000 C 
BRANCH   2   3
ATOM      3  N   UNL     1       3.451   5.856  19.727  0.00  0.00    +0.000 NA
ATOM      4  H   UNL     1       4.409   6.205  19.735  0.00  0.00    +0.000 HD
BRANCH   3   6
ATOM      5  O   UNL     1       3.907   3.406  20.113  0.00  0.00    +0.000 OA
ATOM      6  S   UNL     1       3.436   4.293  19.076  0.00  0.00    +0.000 S 
ATOM      7  O   UNL     1       2.170   4.100  18.406  0.00  0.00    +0.000 OA
BRANCH   6   8
ATOM      8  C   UNL     1       4.718   4.377  17.843  0.00  0.00    +0.000 A 
ATOM      9  C   UNL     1       4.366   4.299  16.488  0.00  0.00    +0.000 A 
ATOM     10  C   UNL     1       5.362   4.393  15.516  0.00  0.00    +0.000 A 
ATOM     11  C   UNL     1       6.687   4.575  15.904  0.00  0.00    +0.000 A 
ATOM     12  F   UNL     1       7.638   4.682  14.968  0.00  0.00    +0.000 F 
ATOM     13  C   UNL     1       7.038   4.660  17.249  0.00  0.00    +0.000 A 
ATOM     14  C   UNL     1       6.050   4.559  18.229  0.00  0.00    +0.000 A 
ENDBRANCH   6   8
ENDBRANCH   3   6
ENDBRANCH   2   3
ENDBRANCH   1   2
BRANCH   1  15
ATOM     15  C   UNL     1       2.422   9.013  17.912  0.00  0.00    +0.000 C 
BRANCH  15  16
ATOM     16  N   UNL     1       0.959   8.983  17.827  0.00  0.00    +0.000 N 
ATOM     17  H   UNL     1       0.614   8.037  17.971  0.00  0.00    +0.000 HD
BRANCH  16  18
ATOM     18  C   UNL     1       0.221   9.904  18.610  0.00  0.00    +0.000 A 
ATOM     19  C   UNL     1       0.798  10.526  19.723  0.00  0.00    +0.000 A 
ATOM     20  C   UNL     1       0.073  11.463  20.430  0.00  0.00    +0.000 A 
ATOM     21  N   UNL     1      -1.168  11.855  20.097  0.00  0.00    +0.000 NA
ATOM     22  C   UNL     1      -1.725  11.318  19.006  0.00  0.00    +0.000 A 
ATOM     23  C   UNL     1      -2.992  11.761  18.667  0.00  0.00    +0.000 A 
ATOM     24  C   UNL     1      -3.659  11.270  17.552  0.00  0.00    +0.000 A 
ATOM     25 CL   UNL     1      -5.234  11.849  17.169  0.00  0.00    +0.000 Cl
ATOM     26  C   UNL     1      -3.057  10.319  16.744  0.00  0.00    +0.000 A 
ATOM     27  C   UNL     1      -1.776   9.860  17.063  0.00  0.00    +0.000 A 
ATOM     28  C   UNL     1      -1.079  10.341  18.203  0.00  0.00    +0.000 A 
ENDBRANCH  16  18
ENDBRANCH  15  16
ENDBRANCH   1  15
TORSDOF 7
ENDMDL
MODEL 8
REMARK VINA RESULT:      -7.0      5.265      8.512
REMARK  Name = 
REMARK  7 active torsions:
REMARK  status: ('A' for Active; 'I' for Inactive)
REMARK    1  A    between atoms: S_2  and  N_4
REMARK    2  A    between atoms: S_2  and  C_20
REMARK    3  A    between atoms: N_4  and  C_5
REMARK    4  A    between atoms: C_5  and  C_6
REMARK    5  A    between atoms: C_6  and  C_7
REMARK    6  A    between atoms: C_7  and  N_8
REMARK    7  A    between atoms: N_8  and  C_9
REMARK                            x       y       z     vdW  Elec       q    Type
REMARK                         _______ _______ _______ _____ _____    ______ ____
ROOT
ATOM      1  C   UNL     1       2.082   7.913  18.185  0.00  0.00    +0.000 C 
ENDROOT
BRANCH   1   2
ATOM      2  C   UNL     1       2.108   9.433  18.007  0.00  0.00    +0.000 C 
BRANCH   2   3
ATOM      3  N   UNL     1       0.757   9.954  17.739  0.00  0.00    +0.000 NA
ATOM      4  H   UNL     1       0.618  10.348  16.809  0.00  0.00    +0.000 HD
BRANCH   3   6
ATOM      5  O   UNL     1       0.214  10.348  20.171  0.00  0.00    +0.000 OA
ATOM      6  S   UNL     1       0.092  11.002  18.890  0.00  0.00    +0.000 S 
ATOM      7  O   UNL     1       0.615  12.327  18.642  0.00  0.00    +0.000 OA
BRANCH   6   8
ATOM      8  C   UNL     1      -1.638  10.993  18.466  0.00  0.00    +0.000 A 
ATOM      9  C   UNL     1      -2.111  10.037  17.555  0.00  0.00    +0.000 A 
ATOM     10  C   UNL     1      -3.469  10.005  17.240  0.00  0.00    +0.000 A 
ATOM     11  C   UNL     1      -4.337  10.913  17.844  0.00  0.00    +0.000 A 
ATOM     12  F   UNL     1      -5.643  10.868  17.553  0.00  0.00    +0.000 F 
ATOM     13  C   UNL     1      -3.870  11.858  18.754  0.00  0.00    +0.000 A 
ATOM     14  C   UNL     1      -2.512  11.903  19.070  0.00  0.00    +0.000 A 
ENDBRANCH   6   8
ENDBRANCH   3   6
ENDBRANCH   2   3
ENDBRANCH   1   2
BRANCH   1  15
ATOM     15  C   UNL     1       2.123   7.451  19.642  0.00  0.00    +0.000 C 
BRANCH  15  16
ATOM     16  N   UNL     1       3.141   6.414  19.828  0.00  0.00    +0.000 N 
ATOM     17  H   UNL     1       3.128   6.071  20.785  0.00  0.00    +0.000 HD
BRANCH  16  18
ATOM     18  C   UNL     1       3.173   5.332  18.914  0.00  0.00    +0.000 A 
ATOM     19  C   UNL     1       2.162   4.365  18.910  0.00  0.00    +0.000 A 
ATOM     20  C   UNL     1       2.191   3.357  17.968  0.00  0.00    +0.000 A 
ATOM     21  N   UNL     1       3.126   3.254  17.010  0.00  0.00    +0.000 NA
ATOM     22  C   UNL     1       4.075   4.196  16.955  0.00  0.00    +0.000 A 
ATOM     23  C   UNL     1       5.009   4.085  15.939  0.00  0.00    +0.000 A 
ATOM     24  C   UNL     1       6.034   5.010  15.791  0.00  0.00    +0.000 A 
ATOM     25 CL   UNL     1       7.175   4.832  14.515  0.00  0.00    +0.000 Cl
ATOM     26  C   UNL     1       6.138   6.080  16.666  0.00  0.00    +0.000 A 
ATOM     27  C   UNL     1       5.203   6.216  17.696  0.00  0.00    +0.000 A 
ATOM     28  C   UNL     1       4.152   5.277  17.872  0.00  0.00    +0.000 A 
ENDBRANCH  16  18
ENDBRANCH  15  16
ENDBRANCH   1  15
TORSDOF 7
ENDMDL
MODEL 9
REMARK VINA RESULT:      -7.0      0.945      1.459
REMARK  Name = 
REMARK  7 active torsions:
REMARK  status: ('A' for Active; 'I' for Inactive)
REMARK    1  A    between atoms: S_2  and  N_4
REMARK    2  A    between atoms: S_2  and  C_20
REMARK    3  A    between atoms: N_4  and  C_5
REMARK    4  A    between atoms: C_5  and  C_6
REMARK    5  A    between atoms: C_6  and  C_7
REMARK    6  A    between atoms: C_7  and  N_8
REMARK    7  A    between atoms: N_8  and  C_9
REMARK                            x       y       z     vdW  Elec       q    Type
REMARK                         _______ _______ _______ _____ _____    ______ ____
ROOT
ATOM      1  C   UNL     1       0.953   4.695  19.872  0.00  0.00    +0.000 C 
ENDROOT
BRANCH   1   2
ATOM      2  C   UNL     1       1.703   4.058  18.698  0.00  0.00    +0.000 C 
BRANCH   2   3
ATOM      3  N   UNL     1       2.017   2.647  18.979  0.00  0.00    +0.000 NA
ATOM      4  H   UNL     1       1.495   2.230  19.749  0.00  0.00    +0.000 HD
BRANCH   3   6
ATOM      5  O   UNL     1       3.972   2.315  20.537  0.00  0.00    +0.000 OA
ATOM      6  S   UNL     1       3.652   2.235  19.132  0.00  0.00    +0.000 S 
ATOM      7  O   UNL     1       3.887   1.042  18.349  0.00  0.00    +0.000 OA
BRANCH   6   8
ATOM      8  C   UNL     1       4.470   3.601  18.334  0.00  0.00    +0.000 A 
ATOM      9  C   UNL     1       5.257   4.468  19.106  0.00  0.00    +0.000 A 
ATOM     10  C   UNL     1       5.924   5.523  18.483  0.00  0.00    +0.000 A 
ATOM     11  C   UNL     1       5.809   5.692  17.106  0.00  0.00    +0.000 A 
ATOM     12  F   UNL     1       6.465   6.696  16.509  0.00  0.00    +0.000 F 
ATOM     13  C   UNL     1       5.034   4.828  16.337  0.00  0.00    +0.000 A 
ATOM     14  C   UNL     1       4.356   3.774  16.951  0.00  0.00    +0.000 A 
ENDBRANCH   6   8
ENDBRANCH   3   6
ENDBRANCH   2   3
ENDBRANCH   1   2
BRANCH   1  15
ATOM     15  C   UNL     1       1.857   5.386  20.893  0.00  0.00    +0.000 C 
BRANCH  15  16
ATOM     16  N   UNL     1       2.781   6.307  20.226  0.00  0.00    +0.000 N 
ATOM     17  H   UNL     1       3.368   5.805  19.564  0.00  0.00    +0.000 HD
BRANCH  16  18
ATOM     18  C   UNL     1       2.251   7.477  19.630  0.00  0.00    +0.000 A 
ATOM     19  C   UNL     1       2.344   7.686  18.250  0.00  0.00    +0.000 A 
ATOM     20  C   UNL     1       1.766   8.808  17.692  0.00  0.00    +0.000 A 
ATOM     21  N   UNL     1       1.074   9.720  18.394  0.00  0.00    +0.000 NA
ATOM     22  C   UNL     1       0.922   9.519  19.708  0.00  0.00    +0.000 A 
ATOM     23  C   UNL     1       0.179  10.458  20.403  0.00  0.00    +0.000 A 
ATOM     24  C   UNL     1      -0.041  10.343  21.769  0.00  0.00    +0.000 A 
ATOM     25 CL   UNL     1      -0.969  11.535  22.594  0.00  0.00    +0.000 Cl
ATOM     26  C   UNL     1       0.481   9.267  22.470  0.00  0.00    +0.000 A 
ATOM     27  C   UNL     1       1.230   8.304  21.789  0.00  0.00    +0.000 A 
ATOM     28  C   UNL     1       1.476   8.406  20.393  0.00  0.00    +0.000 A 
ENDBRANCH  16  18
ENDBRANCH  15  16
ENDBRANCH   1  15
TORSDOF 7
ENDMDL
