MODEL 1
REMARK VINA RESULT:      -8.0      0.000      0.000
REMARK  Name = 
REMARK  4 active torsions:
REMARK  status: ('A' for Active; 'I' for Inactive)
REMARK    1  A    between atoms: C_2  and  C_5
REMARK    2  A    between atoms: C_8  and  C_9
REMARK    3  A    between atoms: C_16  and  O_17
REMARK    4  A    between atoms: O_17  and  C_18
REMARK                            x       y       z     vdW  Elec       q    Type
REMARK                         _______ _______ _______ _____ _____    ______ ____
ROOT
ATOM      1  C   UNL     1       3.118   3.478  18.863  0.00  0.00    +0.000 A 
ATOM      2  N   UNL     1       1.856   3.836  19.191  0.00  0.00    +0.000 NA
ATOM      3  N   UNL     1       1.513   5.160  19.179  0.00  0.00    +0.000 NA
ATOM      4  C   UNL     1       2.420   6.089  18.803  0.00  0.00    +0.000 A 
ATOM      5  N   UNL     1       3.672   5.772  18.427  0.00  0.00    +0.000 NA
ATOM      6  C   UNL     1       4.009   4.465  18.511  0.00  0.00    +0.000 A 
ENDROOT
BRANCH   4   7
ATOM      7  C   UNL     1       2.073   7.513  18.922  0.00  0.00    +0.000 A 
ATOM      8  C   UNL     1       2.237   8.405  17.843  0.00  0.00    +0.000 A 
ATOM      9  C   UNL     1       1.884   9.754  17.946  0.00  0.00    +0.000 A 
ATOM     10  C   UNL     1       1.353  10.246  19.133  0.00  0.00    +0.000 A 
ATOM     11  C   UNL     1       1.172   9.393  20.217  0.00  0.00    +0.000 A 
ATOM     12  C   UNL     1       1.526   8.044  20.111  0.00  0.00    +0.000 A 
ENDBRANCH   4   7
BRANCH   1  14
ATOM     13  F   UNL     1       3.947   1.523  17.755  0.00  0.00    +0.000 F 
ATOM     14  C   UNL     1       3.533   2.047  18.946  0.00  0.00    +0.000 C 
ATOM     15  F   UNL     1       2.526   1.227  19.368  0.00  0.00    +0.000 F 
ATOM     16  F   UNL     1       4.567   1.837  19.811  0.00  0.00    +0.000 F 
ENDBRANCH   1  14
BRANCH   6  17
ATOM     17  O   UNL     1       5.336   4.120  18.278  0.00  0.00    +0.000 OA
BRANCH  17  18
ATOM     18  C   UNL     1       5.845   4.354  17.014  0.00  0.00    +0.000 A 
ATOM     19  C   UNL     1       5.263   3.813  15.858  0.00  0.00    +0.000 A 
ATOM     20  C   UNL     1       5.831   4.041  14.605  0.00  0.00    +0.000 A 
ATOM     21  C   UNL     1       6.950   4.860  14.494  0.00  0.00    +0.000 A 
ATOM     22 CL   UNL     1       7.644   5.139  12.946  0.00  0.00    +0.000 Cl
ATOM     23  C   UNL     1       7.504   5.458  15.624  0.00  0.00    +0.000 A 
ATOM     24  C   UNL     1       6.953   5.203  16.885  0.00  0.00    +0.000 A 
ATOM     25 CL   UNL     1       7.673   5.956  18.261  0.00  0.00    +0.000 Cl
ENDBRANCH  17  18
ENDBRANCH   6  17
TORSDOF 4
ENDMDL
MODEL 2
REMARK VINA RESULT:      -8.0      3.955      6.930
REMARK  Name = 
REMARK  4 active torsions:
REMARK  status: ('A' for Active; 'I' for Inactive)
REMARK    1  A    between atoms: C_2  and  C_5
REMARK    2  A    between atoms: C_8  and  C_9
REMARK    3  A    between atoms: C_16  and  O_17
REMARK    4  A    between atoms: O_17  and  C_18
REMARK                            x       y       z     vdW  Elec       q    Type
REMARK                         _______ _______ _______ _____ _____    ______ ____
ROOT
ATOM      1  C   UNL     1       7.288   5.554  17.597  0.00  0.00    +0.000 A 
ATOM      2  N   UNL     1       7.746   6.179  16.488  0.00  0.00    +0.000 NA
ATOM      3  N   UNL     1       7.363   5.719  15.257  0.00  0.00    +0.000 NA
ATOM      4  C   UNL     1       6.506   4.679  15.161  0.00  0.00    +0.000 A 
ATOM      5  N   UNL     1       5.993   4.058  16.239  0.00  0.00    +0.000 NA
ATOM      6  C   UNL     1       6.437   4.485  17.443  0.00  0.00    +0.000 A 
ENDROOT
BRANCH   4   7
ATOM      7  C   UNL     1       6.210   4.119  13.834  0.00  0.00    +0.000 A 
ATOM      8  C   UNL     1       4.898   3.771  13.456  0.00  0.00    +0.000 A 
ATOM      9  C   UNL     1       4.611   3.262  12.186  0.00  0.00    +0.000 A 
ATOM     10  C   UNL     1       5.633   3.090  11.257  0.00  0.00    +0.000 A 
ATOM     11  C   UNL     1       6.939   3.429  11.595  0.00  0.00    +0.000 A 
ATOM     12  C   UNL     1       7.223   3.938  12.866  0.00  0.00    +0.000 A 
ENDBRANCH   4   7
BRANCH   1  14
ATOM     13  F   UNL     1       8.679   5.158  19.506  0.00  0.00    +0.000 F 
ATOM     14  C   UNL     1       7.756   5.991  18.945  0.00  0.00    +0.000 C 
ATOM     15  F   UNL     1       6.742   6.069  19.856  0.00  0.00    +0.000 F 
ATOM     16  F   UNL     1       8.340   7.224  18.936  0.00  0.00    +0.000 F 
ENDBRANCH   1  14
BRANCH   6  17
ATOM     17  O   UNL     1       6.048   3.769  18.569  0.00  0.00    +0.000 OA
BRANCH  17  18
ATOM     18  C   UNL     1       4.726   3.865  18.963  0.00  0.00    +0.000 A 
ATOM     19  C   UNL     1       3.883   4.896  18.523  0.00  0.00    +0.000 A 
ATOM     20  C   UNL     1       2.567   4.979  18.975  0.00  0.00    +0.000 A 
ATOM     21  C   UNL     1       2.067   3.997  19.824  0.00  0.00    +0.000 A 
ATOM     22 CL   UNL     1       0.442   4.103  20.376  0.00  0.00    +0.000 Cl
ATOM     23  C   UNL     1       2.870   2.929  20.221  0.00  0.00    +0.000 A 
ATOM     24  C   UNL     1       4.200   2.865  19.793  0.00  0.00    +0.000 A 
ATOM     25 CL   UNL     1       5.164   1.531  20.314  0.00  0.00    +0.000 Cl
ENDBRANCH  17  18
ENDBRANCH   6  17
TORSDOF 4
ENDMDL
MODEL 3
REMARK VINA RESULT:      -7.9      3.949      6.807
REMARK  Name = 
REMARK  4 active torsions:
REMARK  status: ('A' for Active; 'I' for Inactive)
REMARK    1  A    between atoms: C_2  and  C_5
REMARK    2  A    between atoms: C_8  and  C_9
REMARK    3  A    between atoms: C_16  and  O_17
REMARK    4  A    between atoms: O_17  and  C_18
REMARK                            x       y       z     vdW  Elec       q    Type
REMARK                         _______ _______ _______ _____ _____    ______ ____
ROOT
ATOM      1  C   UNL     1       7.231   5.626  17.497  0.00  0.00    +0.000 A 
ATOM      2  N   UNL     1       7.721   6.165  16.358  0.00  0.00    +0.000 NA
ATOM      3  N   UNL     1       7.312   5.665  15.152  0.00  0.00    +0.000 NA
ATOM      4  C   UNL     1       6.398   4.671  15.109  0.00  0.00    +0.000 A 
ATOM      5  N   UNL     1       5.852   4.137  16.216  0.00  0.00    +0.000 NA
ATOM      6  C   UNL     1       6.320   4.600  17.398  0.00  0.00    +0.000 A 
ENDROOT
BRANCH   4   7
ATOM      7  C   UNL     1       6.069   4.060  13.812  0.00  0.00    +0.000 A 
ATOM      8  C   UNL     1       4.735   3.831  13.422  0.00  0.00    +0.000 A 
ATOM      9  C   UNL     1       4.420   3.273  12.179  0.00  0.00    +0.000 A 
ATOM     10  C   UNL     1       5.435   2.934  11.290  0.00  0.00    +0.000 A 
ATOM     11  C   UNL     1       6.763   3.153  11.640  0.00  0.00    +0.000 A 
ATOM     12  C   UNL     1       7.075   3.710  12.885  0.00  0.00    +0.000 A 
ENDBRANCH   4   7
BRANCH   1  14
ATOM     13  F   UNL     1       6.746   6.211  19.769  0.00  0.00    +0.000 F 
ATOM     14  C   UNL     1       7.723   6.105  18.822  0.00  0.00    +0.000 C 
ATOM     15  F   UNL     1       8.297   7.342  18.758  0.00  0.00    +0.000 F 
ATOM     16  F   UNL     1       8.669   5.288  19.370  0.00  0.00    +0.000 F 
ENDBRANCH   1  14
BRANCH   6  17
ATOM     17  O   UNL     1       5.893   3.966  18.559  0.00  0.00    +0.000 OA
BRANCH  17  18
ATOM     18  C   UNL     1       4.579   3.539  18.608  0.00  0.00    +0.000 A 
ATOM     19  C   UNL     1       4.229   2.181  18.623  0.00  0.00    +0.000 A 
ATOM     20  C   UNL     1       2.890   1.792  18.633  0.00  0.00    +0.000 A 
ATOM     21  C   UNL     1       1.893   2.761  18.688  0.00  0.00    +0.000 A 
ATOM     22 CL   UNL     1       0.243   2.275  18.703  0.00  0.00    +0.000 Cl
ATOM     23  C   UNL     1       2.221   4.114  18.739  0.00  0.00    +0.000 A 
ATOM     24  C   UNL     1       3.564   4.503  18.696  0.00  0.00    +0.000 A 
ATOM     25 CL   UNL     1       3.930   6.189  18.752  0.00  0.00    +0.000 Cl
ENDBRANCH  17  18
ENDBRANCH   6  17
TORSDOF 4
ENDMDL
MODEL 4
REMARK VINA RESULT:      -7.9      3.942      6.748
REMARK  Name = 
REMARK  4 active torsions:
REMARK  status: ('A' for Active; 'I' for Inactive)
REMARK    1  A    between atoms: C_2  and  C_5
REMARK    2  A    between atoms: C_8  and  C_9
REMARK    3  A    between atoms: C_16  and  O_17
REMARK    4  A    between atoms: O_17  and  C_18
REMARK                            x       y       z     vdW  Elec       q    Type
REMARK                         _______ _______ _______ _____ _____    ______ ____
ROOT
ATOM      1  C   UNL     1       7.259   5.620  17.577  0.00  0.00    +0.000 A 
ATOM      2  N   UNL     1       7.754   6.182  16.451  0.00  0.00    +0.000 NA
ATOM      3  N   UNL     1       7.347   5.706  15.234  0.00  0.00    +0.000 NA
ATOM      4  C   UNL     1       6.432   4.715  15.168  0.00  0.00    +0.000 A 
ATOM      5  N   UNL     1       5.882   4.159  16.262  0.00  0.00    +0.000 NA
ATOM      6  C   UNL     1       6.348   4.597  17.454  0.00  0.00    +0.000 A 
ENDROOT
BRANCH   4   7
ATOM      7  C   UNL     1       6.106   4.131  13.858  0.00  0.00    +0.000 A 
ATOM      8  C   UNL     1       7.109   3.829  12.914  0.00  0.00    +0.000 A 
ATOM      9  C   UNL     1       6.803   3.250  11.679  0.00  0.00    +0.000 A 
ATOM     10  C   UNL     1       5.483   2.955  11.356  0.00  0.00    +0.000 A 
ATOM     11  C   UNL     1       4.468   3.233  12.266  0.00  0.00    +0.000 A 
ATOM     12  C   UNL     1       4.777   3.813  13.501  0.00  0.00    +0.000 A 
ENDBRANCH   4   7
BRANCH   1  14
ATOM     13  F   UNL     1       8.328   7.307  18.899  0.00  0.00    +0.000 F 
ATOM     14  C   UNL     1       7.749   6.071  18.913  0.00  0.00    +0.000 C 
ATOM     15  F   UNL     1       8.693   5.239  19.440  0.00  0.00    +0.000 F 
ATOM     16  F   UNL     1       6.759   6.147  19.849  0.00  0.00    +0.000 F 
ENDBRANCH   1  14
BRANCH   6  17
ATOM     17  O   UNL     1       5.916   3.941  18.601  0.00  0.00    +0.000 OA
BRANCH  17  18
ATOM     18  C   UNL     1       4.599   3.521  18.640  0.00  0.00    +0.000 A 
ATOM     19  C   UNL     1       4.243   2.165  18.687  0.00  0.00    +0.000 A 
ATOM     20  C   UNL     1       2.903   1.782  18.686  0.00  0.00    +0.000 A 
ATOM     21  C   UNL     1       1.909   2.756  18.699  0.00  0.00    +0.000 A 
ATOM     22 CL   UNL     1       0.257   2.277  18.699  0.00  0.00    +0.000 Cl
ATOM     23  C   UNL     1       2.243   4.109  18.717  0.00  0.00    +0.000 A 
ATOM     24  C   UNL     1       3.588   4.491  18.685  0.00  0.00    +0.000 A 
ATOM     25 CL   UNL     1       3.960   6.177  18.701  0.00  0.00    +0.000 Cl
ENDBRANCH  17  18
ENDBRANCH   6  17
TORSDOF 4
ENDMDL
MODEL 5
REMARK VINA RESULT:      -7.9      1.063      1.234
REMARK  Name = 
REMARK  4 active torsions:
REMARK  status: ('A' for Active; 'I' for Inactive)
REMARK    1  A    between atoms: C_2  and  C_5
REMARK    2  A    between atoms: C_8  and  C_9
REMARK    3  A    between atoms: C_16  and  O_17
REMARK    4  A    between atoms: O_17  and  C_18
REMARK                            x       y       z     vdW  Elec       q    Type
REMARK                         _______ _______ _______ _____ _____    ______ ____
ROOT
ATOM      1  C   UNL     1       3.037   3.982  20.167  0.00  0.00    +0.000 A 
ATOM      2  N   UNL     1       1.791   4.356  20.536  0.00  0.00    +0.000 NA
ATOM      3  N   UNL     1       1.391   5.646  20.322  0.00  0.00    +0.000 NA
ATOM      4  C   UNL     1       2.222   6.518  19.711  0.00  0.00    +0.000 A 
ATOM      5  N   UNL     1       3.452   6.176  19.287  0.00  0.00    +0.000 NA
ATOM      6  C   UNL     1       3.852   4.915  19.570  0.00  0.00    +0.000 A 
ENDROOT
BRANCH   4   7
ATOM      7  C   UNL     1       1.823   7.930  19.607  0.00  0.00    +0.000 A 
ATOM      8  C   UNL     1       1.987   8.657  18.410  0.00  0.00    +0.000 A 
ATOM      9  C   UNL     1       1.585   9.992  18.303  0.00  0.00    +0.000 A 
ATOM     10  C   UNL     1       1.005  10.635  19.391  0.00  0.00    +0.000 A 
ATOM     11  C   UNL     1       0.823   9.946  20.586  0.00  0.00    +0.000 A 
ATOM     12  C   UNL     1       1.226   8.611  20.691  0.00  0.00    +0.000 A 
ENDBRANCH   4   7
BRANCH   1  14
ATOM     13  F   UNL     1       4.875   2.461  20.383  0.00  0.00    +0.000 F 
ATOM     14  C   UNL     1       3.520   2.600  20.463  0.00  0.00    +0.000 C 
ATOM     15  F   UNL     1       3.012   1.668  19.605  0.00  0.00    +0.000 F 
ATOM     16  F   UNL     1       3.186   2.172  21.714  0.00  0.00    +0.000 F 
ENDBRANCH   1  14
BRANCH   6  17
ATOM     17  O   UNL     1       5.169   4.573  19.286  0.00  0.00    +0.000 OA
BRANCH  17  18
ATOM     18  C   UNL     1       5.571   4.618  17.963  0.00  0.00    +0.000 A 
ATOM     19  C   UNL     1       4.805   4.067  16.926  0.00  0.00    +0.000 A 
ATOM     20  C   UNL     1       5.264   4.099  15.610  0.00  0.00    +0.000 A 
ATOM     21  C   UNL     1       6.466   4.736  15.315  0.00  0.00    +0.000 A 
ATOM     22 CL   UNL     1       7.026   4.775  13.690  0.00  0.00    +0.000 Cl
ATOM     23  C   UNL     1       7.210   5.346  16.324  0.00  0.00    +0.000 A 
ATOM     24  C   UNL     1       6.764   5.284  17.648  0.00  0.00    +0.000 A 
ATOM     25 CL   UNL     1       7.718   6.043  18.870  0.00  0.00    +0.000 Cl
ENDBRANCH  17  18
ENDBRANCH   6  17
TORSDOF 4
ENDMDL
MODEL 6
REMARK VINA RESULT:      -7.9      3.946      6.924
REMARK  Name = 
REMARK  4 active torsions:
REMARK  status: ('A' for Active; 'I' for Inactive)
REMARK    1  A    between atoms: C_2  and  C_5
REMARK    2  A    between atoms: C_8  and  C_9
REMARK    3  A    between atoms: C_16  and  O_17
REMARK    4  A    between atoms: O_17  and  C_18
REMARK                            x       y       z     vdW  Elec       q    Type
REMARK                         _______ _______ _______ _____ _____    ______ ____
ROOT
ATOM      1  C   UNL     1       7.227   5.550  17.518  0.00  0.00    +0.000 A 
ATOM      2  N   UNL     1       7.666   6.164  16.396  0.00  0.00    +0.000 NA
ATOM      3  N   UNL     1       7.274   5.685  15.176  0.00  0.00    +0.000 NA
ATOM      4  C   UNL     1       6.425   4.637  15.103  0.00  0.00    +0.000 A 
ATOM      5  N   UNL     1       5.928   4.026  16.195  0.00  0.00    +0.000 NA
ATOM      6  C   UNL     1       6.382   4.473  17.388  0.00  0.00    +0.000 A 
ENDROOT
BRANCH   4   7
ATOM      7  C   UNL     1       6.119   4.056  13.787  0.00  0.00    +0.000 A 
ATOM      8  C   UNL     1       7.138   3.711  12.878  0.00  0.00    +0.000 A 
ATOM      9  C   UNL     1       6.850   3.135  11.636  0.00  0.00    +0.000 A 
ATOM     10  C   UNL     1       5.530   2.886  11.274  0.00  0.00    +0.000 A 
ATOM     11  C   UNL     1       4.499   3.209  12.149  0.00  0.00    +0.000 A 
ATOM     12  C   UNL     1       4.790   3.785  13.390  0.00  0.00    +0.000 A 
ENDBRANCH   4   7
BRANCH   1  14
ATOM     13  F   UNL     1       8.356   7.208  18.827  0.00  0.00    +0.000 F 
ATOM     14  C   UNL     1       7.705   6.009  18.855  0.00  0.00    +0.000 C 
ATOM     15  F   UNL     1       8.584   5.137  19.430  0.00  0.00    +0.000 F 
ATOM     16  F   UNL     1       6.696   6.167  19.760  0.00  0.00    +0.000 F 
ENDBRANCH   1  14
BRANCH   6  17
ATOM     17  O   UNL     1       6.011   3.769  18.528  0.00  0.00    +0.000 OA
BRANCH  17  18
ATOM     18  C   UNL     1       4.696   3.871  18.943  0.00  0.00    +0.000 A 
ATOM     19  C   UNL     1       3.861   4.925  18.544  0.00  0.00    +0.000 A 
ATOM     20  C   UNL     1       2.553   5.012  19.017  0.00  0.00    +0.000 A 
ATOM     21  C   UNL     1       2.052   4.013  19.846  0.00  0.00    +0.000 A 
ATOM     22 CL   UNL     1       0.437   4.126  20.425  0.00  0.00    +0.000 Cl
ATOM     23  C   UNL     1       2.846   2.925  20.202  0.00  0.00    +0.000 A 
ATOM     24  C   UNL     1       4.169   2.855  19.753  0.00  0.00    +0.000 A 
ATOM     25 CL   UNL     1       5.123   1.495  20.224  0.00  0.00    +0.000 Cl
ENDBRANCH  17  18
ENDBRANCH   6  17
TORSDOF 4
ENDMDL
MODEL 7
REMARK VINA RESULT:      -7.9      1.055      1.502
REMARK  Name = 
REMARK  4 active torsions:
REMARK  status: ('A' for Active; 'I' for Inactive)
REMARK    1  A    between atoms: C_2  and  C_5
REMARK    2  A    between atoms: C_8  and  C_9
REMARK    3  A    between atoms: C_16  and  O_17
REMARK    4  A    between atoms: O_17  and  C_18
REMARK                            x       y       z     vdW  Elec       q    Type
REMARK                         _______ _______ _______ _____ _____    ______ ____
ROOT
ATOM      1  C   UNL     1       3.040   3.955  20.146  0.00  0.00    +0.000 A 
ATOM      2  N   UNL     1       1.796   4.327  20.521  0.00  0.00    +0.000 NA
ATOM      3  N   UNL     1       1.386   5.613  20.294  0.00  0.00    +0.000 NA
ATOM      4  C   UNL     1       2.207   6.481  19.665  0.00  0.00    +0.000 A 
ATOM      5  N   UNL     1       3.436   6.140  19.235  0.00  0.00    +0.000 NA
ATOM      6  C   UNL     1       3.845   4.885  19.530  0.00  0.00    +0.000 A 
ENDROOT
BRANCH   4   7
ATOM      7  C   UNL     1       1.801   7.890  19.547  0.00  0.00    +0.000 A 
ATOM      8  C   UNL     1       1.224   8.585  20.629  0.00  0.00    +0.000 A 
ATOM      9  C   UNL     1       0.861   9.931  20.526  0.00  0.00    +0.000 A 
ATOM     10  C   UNL     1       1.068  10.620  19.335  0.00  0.00    +0.000 A 
ATOM     11  C   UNL     1       1.641   9.966  18.248  0.00  0.00    +0.000 A 
ATOM     12  C   UNL     1       2.003   8.619  18.354  0.00  0.00    +0.000 A 
ENDBRANCH   4   7
BRANCH   1  14
ATOM     13  F   UNL     1       3.135   1.636  19.553  0.00  0.00    +0.000 F 
ATOM     14  C   UNL     1       3.533   2.580  20.455  0.00  0.00    +0.000 C 
ATOM     15  F   UNL     1       3.102   2.124  21.667  0.00  0.00    +0.000 F 
ATOM     16  F   UNL     1       4.894   2.494  20.491  0.00  0.00    +0.000 F 
ENDBRANCH   1  14
BRANCH   6  17
ATOM     17  O   UNL     1       5.161   4.546  19.239  0.00  0.00    +0.000 OA
BRANCH  17  18
ATOM     18  C   UNL     1       5.541   4.541  17.910  0.00  0.00    +0.000 A 
ATOM     19  C   UNL     1       4.704   4.066  16.890  0.00  0.00    +0.000 A 
ATOM     20  C   UNL     1       5.140   4.042  15.566  0.00  0.00    +0.000 A 
ATOM     21  C   UNL     1       6.395   4.548  15.245  0.00  0.00    +0.000 A 
ATOM     22 CL   UNL     1       6.927   4.517  13.610  0.00  0.00    +0.000 Cl
ATOM     23  C   UNL     1       7.217   5.083  16.235  0.00  0.00    +0.000 A 
ATOM     24  C   UNL     1       6.791   5.077  17.568  0.00  0.00    +0.000 A 
ATOM     25 CL   UNL     1       7.842   5.740  18.766  0.00  0.00    +0.000 Cl
ENDBRANCH  17  18
ENDBRANCH   6  17
TORSDOF 4
ENDMDL
MODEL 8
REMARK VINA RESULT:      -7.7      3.864      7.168
REMARK  Name = 
REMARK  4 active torsions:
REMARK  status: ('A' for Active; 'I' for Inactive)
REMARK    1  A    between atoms: C_2  and  C_5
REMARK    2  A    between atoms: C_8  and  C_9
REMARK    3  A    between atoms: C_16  and  O_17
REMARK    4  A    between atoms: O_17  and  C_18
REMARK                            x       y       z     vdW  Elec       q    Type
REMARK                         _______ _______ _______ _____ _____    ______ ____
ROOT
ATOM      1  C   UNL     1       6.682   6.118  16.443  0.00  0.00    +0.000 A 
ATOM      2  N   UNL     1       7.740   5.634  15.754  0.00  0.00    +0.000 NA
ATOM      3  N   UNL     1       7.519   4.904  14.618  0.00  0.00    +0.000 NA
ATOM      4  C   UNL     1       6.258   4.708  14.176  0.00  0.00    +0.000 A 
ATOM      5  N   UNL     1       5.180   5.210  14.807  0.00  0.00    +0.000 NA
ATOM      6  C   UNL     1       5.417   5.871  15.963  0.00  0.00    +0.000 A 
ENDROOT
BRANCH   4   7
ATOM      7  C   UNL     1       6.034   3.814  13.030  0.00  0.00    +0.000 A 
ATOM      8  C   UNL     1       7.095   3.114  12.423  0.00  0.00    +0.000 A 
ATOM      9  C   UNL     1       6.880   2.243  11.349  0.00  0.00    +0.000 A 
ATOM     10  C   UNL     1       5.593   2.048  10.858  0.00  0.00    +0.000 A 
ATOM     11  C   UNL     1       4.521   2.719  11.438  0.00  0.00    +0.000 A 
ATOM     12  C   UNL     1       4.740   3.589  12.511  0.00  0.00    +0.000 A 
ENDBRANCH   4   7
BRANCH   1  14
ATOM     13  F   UNL     1       6.454   6.178  18.827  0.00  0.00    +0.000 F 
ATOM     14  C   UNL     1       6.899   6.850  17.726  0.00  0.00    +0.000 C 
ATOM     15  F   UNL     1       6.263   8.057  17.760  0.00  0.00    +0.000 F 
ATOM     16  F   UNL     1       8.214   7.119  17.973  0.00  0.00    +0.000 F 
ENDBRANCH   1  14
BRANCH   6  17
ATOM     17  O   UNL     1       4.322   6.269  16.720  0.00  0.00    +0.000 OA
BRANCH  17  18
ATOM     18  C   UNL     1       3.699   5.310  17.498  0.00  0.00    +0.000 A 
ATOM     19  C   UNL     1       4.000   3.945  17.392  0.00  0.00    +0.000 A 
ATOM     20  C   UNL     1       3.321   3.006  18.167  0.00  0.00    +0.000 A 
ATOM     21  C   UNL     1       2.378   3.433  19.097  0.00  0.00    +0.000 A 
ATOM     22 CL   UNL     1       1.545   2.270  20.052  0.00  0.00    +0.000 Cl
ATOM     23  C   UNL     1       2.111   4.791  19.262  0.00  0.00    +0.000 A 
ATOM     24  C   UNL     1       2.770   5.729  18.460  0.00  0.00    +0.000 A 
ATOM     25 CL   UNL     1       2.405   7.401  18.689  0.00  0.00    +0.000 Cl
ENDBRANCH  17  18
ENDBRANCH   6  17
TORSDOF 4
ENDMDL
MODEL 9
REMARK VINA RESULT:      -7.4      3.679      6.800
REMARK  Name = 
REMARK  4 active torsions:
REMARK  status: ('A' for Active; 'I' for Inactive)
REMARK    1  A    between atoms: C_2  and  C_5
REMARK    2  A    between atoms: C_8  and  C_9
REMARK    3  A    between atoms: C_16  and  O_17
REMARK    4  A    between atoms: O_17  and  C_18
REMARK                            x       y       z     vdW  Elec       q    Type
REMARK                         _______ _______ _______ _____ _____    ______ ____
ROOT
ATOM      1  C   UNL     1       7.194   5.423  17.492  0.00  0.00    +0.000 A 
ATOM      2  N   UNL     1       8.136   4.905  16.672  0.00  0.00    +0.000 NA
ATOM      3  N   UNL     1       7.774   4.484  15.421  0.00  0.00    +0.000 NA
ATOM      4  C   UNL     1       6.498   4.627  15.004  0.00  0.00    +0.000 A 
ATOM      5  N   UNL     1       5.539   5.179  15.771  0.00  0.00    +0.000 NA
ATOM      6  C   UNL     1       5.904   5.525  17.027  0.00  0.00    +0.000 A 
ENDROOT
BRANCH   4   7
ATOM      7  C   UNL     1       6.101   4.052  13.710  0.00  0.00    +0.000 A 
ATOM      8  C   UNL     1       7.059   3.608  12.776  0.00  0.00    +0.000 A 
ATOM      9  C   UNL     1       6.683   3.038  11.556  0.00  0.00    +0.000 A 
ATOM     10  C   UNL     1       5.336   2.894  11.239  0.00  0.00    +0.000 A 
ATOM     11  C   UNL     1       4.364   3.316  12.141  0.00  0.00    +0.000 A 
ATOM     12  C   UNL     1       4.743   3.886  13.361  0.00  0.00    +0.000 A 
ENDBRANCH   4   7
BRANCH   1  14
ATOM     13  F   UNL     1       8.589   5.099  19.412  0.00  0.00    +0.000 F 
ATOM     14  C   UNL     1       7.553   5.815  18.887  0.00  0.00    +0.000 C 
ATOM     15  F   UNL     1       6.521   5.650  19.765  0.00  0.00    +0.000 F 
ATOM     16  F   UNL     1       7.925   7.123  18.997  0.00  0.00    +0.000 F 
ENDBRANCH   1  14
BRANCH   6  17
ATOM     17  O   UNL     1       4.908   5.954  17.897  0.00  0.00    +0.000 OA
BRANCH  17  18
ATOM     18  C   UNL     1       3.876   5.075  18.172  0.00  0.00    +0.000 A 
ATOM     19  C   UNL     1       4.099   3.720  18.459  0.00  0.00    +0.000 A 
ATOM     20  C   UNL     1       3.029   2.858  18.693  0.00  0.00    +0.000 A 
ATOM     21  C   UNL     1       1.730   3.359  18.699  0.00  0.00    +0.000 A 
ATOM     22 CL   UNL     1       0.414   2.291  18.989  0.00  0.00    +0.000 Cl
ATOM     23  C   UNL     1       1.493   4.714  18.478  0.00  0.00    +0.000 A 
ATOM     24  C   UNL     1       2.566   5.572  18.212  0.00  0.00    +0.000 A 
ATOM     25 CL   UNL     1       2.230   7.242  17.936  0.00  0.00    +0.000 Cl
ENDBRANCH  17  18
ENDBRANCH   6  17
TORSDOF 4
ENDMDL
