MODEL 1
REMARK VINA RESULT:      -8.7      0.000      0.000
REMARK  Name = 
REMARK  11 active torsions:
REMARK  status: ('A' for Active; 'I' for Inactive)
REMARK    1  A    between atoms: C_1  and  O_2
REMARK    2  A    between atoms: O_2  and  C_3
REMARK    3  A    between atoms: C_5  and  N_6
REMARK    4  A    between atoms: C_7  and  C_9
REMARK    5  A    between atoms: C_9  and  C_10
REMARK    6  A    between atoms: C_10  and  S_11
REMARK    7  A    between atoms: S_11  and  C_14
REMARK    8  A    between atoms: N_20  and  C_21
REMARK    9  A    between atoms: N_26  and  C_27
REMARK   10  A    between atoms: C_29  and  O_30
REMARK   11  A    between atoms: O_30  and  C_31
REMARK                            x       y       z     vdW  Elec       q    Type
REMARK                         _______ _______ _______ _____ _____    ______ ____
ROOT
ATOM      1  S   UNL     1       6.562   5.993  16.855  0.00  0.00    +0.000 S 
ATOM      2  O   UNL     1       5.868   5.997  15.577  0.00  0.00    +0.000 OA
ATOM      3  O   UNL     1       7.726   5.159  17.062  0.00  0.00    +0.000 OA
ENDROOT
BRANCH   1   4
ATOM      4  C   UNL     1       5.358   5.560  18.094  0.00  0.00    +0.000 A 
ATOM      5  C   UNL     1       4.345   6.460  18.467  0.00  0.00    +0.000 A 
ATOM      6  C   UNL     1       3.194   5.971  19.116  0.00  0.00    +0.000 A 
ATOM      7  C   UNL     1       3.126   4.605  19.394  0.00  0.00    +0.000 A 
ATOM      8  C   UNL     1       4.298   3.833  19.349  0.00  0.00    +0.000 A 
ATOM      9  C   UNL     1       5.370   4.257  18.582  0.00  0.00    +0.000 A 
ATOM     10  N   UNL     1       4.192   2.462  19.730  0.00  0.00    +0.000 N 
ATOM     11  C   UNL     1       3.656   2.295  21.110  0.00  0.00    +0.000 C 
ATOM     12  C   UNL     1       3.352   1.901  18.750  0.00  0.00    +0.000 A 
ATOM     13  O   UNL     1       3.725   1.204  17.823  0.00  0.00    +0.000 OA
ATOM     14  C   UNL     1       1.928   2.520  18.857  0.00  0.00    +0.000 A 
ATOM     15  O   UNL     1       0.940   1.820  18.710  0.00  0.00    +0.000 OA
ATOM     16  N   UNL     1       1.903   3.857  19.349  0.00  0.00    +0.000 N 
ATOM     17  C   UNL     1       0.773   4.197  20.171  0.00  0.00    +0.000 C 
ENDBRANCH   1   4
BRANCH   1  18
ATOM     18  C   UNL     1       6.988   7.670  17.244  0.00  0.00    +0.000 C 
BRANCH  18  19
ATOM     19  C   UNL     1       8.202   7.775  18.139  0.00  0.00    +0.000 C 
BRANCH  19  21
ATOM     20  N   UNL     1       9.330   9.511  19.430  0.00  0.00    +0.000 N 
ATOM     21  C   UNL     1       8.475   9.243  18.364  0.00  0.00    +0.000 C 
ATOM     22  O   UNL     1       8.022  10.041  17.569  0.00  0.00    +0.000 OA
ATOM     23  H   UNL     1       9.721   8.736  19.955  0.00  0.00    +0.000 HD
BRANCH  20  26
ATOM     24  C   UNL     1       9.548  12.722  21.349  0.00  0.00    +0.000 A 
ATOM     25  C   UNL     1       9.103  11.471  20.907  0.00  0.00    +0.000 A 
ATOM     26  C   UNL     1       9.718  10.813  19.840  0.00  0.00    +0.000 A 
ATOM     27  C   UNL     1      10.775  11.452  19.188  0.00  0.00    +0.000 A 
ATOM     28  C   UNL     1      11.238  12.702  19.627  0.00  0.00    +0.000 A 
ATOM     29  C   UNL     1      10.623  13.329  20.711  0.00  0.00    +0.000 A 
BRANCH  24  31
ATOM     30  C   UNL     1       8.513  12.279  23.437  0.00  0.00    +0.000 C 
ATOM     31  O   UNL     1       8.868  13.215  22.429  0.00  0.00    +0.000 OA
ENDBRANCH  24  31
BRANCH  28  32
ATOM     32  O   UNL     1      12.313  13.192  18.931  0.00  0.00    +0.000 OA
ATOM     33  C   UNL     1      12.200  13.238  17.512  0.00  0.00    +0.000 C 
ENDBRANCH  28  32
ENDBRANCH  20  26
ENDBRANCH  19  21
ENDBRANCH  18  19
ENDBRANCH   1  18
TORSDOF 7
ENDMDL
MODEL 2
REMARK VINA RESULT:      -8.2      4.632      7.915
REMARK  Name = 
REMARK  11 active torsions:
REMARK  status: ('A' for Active; 'I' for Inactive)
REMARK    1  A    between atoms: C_1  and  O_2
REMARK    2  A    between atoms: O_2  and  C_3
REMARK    3  A    between atoms: C_5  and  N_6
REMARK    4  A    between atoms: C_7  and  C_9
REMARK    5  A    between atoms: C_9  and  C_10
REMARK    6  A    between atoms: C_10  and  S_11
REMARK    7  A    between atoms: S_11  and  C_14
REMARK    8  A    between atoms: N_20  and  C_21
REMARK    9  A    between atoms: N_26  and  C_27
REMARK   10  A    between atoms: C_29  and  O_30
REMARK   11  A    between atoms: O_30  and  C_31
REMARK                            x       y       z     vdW  Elec       q    Type
REMARK                         _______ _______ _______ _____ _____    ______ ____
ROOT
ATOM      1  S   UNL     1       1.673   3.842  19.480  0.00  0.00    +0.000 S 
ATOM      2  O   UNL     1       1.789   3.411  18.096  0.00  0.00    +0.000 OA
ATOM      3  O   UNL     1       0.448   3.632  20.221  0.00  0.00    +0.000 OA
ENDROOT
BRANCH   1   4
ATOM      4  C   UNL     1       2.031   5.587  19.509  0.00  0.00    +0.000 A 
ATOM      5  C   UNL     1       2.499   6.250  18.362  0.00  0.00    +0.000 A 
ATOM      6  C   UNL     1       2.382   7.652  18.282  0.00  0.00    +0.000 A 
ATOM      7  C   UNL     1       1.834   8.329  19.372  0.00  0.00    +0.000 A 
ATOM      8  C   UNL     1       1.741   7.679  20.613  0.00  0.00    +0.000 A 
ATOM      9  C   UNL     1       1.705   6.295  20.661  0.00  0.00    +0.000 A 
ATOM     10  N   UNL     1       1.258   8.444  21.717  0.00  0.00    +0.000 N 
ATOM     11  C   UNL     1       2.078   9.663  21.965  0.00  0.00    +0.000 C 
ATOM     12  C   UNL     1      -0.071   8.745  21.366  0.00  0.00    +0.000 A 
ATOM     13  O   UNL     1      -1.057   8.197  21.825  0.00  0.00    +0.000 OA
ATOM     14  C   UNL     1      -0.090   9.675  20.119  0.00  0.00    +0.000 A 
ATOM     15  O   UNL     1      -0.892  10.592  20.047  0.00  0.00    +0.000 OA
ATOM     16  N   UNL     1       1.013   9.498  19.235  0.00  0.00    +0.000 N 
ATOM     17  C   UNL     1       1.489  10.691  18.587  0.00  0.00    +0.000 C 
ENDBRANCH   1   4
BRANCH   1  18
ATOM     18  C   UNL     1       3.016   3.118  20.386  0.00  0.00    +0.000 C 
BRANCH  18  19
ATOM     19  C   UNL     1       3.900   2.243  19.526  0.00  0.00    +0.000 C 
BRANCH  19  21
ATOM     20  N   UNL     1       4.698   3.096  17.385  0.00  0.00    +0.000 N 
ATOM     21  C   UNL     1       4.839   3.150  18.769  0.00  0.00    +0.000 C 
ATOM     22  O   UNL     1       5.554   3.898  19.404  0.00  0.00    +0.000 OA
ATOM     23  H   UNL     1       3.986   2.495  16.985  0.00  0.00    +0.000 HD
BRANCH  20  26
ATOM     24  C   UNL     1       7.043   5.650  15.960  0.00  0.00    +0.000 A 
ATOM     25  C   UNL     1       6.215   4.967  16.859  0.00  0.00    +0.000 A 
ATOM     26  C   UNL     1       5.481   3.846  16.468  0.00  0.00    +0.000 A 
ATOM     27  C   UNL     1       5.559   3.435  15.136  0.00  0.00    +0.000 A 
ATOM     28  C   UNL     1       6.392   4.103  14.225  0.00  0.00    +0.000 A 
ATOM     29  C   UNL     1       7.135   5.207  14.646  0.00  0.00    +0.000 A 
BRANCH  24  31
ATOM     30  C   UNL     1       7.016   7.501  17.442  0.00  0.00    +0.000 C 
ATOM     31  O   UNL     1       7.725   6.701  16.506  0.00  0.00    +0.000 OA
ENDBRANCH  24  31
BRANCH  28  32
ATOM     32  O   UNL     1       6.413   3.565  12.965  0.00  0.00    +0.000 OA
ATOM     33  C   UNL     1       5.161   3.413  12.303  0.00  0.00    +0.000 C 
ENDBRANCH  28  32
ENDBRANCH  20  26
ENDBRANCH  19  21
ENDBRANCH  18  19
ENDBRANCH   1  18
TORSDOF 7
ENDMDL
MODEL 3
REMARK VINA RESULT:      -8.2      1.091      1.176
REMARK  Name = 
REMARK  11 active torsions:
REMARK  status: ('A' for Active; 'I' for Inactive)
REMARK    1  A    between atoms: C_1  and  O_2
REMARK    2  A    between atoms: O_2  and  C_3
REMARK    3  A    between atoms: C_5  and  N_6
REMARK    4  A    between atoms: C_7  and  C_9
REMARK    5  A    between atoms: C_9  and  C_10
REMARK    6  A    between atoms: C_10  and  S_11
REMARK    7  A    between atoms: S_11  and  C_14
REMARK    8  A    between atoms: N_20  and  C_21
REMARK    9  A    between atoms: N_26  and  C_27
REMARK   10  A    between atoms: C_29  and  O_30
REMARK   11  A    between atoms: O_30  and  C_31
REMARK                            x       y       z     vdW  Elec       q    Type
REMARK                         _______ _______ _______ _____ _____    ______ ____
ROOT
ATOM      1  S   UNL     1       5.984   5.899  15.994  0.00  0.00    +0.000 S 
ATOM      2  O   UNL     1       5.379   7.066  15.371  0.00  0.00    +0.000 OA
ATOM      3  O   UNL     1       6.137   4.662  15.260  0.00  0.00    +0.000 OA
ENDROOT
BRANCH   1   4
ATOM      4  C   UNL     1       5.032   5.546  17.459  0.00  0.00    +0.000 A 
ATOM      5  C   UNL     1       4.090   6.464  17.951  0.00  0.00    +0.000 A 
ATOM      6  C   UNL     1       3.084   6.015  18.829  0.00  0.00    +0.000 A 
ATOM      7  C   UNL     1       3.091   4.670  19.203  0.00  0.00    +0.000 A 
ATOM      8  C   UNL     1       4.247   3.902  18.996  0.00  0.00    +0.000 A 
ATOM      9  C   UNL     1       5.155   4.278  18.019  0.00  0.00    +0.000 A 
ATOM     10  N   UNL     1       4.235   2.559  19.478  0.00  0.00    +0.000 N 
ATOM     11  C   UNL     1       3.962   2.482  20.940  0.00  0.00    +0.000 C 
ATOM     12  C   UNL     1       3.240   1.929  18.706  0.00  0.00    +0.000 A 
ATOM     13  O   UNL     1       3.450   1.174  17.775  0.00  0.00    +0.000 OA
ATOM     14  C   UNL     1       1.849   2.548  19.031  0.00  0.00    +0.000 A 
ATOM     15  O   UNL     1       0.863   1.836  19.113  0.00  0.00    +0.000 OA
ATOM     16  N   UNL     1       1.892   3.915  19.431  0.00  0.00    +0.000 N 
ATOM     17  C   UNL     1       0.925   4.304  20.421  0.00  0.00    +0.000 C 
ENDBRANCH   1   4
BRANCH   1  18
ATOM     18  C   UNL     1       7.568   6.385  16.626  0.00  0.00    +0.000 C 
BRANCH  18  19
ATOM     19  C   UNL     1       7.503   6.896  18.047  0.00  0.00    +0.000 C 
BRANCH  19  21
ATOM     20  N   UNL     1       8.805   8.748  18.957  0.00  0.00    +0.000 N 
ATOM     21  C   UNL     1       7.849   8.365  18.020  0.00  0.00    +0.000 C 
ATOM     22  O   UNL     1       7.356   9.056  17.152  0.00  0.00    +0.000 OA
ATOM     23  H   UNL     1       9.213   8.043  19.561  0.00  0.00    +0.000 HD
BRANCH  20  26
ATOM     24  C   UNL     1       9.828  11.987  20.539  0.00  0.00    +0.000 A 
ATOM     25  C   UNL     1       9.290  10.706  20.373  0.00  0.00    +0.000 A 
ATOM     26  C   UNL     1       9.275  10.076  19.128  0.00  0.00    +0.000 A 
ATOM     27  C   UNL     1       9.780  10.772  18.027  0.00  0.00    +0.000 A 
ATOM     28  C   UNL     1      10.332  12.054  18.180  0.00  0.00    +0.000 A 
ATOM     29  C   UNL     1      10.358  12.653  19.440  0.00  0.00    +0.000 A 
BRANCH  24  31
ATOM     30  C   UNL     1       9.415  13.803  22.008  0.00  0.00    +0.000 C 
ATOM     31  O   UNL     1       9.804  12.449  21.826  0.00  0.00    +0.000 OA
ENDBRANCH  24  31
BRANCH  28  32
ATOM     32  O   UNL     1      10.837  12.602  17.029  0.00  0.00    +0.000 OA
ATOM     33  C   UNL     1      11.443  13.887  17.135  0.00  0.00    +0.000 C 
ENDBRANCH  28  32
ENDBRANCH  20  26
ENDBRANCH  19  21
ENDBRANCH  18  19
ENDBRANCH   1  18
TORSDOF 7
ENDMDL
MODEL 4
REMARK VINA RESULT:      -8.0      1.176      2.376
REMARK  Name = 
REMARK  11 active torsions:
REMARK  status: ('A' for Active; 'I' for Inactive)
REMARK    1  A    between atoms: C_1  and  O_2
REMARK    2  A    between atoms: O_2  and  C_3
REMARK    3  A    between atoms: C_5  and  N_6
REMARK    4  A    between atoms: C_7  and  C_9
REMARK    5  A    between atoms: C_9  and  C_10
REMARK    6  A    between atoms: C_10  and  S_11
REMARK    7  A    between atoms: S_11  and  C_14
REMARK    8  A    between atoms: N_20  and  C_21
REMARK    9  A    between atoms: N_26  and  C_27
REMARK   10  A    between atoms: C_29  and  O_30
REMARK   11  A    between atoms: O_30  and  C_31
REMARK                            x       y       z     vdW  Elec       q    Type
REMARK                         _______ _______ _______ _____ _____    ______ ____
ROOT
ATOM      1  S   UNL     1       5.922   5.900  16.061  0.00  0.00    +0.000 S 
ATOM      2  O   UNL     1       5.415   7.123  15.459  0.00  0.00    +0.000 OA
ATOM      3  O   UNL     1       5.974   4.668  15.305  0.00  0.00    +0.000 OA
ENDROOT
BRANCH   1   4
ATOM      4  C   UNL     1       4.944   5.600  17.520  0.00  0.00    +0.000 A 
ATOM      5  C   UNL     1       4.100   6.593  18.044  0.00  0.00    +0.000 A 
ATOM      6  C   UNL     1       3.057   6.221  18.915  0.00  0.00    +0.000 A 
ATOM      7  C   UNL     1       2.929   4.872  19.248  0.00  0.00    +0.000 A 
ATOM      8  C   UNL     1       4.002   3.998  19.012  0.00  0.00    +0.000 A 
ATOM      9  C   UNL     1       4.940   4.310  18.042  0.00  0.00    +0.000 A 
ATOM     10  N   UNL     1       3.855   2.649  19.454  0.00  0.00    +0.000 N 
ATOM     11  C   UNL     1       3.580   2.557  20.915  0.00  0.00    +0.000 C 
ATOM     12  C   UNL     1       2.800   2.146  18.669  0.00  0.00    +0.000 A 
ATOM     13  O   UNL     1       2.930   1.402  17.715  0.00  0.00    +0.000 OA
ATOM     14  C   UNL     1       1.480   2.892  19.021  0.00  0.00    +0.000 A 
ATOM     15  O   UNL     1       0.427   2.280  19.087  0.00  0.00    +0.000 OA
ATOM     16  N   UNL     1       1.661   4.235  19.460  0.00  0.00    +0.000 N 
ATOM     17  C   UNL     1       0.740   4.689  20.467  0.00  0.00    +0.000 C 
ENDBRANCH   1   4
BRANCH   1  18
ATOM     18  C   UNL     1       7.541   6.243  16.700  0.00  0.00    +0.000 C 
BRANCH  18  19
ATOM     19  C   UNL     1       7.513   6.795  18.107  0.00  0.00    +0.000 C 
BRANCH  19  21
ATOM     20  N   UNL     1       8.783   8.676  19.001  0.00  0.00    +0.000 N 
ATOM     21  C   UNL     1       7.878   8.258  18.029  0.00  0.00    +0.000 C 
ATOM     22  O   UNL     1       7.444   8.911  17.103  0.00  0.00    +0.000 OA
ATOM     23  H   UNL     1       9.147   7.997  19.660  0.00  0.00    +0.000 HD
BRANCH  20  26
ATOM     24  C   UNL     1      10.057  12.103  18.176  0.00  0.00    +0.000 A 
ATOM     25  C   UNL     1       9.664  10.767  18.037  0.00  0.00    +0.000 A 
ATOM     26  C   UNL     1       9.260  10.007  19.135  0.00  0.00    +0.000 A 
ATOM     27  C   UNL     1       9.292  10.600  20.399  0.00  0.00    +0.000 A 
ATOM     28  C   UNL     1       9.675  11.941  20.554  0.00  0.00    +0.000 A 
ATOM     29  C   UNL     1      10.051  12.688  19.437  0.00  0.00    +0.000 A 
BRANCH  24  31
ATOM     30  C   UNL     1      11.271  13.830  17.093  0.00  0.00    +0.000 C 
ATOM     31  O   UNL     1      10.386  12.722  17.002  0.00  0.00    +0.000 OA
ENDBRANCH  24  31
BRANCH  28  32
ATOM     32  O   UNL     1       9.613  12.411  21.840  0.00  0.00    +0.000 OA
ATOM     33  C   UNL     1       9.450  13.816  22.009  0.00  0.00    +0.000 C 
ENDBRANCH  28  32
ENDBRANCH  20  26
ENDBRANCH  19  21
ENDBRANCH  18  19
ENDBRANCH   1  18
TORSDOF 7
ENDMDL
MODEL 5
REMARK VINA RESULT:      -8.0      7.569     10.867
REMARK  Name = 
REMARK  11 active torsions:
REMARK  status: ('A' for Active; 'I' for Inactive)
REMARK    1  A    between atoms: C_1  and  O_2
REMARK    2  A    between atoms: O_2  and  C_3
REMARK    3  A    between atoms: C_5  and  N_6
REMARK    4  A    between atoms: C_7  and  C_9
REMARK    5  A    between atoms: C_9  and  C_10
REMARK    6  A    between atoms: C_10  and  S_11
REMARK    7  A    between atoms: S_11  and  C_14
REMARK    8  A    between atoms: N_20  and  C_21
REMARK    9  A    between atoms: N_26  and  C_27
REMARK   10  A    between atoms: C_29  and  O_30
REMARK   11  A    between atoms: O_30  and  C_31
REMARK                            x       y       z     vdW  Elec       q    Type
REMARK                         _______ _______ _______ _____ _____    ______ ____
ROOT
ATOM      1  S   UNL     1      -0.178  11.012  19.478  0.00  0.00    +0.000 S 
ATOM      2  O   UNL     1      -0.270  10.468  20.823  0.00  0.00    +0.000 OA
ATOM      3  O   UNL     1       0.752  12.077  19.171  0.00  0.00    +0.000 OA
ENDROOT
BRANCH   1   4
ATOM      4  C   UNL     1      -1.810  11.575  19.037  0.00  0.00    +0.000 A 
ATOM      5  C   UNL     1      -2.497  11.023  17.943  0.00  0.00    +0.000 A 
ATOM      6  C   UNL     1      -3.896  11.172  17.862  0.00  0.00    +0.000 A 
ATOM      7  C   UNL     1      -4.539  11.899  18.865  0.00  0.00    +0.000 A 
ATOM      8  C   UNL     1      -3.784  12.734  19.704  0.00  0.00    +0.000 A 
ATOM      9  C   UNL     1      -2.435  12.480  19.890  0.00  0.00    +0.000 A 
ATOM     10  N   UNL     1      -4.497  13.525  20.652  0.00  0.00    +0.000 N 
ATOM     11  C   UNL     1      -5.505  14.413  20.008  0.00  0.00    +0.000 C 
ATOM     12  C   UNL     1      -5.081  12.579  21.515  0.00  0.00    +0.000 A 
ATOM     13  O   UNL     1      -4.681  12.311  22.634  0.00  0.00    +0.000 OA
ATOM     14  C   UNL     1      -6.132  11.733  20.738  0.00  0.00    +0.000 A 
ATOM     15  O   UNL     1      -7.185  11.422  21.268  0.00  0.00    +0.000 OA
ATOM     16  N   UNL     1      -5.849  11.574  19.351  0.00  0.00    +0.000 N 
ATOM     17  C   UNL     1      -6.995  11.538  18.483  0.00  0.00    +0.000 C 
ENDBRANCH   1   4
BRANCH   1  18
ATOM     18  C   UNL     1       0.118   9.661  18.367  0.00  0.00    +0.000 C 
BRANCH  18  19
ATOM     19  C   UNL     1       1.584   9.476  18.046  0.00  0.00    +0.000 C 
BRANCH  19  21
ATOM     20  N   UNL     1       2.688   7.303  17.941  0.00  0.00    +0.000 N 
ATOM     21  C   UNL     1       2.053   8.231  18.761  0.00  0.00    +0.000 C 
ATOM     22  O   UNL     1       1.928   8.180  19.968  0.00  0.00    +0.000 OA
ATOM     23  H   UNL     1       2.815   7.519  16.958  0.00  0.00    +0.000 HD
BRANCH  20  26
ATOM     24  C   UNL     1       5.053   4.592  18.991  0.00  0.00    +0.000 A 
ATOM     25  C   UNL     1       4.566   5.799  18.478  0.00  0.00    +0.000 A 
ATOM     26  C   UNL     1       3.197   6.054  18.386  0.00  0.00    +0.000 A 
ATOM     27  C   UNL     1       2.308   5.054  18.784  0.00  0.00    +0.000 A 
ATOM     28  C   UNL     1       2.781   3.841  19.310  0.00  0.00    +0.000 A 
ATOM     29  C   UNL     1       4.154   3.619  19.416  0.00  0.00    +0.000 A 
BRANCH  24  31
ATOM     30  C   UNL     1       7.130   4.916  17.893  0.00  0.00    +0.000 C 
ATOM     31  O   UNL     1       6.416   4.512  19.054  0.00  0.00    +0.000 OA
ENDBRANCH  24  31
BRANCH  28  32
ATOM     32  O   UNL     1       1.802   2.968  19.709  0.00  0.00    +0.000 OA
ATOM     33  C   UNL     1       0.815   2.615  18.745  0.00  0.00    +0.000 C 
ENDBRANCH  28  32
ENDBRANCH  20  26
ENDBRANCH  19  21
ENDBRANCH  18  19
ENDBRANCH   1  18
TORSDOF 7
ENDMDL
MODEL 6
REMARK VINA RESULT:      -7.8      7.768     11.006
REMARK  Name = 
REMARK  11 active torsions:
REMARK  status: ('A' for Active; 'I' for Inactive)
REMARK    1  A    between atoms: C_1  and  O_2
REMARK    2  A    between atoms: O_2  and  C_3
REMARK    3  A    between atoms: C_5  and  N_6
REMARK    4  A    between atoms: C_7  and  C_9
REMARK    5  A    between atoms: C_9  and  C_10
REMARK    6  A    between atoms: C_10  and  S_11
REMARK    7  A    between atoms: S_11  and  C_14
REMARK    8  A    between atoms: N_20  and  C_21
REMARK    9  A    between atoms: N_26  and  C_27
REMARK   10  A    between atoms: C_29  and  O_30
REMARK   11  A    between atoms: O_30  and  C_31
REMARK                            x       y       z     vdW  Elec       q    Type
REMARK                         _______ _______ _______ _____ _____    ______ ____
ROOT
ATOM      1  S   UNL     1      -0.003  11.276  21.584  0.00  0.00    +0.000 S 
ATOM      2  O   UNL     1      -0.426  11.113  22.966  0.00  0.00    +0.000 OA
ATOM      3  O   UNL     1       1.165  12.063  21.255  0.00  0.00    +0.000 OA
ENDROOT
BRANCH   1   4
ATOM      4  C   UNL     1      -1.387  11.965  20.700  0.00  0.00    +0.000 A 
ATOM      5  C   UNL     1      -1.671  11.577  19.379  0.00  0.00    +0.000 A 
ATOM      6  C   UNL     1      -2.959  11.803  18.857  0.00  0.00    +0.000 A 
ATOM      7  C   UNL     1      -3.897  12.440  19.671  0.00  0.00    +0.000 A 
ATOM      8  C   UNL     1      -3.461  13.135  20.810  0.00  0.00    +0.000 A 
ATOM      9  C   UNL     1      -2.256  12.796  21.402  0.00  0.00    +0.000 A 
ATOM     10  N   UNL     1      -4.447  13.846  21.559  0.00  0.00    +0.000 N 
ATOM     11  C   UNL     1      -5.172  14.850  20.732  0.00  0.00    +0.000 C 
ATOM     12  C   UNL     1      -5.294  12.836  22.052  0.00  0.00    +0.000 A 
ATOM     13  O   UNL     1      -5.295  12.421  23.197  0.00  0.00    +0.000 OA
ATOM     14  C   UNL     1      -6.028  12.138  20.870  0.00  0.00    +0.000 A 
ATOM     15  O   UNL     1      -7.200  11.820  20.977  0.00  0.00    +0.000 OA
ATOM     16  N   UNL     1      -5.296  12.126  19.648  0.00  0.00    +0.000 N 
ATOM     17  C   UNL     1      -6.084  12.247  18.451  0.00  0.00    +0.000 C 
ENDBRANCH   1   4
BRANCH   1  18
ATOM     18  C   UNL     1       0.186   9.658  20.882  0.00  0.00    +0.000 C 
BRANCH  18  19
ATOM     19  C   UNL     1       1.256   9.602  19.816  0.00  0.00    +0.000 C 
BRANCH  19  21
ATOM     20  N   UNL     1       2.287   7.841  18.480  0.00  0.00    +0.000 N 
ATOM     21  C   UNL     1       1.713   8.167  19.705  0.00  0.00    +0.000 C 
ATOM     22  O   UNL     1       1.634   7.461  20.689  0.00  0.00    +0.000 OA
ATOM     23  H   UNL     1       2.383   8.561  17.772  0.00  0.00    +0.000 HD
BRANCH  20  26
ATOM     24  C   UNL     1       2.420   4.185  17.662  0.00  0.00    +0.000 A 
ATOM     25  C   UNL     1       1.940   5.434  18.074  0.00  0.00    +0.000 A 
ATOM     26  C   UNL     1       2.775   6.551  18.139  0.00  0.00    +0.000 A 
ATOM     27  C   UNL     1       4.124   6.390  17.818  0.00  0.00    +0.000 A 
ATOM     28  C   UNL     1       4.618   5.146  17.394  0.00  0.00    +0.000 A 
ATOM     29  C   UNL     1       3.759   4.050  17.313  0.00  0.00    +0.000 A 
BRANCH  24  31
ATOM     30  C   UNL     1       1.133   2.583  18.846  0.00  0.00    +0.000 C 
ATOM     31  O   UNL     1       1.470   3.203  17.612  0.00  0.00    +0.000 OA
ENDBRANCH  24  31
BRANCH  28  32
ATOM     32  O   UNL     1       5.948   5.140  17.062  0.00  0.00    +0.000 OA
ATOM     33  C   UNL     1       6.368   4.191  16.086  0.00  0.00    +0.000 C 
ENDBRANCH  28  32
ENDBRANCH  20  26
ENDBRANCH  19  21
ENDBRANCH  18  19
ENDBRANCH   1  18
TORSDOF 7
ENDMDL
MODEL 7
REMARK VINA RESULT:      -7.8      7.650     11.009
REMARK  Name = 
REMARK  11 active torsions:
REMARK  status: ('A' for Active; 'I' for Inactive)
REMARK    1  A    between atoms: C_1  and  O_2
REMARK    2  A    between atoms: O_2  and  C_3
REMARK    3  A    between atoms: C_5  and  N_6
REMARK    4  A    between atoms: C_7  and  C_9
REMARK    5  A    between atoms: C_9  and  C_10
REMARK    6  A    between atoms: C_10  and  S_11
REMARK    7  A    between atoms: S_11  and  C_14
REMARK    8  A    between atoms: N_20  and  C_21
REMARK    9  A    between atoms: N_26  and  C_27
REMARK   10  A    between atoms: C_29  and  O_30
REMARK   11  A    between atoms: O_30  and  C_31
REMARK                            x       y       z     vdW  Elec       q    Type
REMARK                         _______ _______ _______ _____ _____    ______ ____
ROOT
ATOM      1  S   UNL     1       0.148  10.882  21.592  0.00  0.00    +0.000 S 
ATOM      2  O   UNL     1      -0.228  10.750  22.991  0.00  0.00    +0.000 OA
ATOM      3  O   UNL     1       1.391  11.520  21.217  0.00  0.00    +0.000 OA
ENDROOT
BRANCH   1   4
ATOM      4  C   UNL     1      -1.176  11.758  20.783  0.00  0.00    +0.000 A 
ATOM      5  C   UNL     1      -1.505  11.498  19.442  0.00  0.00    +0.000 A 
ATOM      6  C   UNL     1      -2.772  11.878  18.958  0.00  0.00    +0.000 A 
ATOM      7  C   UNL     1      -3.640  12.534  19.832  0.00  0.00    +0.000 A 
ATOM      8  C   UNL     1      -3.133  13.099  21.013  0.00  0.00    +0.000 A 
ATOM      9  C   UNL     1      -1.958  12.608  21.559  0.00  0.00    +0.000 A 
ATOM     10  N   UNL     1      -4.043  13.837  21.827  0.00  0.00    +0.000 N 
ATOM     11  C   UNL     1      -4.681  14.963  21.089  0.00  0.00    +0.000 C 
ATOM     12  C   UNL     1      -4.974  12.873  22.258  0.00  0.00    +0.000 A 
ATOM     13  O   UNL     1      -5.003  12.376  23.369  0.00  0.00    +0.000 OA
ATOM     14  C   UNL     1      -5.779  12.336  21.039  0.00  0.00    +0.000 A 
ATOM     15  O   UNL     1      -6.975  12.117  21.140  0.00  0.00    +0.000 OA
ATOM     16  N   UNL     1      -5.063  12.350  19.808  0.00  0.00    +0.000 N 
ATOM     17  C   UNL     1      -5.847  12.632  18.635  0.00  0.00    +0.000 C 
ENDBRANCH   1   4
BRANCH   1  18
ATOM     18  C   UNL     1       0.095   9.267  20.863  0.00  0.00    +0.000 C 
BRANCH  18  19
ATOM     19  C   UNL     1       1.207   9.036  19.864  0.00  0.00    +0.000 C 
BRANCH  19  21
ATOM     20  N   UNL     1       2.560   7.161  19.088  0.00  0.00    +0.000 N 
ATOM     21  C   UNL     1       1.773   7.661  20.122  0.00  0.00    +0.000 C 
ATOM     22  O   UNL     1       1.582   7.155  21.209  0.00  0.00    +0.000 OA
ATOM     23  H   UNL     1       2.720   7.735  18.268  0.00  0.00    +0.000 HD
BRANCH  20  26
ATOM     24  C   UNL     1       5.172   4.473  19.148  0.00  0.00    +0.000 A 
ATOM     25  C   UNL     1       4.570   5.734  19.059  0.00  0.00    +0.000 A 
ATOM     26  C   UNL     1       3.183   5.885  19.098  0.00  0.00    +0.000 A 
ATOM     27  C   UNL     1       2.394   4.737  19.190  0.00  0.00    +0.000 A 
ATOM     28  C   UNL     1       2.983   3.466  19.290  0.00  0.00    +0.000 A 
ATOM     29  C   UNL     1       4.372   3.343  19.274  0.00  0.00    +0.000 A 
BRANCH  24  31
ATOM     30  C   UNL     1       7.149   5.630  18.533  0.00  0.00    +0.000 C 
ATOM     31  O   UNL     1       6.539   4.497  19.136  0.00  0.00    +0.000 OA
ENDBRANCH  24  31
BRANCH  28  32
ATOM     32  O   UNL     1       2.095   2.431  19.425  0.00  0.00    +0.000 OA
ATOM     33  C   UNL     1       0.835   2.567  18.774  0.00  0.00    +0.000 C 
ENDBRANCH  28  32
ENDBRANCH  20  26
ENDBRANCH  19  21
ENDBRANCH  18  19
ENDBRANCH   1  18
TORSDOF 7
ENDMDL
MODEL 8
REMARK VINA RESULT:      -7.7      6.408      9.789
REMARK  Name = 
REMARK  11 active torsions:
REMARK  status: ('A' for Active; 'I' for Inactive)
REMARK    1  A    between atoms: C_1  and  O_2
REMARK    2  A    between atoms: O_2  and  C_3
REMARK    3  A    between atoms: C_5  and  N_6
REMARK    4  A    between atoms: C_7  and  C_9
REMARK    5  A    between atoms: C_9  and  C_10
REMARK    6  A    between atoms: C_10  and  S_11
REMARK    7  A    between atoms: S_11  and  C_14
REMARK    8  A    between atoms: N_20  and  C_21
REMARK    9  A    between atoms: N_26  and  C_27
REMARK   10  A    between atoms: C_29  and  O_30
REMARK   11  A    between atoms: O_30  and  C_31
REMARK                            x       y       z     vdW  Elec       q    Type
REMARK                         _______ _______ _______ _____ _____    ______ ____
ROOT
ATOM      1  S   UNL     1       1.110   8.535  21.220  0.00  0.00    +0.000 S 
ATOM      2  O   UNL     1       1.994   8.463  22.372  0.00  0.00    +0.000 OA
ATOM      3  O   UNL     1      -0.327   8.493  21.385  0.00  0.00    +0.000 OA
ENDROOT
BRANCH   1   4
ATOM      4  C   UNL     1       1.569   7.199  20.134  0.00  0.00    +0.000 A 
ATOM      5  C   UNL     1       2.451   7.408  19.060  0.00  0.00    +0.000 A 
ATOM      6  C   UNL     1       3.111   6.304  18.486  0.00  0.00    +0.000 A 
ATOM      7  C   UNL     1       2.828   5.034  18.992  0.00  0.00    +0.000 A 
ATOM      8  C   UNL     1       1.684   4.845  19.782  0.00  0.00    +0.000 A 
ATOM      9  C   UNL     1       1.135   5.919  20.463  0.00  0.00    +0.000 A 
ATOM     10  N   UNL     1       1.390   3.512  20.198  0.00  0.00    +0.000 N 
ATOM     11  C   UNL     1       1.240   2.577  19.047  0.00  0.00    +0.000 C 
ATOM     12  C   UNL     1       2.468   3.171  21.036  0.00  0.00    +0.000 A 
ATOM     13  O   UNL     1       2.426   3.138  22.253  0.00  0.00    +0.000 OA
ATOM     14  C   UNL     1       3.784   3.115  20.207  0.00  0.00    +0.000 A 
ATOM     15  O   UNL     1       4.610   2.243  20.422  0.00  0.00    +0.000 OA
ATOM     16  N   UNL     1       3.811   3.992  19.085  0.00  0.00    +0.000 N 
ATOM     17  C   UNL     1       4.511   3.502  17.928  0.00  0.00    +0.000 C 
ENDBRANCH   1   4
BRANCH   1  18
ATOM     18  C   UNL     1       1.535   9.992  20.303  0.00  0.00    +0.000 C 
BRANCH  18  19
ATOM     19  C   UNL     1       0.658  11.176  20.643  0.00  0.00    +0.000 C 
BRANCH  19  21
ATOM     20  N   UNL     1      -1.397  10.776  19.391  0.00  0.00    +0.000 N 
ATOM     21  C   UNL     1      -0.194  11.474  19.432  0.00  0.00    +0.000 C 
ATOM     22  O   UNL     1       0.180  12.337  18.664  0.00  0.00    +0.000 OA
ATOM     23  H   UNL     1      -1.633  10.154  20.156  0.00  0.00    +0.000 HD
BRANCH  20  26
ATOM     24  C   UNL     1      -3.185  10.259  16.138  0.00  0.00    +0.000 A 
ATOM     25  C   UNL     1      -2.200  10.209  17.130  0.00  0.00    +0.000 A 
ATOM     26  C   UNL     1      -2.351  10.880  18.344  0.00  0.00    +0.000 A 
ATOM     27  C   UNL     1      -3.502  11.646  18.539  0.00  0.00    +0.000 A 
ATOM     28  C   UNL     1      -4.504  11.698  17.557  0.00  0.00    +0.000 A 
ATOM     29  C   UNL     1      -4.341  10.998  16.362  0.00  0.00    +0.000 A 
BRANCH  24  31
ATOM     30  C   UNL     1      -3.333  10.053  13.780  0.00  0.00    +0.000 C 
ATOM     31  O   UNL     1      -2.906   9.516  15.024  0.00  0.00    +0.000 OA
ENDBRANCH  24  31
BRANCH  28  32
ATOM     32  O   UNL     1      -5.603  12.444  17.897  0.00  0.00    +0.000 OA
ATOM     33  C   UNL     1      -6.320  12.048  19.063  0.00  0.00    +0.000 C 
ENDBRANCH  28  32
ENDBRANCH  20  26
ENDBRANCH  19  21
ENDBRANCH  18  19
ENDBRANCH   1  18
TORSDOF 7
ENDMDL
MODEL 9
REMARK VINA RESULT:      -7.7      7.783     11.011
REMARK  Name = 
REMARK  11 active torsions:
REMARK  status: ('A' for Active; 'I' for Inactive)
REMARK    1  A    between atoms: C_1  and  O_2
REMARK    2  A    between atoms: O_2  and  C_3
REMARK    3  A    between atoms: C_5  and  N_6
REMARK    4  A    between atoms: C_7  and  C_9
REMARK    5  A    between atoms: C_9  and  C_10
REMARK    6  A    between atoms: C_10  and  S_11
REMARK    7  A    between atoms: S_11  and  C_14
REMARK    8  A    between atoms: N_20  and  C_21
REMARK    9  A    between atoms: N_26  and  C_27
REMARK   10  A    between atoms: C_29  and  O_30
REMARK   11  A    between atoms: O_30  and  C_31
REMARK                            x       y       z     vdW  Elec       q    Type
REMARK                         _______ _______ _______ _____ _____    ______ ____
ROOT
ATOM      1  S   UNL     1      -0.042   9.608  22.543  0.00  0.00    +0.000 S 
ATOM      2  O   UNL     1      -0.886   8.503  22.117  0.00  0.00    +0.000 OA
ATOM      3  O   UNL     1       0.429   9.696  23.908  0.00  0.00    +0.000 OA
ENDROOT
BRANCH   1   4
ATOM      4  C   UNL     1      -0.934  11.107  22.179  0.00  0.00    +0.000 A 
ATOM      5  C   UNL     1      -1.161  11.512  20.853  0.00  0.00    +0.000 A 
ATOM      6  C   UNL     1      -2.188  12.438  20.583  0.00  0.00    +0.000 A 
ATOM      7  C   UNL     1      -2.918  12.944  21.661  0.00  0.00    +0.000 A 
ATOM      8  C   UNL     1      -2.411  12.806  22.962  0.00  0.00    +0.000 A 
ATOM      9  C   UNL     1      -1.512  11.790  23.245  0.00  0.00    +0.000 A 
ATOM     10  N   UNL     1      -3.148  13.419  24.019  0.00  0.00    +0.000 N 
ATOM     11  C   UNL     1      -3.324  14.884  23.812  0.00  0.00    +0.000 C 
ATOM     12  C   UNL     1      -4.370  12.722  24.031  0.00  0.00    +0.000 A 
ATOM     13  O   UNL     1      -4.682  11.869  24.842  0.00  0.00    +0.000 OA
ATOM     14  C   UNL     1      -5.146  12.994  22.709  0.00  0.00    +0.000 A 
ATOM     15  O   UNL     1      -6.356  13.153  22.728  0.00  0.00    +0.000 OA
ATOM     16  N   UNL     1      -4.316  13.255  21.582  0.00  0.00    +0.000 N 
ATOM     17  C   UNL     1      -4.832  14.209  20.637  0.00  0.00    +0.000 C 
ENDBRANCH   1   4
BRANCH   1  18
ATOM     18  C   UNL     1       1.356   9.671  21.453  0.00  0.00    +0.000 C 
BRANCH  18  19
ATOM     19  C   UNL     1       1.024   9.234  20.044  0.00  0.00    +0.000 C 
BRANCH  19  21
ATOM     20  N   UNL     1       2.237   7.793  18.495  0.00  0.00    +0.000 N 
ATOM     21  C   UNL     1       1.746   7.933  19.790  0.00  0.00    +0.000 C 
ATOM     22  O   UNL     1       1.918   7.178  20.725  0.00  0.00    +0.000 OA
ATOM     23  H   UNL     1       2.108   8.551  17.834  0.00  0.00    +0.000 HD
BRANCH  20  26
ATOM     24  C   UNL     1       4.921   5.592  17.081  0.00  0.00    +0.000 A 
ATOM     25  C   UNL     1       4.216   6.735  17.474  0.00  0.00    +0.000 A 
ATOM     26  C   UNL     1       2.934   6.651  18.020  0.00  0.00    +0.000 A 
ATOM     27  C   UNL     1       2.344   5.390  18.133  0.00  0.00    +0.000 A 
ATOM     28  C   UNL     1       3.042   4.234  17.752  0.00  0.00    +0.000 A 
ATOM     29  C   UNL     1       4.332   4.342  17.232  0.00  0.00    +0.000 A 
BRANCH  24  31
ATOM     30  C   UNL     1       6.661   4.956  15.599  0.00  0.00    +0.000 C 
ATOM     31  O   UNL     1       6.178   5.838  16.604  0.00  0.00    +0.000 OA
ENDBRANCH  24  31
BRANCH  28  32
ATOM     32  O   UNL     1       2.367   3.060  17.963  0.00  0.00    +0.000 OA
ATOM     33  C   UNL     1       3.119   1.853  17.873  0.00  0.00    +0.000 C 
ENDBRANCH  28  32
ENDBRANCH  20  26
ENDBRANCH  19  21
ENDBRANCH  18  19
ENDBRANCH   1  18
TORSDOF 7
ENDMDL
