MODEL 1
REMARK VINA RESULT:      -8.4      0.000      0.000
REMARK  Name = 
REMARK  6 active torsions:
REMARK  status: ('A' for Active; 'I' for Inactive)
REMARK    1  A    between atoms: C_2  and  C_3
REMARK    2  A    between atoms: C_2  and  O_16
REMARK    3  A    between atoms: C_3  and  C_4
REMARK    4  A    between atoms: C_4  and  N_5
REMARK    5  A    between atoms: O_16  and  C_17
REMARK    6  A    between atoms: C_17  and  N_18
REMARK                            x       y       z     vdW  Elec       q    Type
REMARK                         _______ _______ _______ _____ _____    ______ ____
ROOT
ATOM      1  O   UNL     1       7.030   5.866  17.490  0.00  0.00    +0.000 OA
ATOM      2  C   UNL     1       5.849   6.058  17.228  0.00  0.00    +0.000 C 
ENDROOT
BRANCH   2   3
ATOM      3  C   UNL     1       5.063   5.266  16.203  0.00  0.00    +0.000 C 
BRANCH   3   4
ATOM      4  C   UNL     1       5.009   3.792  16.596  0.00  0.00    +0.000 C 
BRANCH   4   5
ATOM      5  N   UNL     1       4.096   3.533  17.700  0.00  0.00    +0.000 N 
ATOM      6  C   UNL     1       4.475   3.441  19.013  0.00  0.00    +0.000 C 
ATOM      7  O   UNL     1       5.589   3.505  19.498  0.00  0.00    +0.000 OA
ATOM      8  C   UNL     1       3.253   3.234  19.792  0.00  0.00    +0.000 A 
ATOM      9  C   UNL     1       3.064   3.115  21.155  0.00  0.00    +0.000 A 
ATOM     10  C   UNL     1       1.753   2.930  21.607  0.00  0.00    +0.000 A 
ATOM     11  C   UNL     1       0.678   2.867  20.696  0.00  0.00    +0.000 A 
ATOM     12  C   UNL     1       0.895   2.993  19.321  0.00  0.00    +0.000 A 
ATOM     13  C   UNL     1       2.198   3.177  18.899  0.00  0.00    +0.000 A 
ATOM     14  C   UNL     1       2.745   3.351  17.554  0.00  0.00    +0.000 C 
ATOM     15  O   UNL     1       2.085   3.328  16.535  0.00  0.00    +0.000 OA
ENDBRANCH   4   5
ENDBRANCH   3   4
ENDBRANCH   2   3
BRANCH   2  16
ATOM     16  O   UNL     1       5.086   7.052  17.756  0.00  0.00    +0.000 OA
BRANCH  16  17
ATOM     17  C   UNL     1       3.749   7.158  17.241  0.00  0.00    +0.000 C 
BRANCH  17  18
ATOM     18  N   UNL     1       2.895   7.544  18.348  0.00  0.00    +0.000 N 
ATOM     19  N   UNL     1       2.783   6.665  19.391  0.00  0.00    +0.000 NA
ATOM     20  N   UNL     1       2.053   6.914  20.380  0.00  0.00    +0.000 NA
ATOM     21  C   UNL     1       1.344   8.121  20.438  0.00  0.00    +0.000 A 
ATOM     22  C   UNL     1       0.650   8.457  21.607  0.00  0.00    +0.000 A 
ATOM     23  C   UNL     1      -0.030   9.676  21.710  0.00  0.00    +0.000 A 
ATOM     24  C   UNL     1      -0.076  10.548  20.623  0.00  0.00    +0.000 A 
ATOM     25  C   UNL     1       0.582  10.210  19.443  0.00  0.00    +0.000 A 
ATOM     26  C   UNL     1       1.312   9.016  19.383  0.00  0.00    +0.000 A 
ATOM     27  C   UNL     1       2.138   8.689  18.235  0.00  0.00    +0.000 A 
ATOM     28  O   UNL     1       2.152   9.442  17.256  0.00  0.00    +0.000 OA
ENDBRANCH  17  18
ENDBRANCH  16  17
ENDBRANCH   2  16
TORSDOF 6
ENDMDL
MODEL 2
REMARK VINA RESULT:      -8.2      1.128      5.436
REMARK  Name = 
REMARK  6 active torsions:
REMARK  status: ('A' for Active; 'I' for Inactive)
REMARK    1  A    between atoms: C_2  and  C_3
REMARK    2  A    between atoms: C_2  and  O_16
REMARK    3  A    between atoms: C_3  and  C_4
REMARK    4  A    between atoms: C_4  and  N_5
REMARK    5  A    between atoms: O_16  and  C_17
REMARK    6  A    between atoms: C_17  and  N_18
REMARK                            x       y       z     vdW  Elec       q    Type
REMARK                         _______ _______ _______ _____ _____    ______ ____
ROOT
ATOM      1  O   UNL     1       6.787   6.333  16.467  0.00  0.00    +0.000 OA
ATOM      2  C   UNL     1       5.581   6.258  16.672  0.00  0.00    +0.000 C 
ENDROOT
BRANCH   2   3
ATOM      3  C   UNL     1       4.821   7.153  17.630  0.00  0.00    +0.000 C 
BRANCH   3   4
ATOM      4  C   UNL     1       3.317   6.977  17.442  0.00  0.00    +0.000 C 
BRANCH   4   5
ATOM      5  N   UNL     1       2.533   7.695  18.437  0.00  0.00    +0.000 N 
ATOM      6  C   UNL     1       2.250   7.220  19.689  0.00  0.00    +0.000 C 
ATOM      7  O   UNL     1       2.533   6.146  20.187  0.00  0.00    +0.000 OA
ATOM      8  C   UNL     1       1.497   8.269  20.379  0.00  0.00    +0.000 A 
ATOM      9  C   UNL     1       1.002   8.324  21.667  0.00  0.00    +0.000 A 
ATOM     10  C   UNL     1       0.321   9.486  22.044  0.00  0.00    +0.000 A 
ATOM     11  C   UNL     1       0.152  10.551  21.135  0.00  0.00    +0.000 A 
ATOM     12  C   UNL     1       0.665  10.473  19.837  0.00  0.00    +0.000 A 
ATOM     13  C   UNL     1       1.335   9.315  19.488  0.00  0.00    +0.000 A 
ATOM     14  C   UNL     1       1.987   8.936  18.235  0.00  0.00    +0.000 C 
ATOM     15  O   UNL     1       2.008   9.625  17.235  0.00  0.00    +0.000 OA
ENDBRANCH   4   5
ENDBRANCH   3   4
ENDBRANCH   2   3
BRANCH   2  16
ATOM     16  O   UNL     1       4.757   5.319  16.136  0.00  0.00    +0.000 OA
BRANCH  16  17
ATOM     17  C   UNL     1       5.097   3.951  16.416  0.00  0.00    +0.000 C 
BRANCH  17  18
ATOM     18  N   UNL     1       4.467   3.605  17.677  0.00  0.00    +0.000 N 
ATOM     19  N   UNL     1       5.287   3.386  18.749  0.00  0.00    +0.000 NA
ATOM     20  N   UNL     1       4.825   3.067  19.871  0.00  0.00    +0.000 NA
ATOM     21  C   UNL     1       3.440   2.945  20.046  0.00  0.00    +0.000 A 
ATOM     22  C   UNL     1       2.924   2.734  21.331  0.00  0.00    +0.000 A 
ATOM     23  C   UNL     1       1.542   2.652  21.542  0.00  0.00    +0.000 A 
ATOM     24  C   UNL     1       0.663   2.719  20.463  0.00  0.00    +0.000 A 
ATOM     25  C   UNL     1       1.165   2.894  19.176  0.00  0.00    +0.000 A 
ATOM     26  C   UNL     1       2.546   3.040  18.994  0.00  0.00    +0.000 A 
ATOM     27  C   UNL     1       3.109   3.376  17.698  0.00  0.00    +0.000 A 
ATOM     28  O   UNL     1       2.367   3.472  16.715  0.00  0.00    +0.000 OA
ENDBRANCH  17  18
ENDBRANCH  16  17
ENDBRANCH   2  16
TORSDOF 6
ENDMDL
MODEL 3
REMARK VINA RESULT:      -8.2      1.237      5.616
REMARK  Name = 
REMARK  6 active torsions:
REMARK  status: ('A' for Active; 'I' for Inactive)
REMARK    1  A    between atoms: C_2  and  C_3
REMARK    2  A    between atoms: C_2  and  O_16
REMARK    3  A    between atoms: C_3  and  C_4
REMARK    4  A    between atoms: C_4  and  N_5
REMARK    5  A    between atoms: O_16  and  C_17
REMARK    6  A    between atoms: C_17  and  N_18
REMARK                            x       y       z     vdW  Elec       q    Type
REMARK                         _______ _______ _______ _____ _____    ______ ____
ROOT
ATOM      1  O   UNL     1       5.318   6.553  15.343  0.00  0.00    +0.000 OA
ATOM      2  C   UNL     1       5.337   6.348  16.550  0.00  0.00    +0.000 C 
ENDROOT
BRANCH   2   3
ATOM      3  C   UNL     1       4.646   7.223  17.576  0.00  0.00    +0.000 C 
BRANCH   3   4
ATOM      4  C   UNL     1       3.141   6.968  17.565  0.00  0.00    +0.000 C 
BRANCH   4   5
ATOM      5  N   UNL     1       2.423   7.767  18.546  0.00  0.00    +0.000 N 
ATOM      6  C   UNL     1       1.968   9.040  18.325  0.00  0.00    +0.000 C 
ATOM      7  O   UNL     1       2.102   9.744  17.342  0.00  0.00    +0.000 OA
ATOM      8  C   UNL     1       1.256   9.450  19.537  0.00  0.00    +0.000 A 
ATOM      9  C   UNL     1       0.577  10.617  19.831  0.00  0.00    +0.000 A 
ATOM     10  C   UNL     1      -0.018  10.712  21.093  0.00  0.00    +0.000 A 
ATOM     11  C   UNL     1       0.080   9.653  22.019  0.00  0.00    +0.000 A 
ATOM     12  C   UNL     1       0.771   8.481  21.697  0.00  0.00    +0.000 A 
ATOM     13  C   UNL     1       1.349   8.410  20.444  0.00  0.00    +0.000 A 
ATOM     14  C   UNL     1       2.115   7.336  19.811  0.00  0.00    +0.000 C 
ATOM     15  O   UNL     1       2.398   6.285  20.349  0.00  0.00    +0.000 OA
ENDBRANCH   4   5
ENDBRANCH   3   4
ENDBRANCH   2   3
BRANCH   2  16
ATOM     16  O   UNL     1       6.040   5.356  17.161  0.00  0.00    +0.000 OA
BRANCH  16  17
ATOM     17  C   UNL     1       5.570   4.019  16.926  0.00  0.00    +0.000 C 
BRANCH  17  18
ATOM     18  N   UNL     1       4.754   3.647  18.067  0.00  0.00    +0.000 N 
ATOM     19  N   UNL     1       5.404   3.341  19.231  0.00  0.00    +0.000 NA
ATOM     20  N   UNL     1       4.775   2.995  20.259  0.00  0.00    +0.000 NA
ATOM     21  C   UNL     1       3.376   2.931  20.233  0.00  0.00    +0.000 A 
ATOM     22  C   UNL     1       2.674   2.687  21.420  0.00  0.00    +0.000 A 
ATOM     23  C   UNL     1       1.274   2.662  21.432  0.00  0.00    +0.000 A 
ATOM     24  C   UNL     1       0.560   2.819  20.245  0.00  0.00    +0.000 A 
ATOM     25  C   UNL     1       1.246   3.027  19.052  0.00  0.00    +0.000 A 
ATOM     26  C   UNL     1       2.644   3.115  19.072  0.00  0.00    +0.000 A 
ATOM     27  C   UNL     1       3.398   3.481  17.887  0.00  0.00    +0.000 A 
ATOM     28  O   UNL     1       2.808   3.657  16.816  0.00  0.00    +0.000 OA
ENDBRANCH  17  18
ENDBRANCH  16  17
ENDBRANCH   2  16
TORSDOF 6
ENDMDL
MODEL 4
REMARK VINA RESULT:      -8.1      1.185      1.758
REMARK  Name = 
REMARK  6 active torsions:
REMARK  status: ('A' for Active; 'I' for Inactive)
REMARK    1  A    between atoms: C_2  and  C_3
REMARK    2  A    between atoms: C_2  and  O_16
REMARK    3  A    between atoms: C_3  and  C_4
REMARK    4  A    between atoms: C_4  and  N_5
REMARK    5  A    between atoms: O_16  and  C_17
REMARK    6  A    between atoms: C_17  and  N_18
REMARK                            x       y       z     vdW  Elec       q    Type
REMARK                         _______ _______ _______ _____ _____    ______ ____
ROOT
ATOM      1  O   UNL     1       6.179   6.351  17.799  0.00  0.00    +0.000 OA
ATOM      2  C   UNL     1       5.152   6.272  17.136  0.00  0.00    +0.000 C 
ENDROOT
BRANCH   2   3
ATOM      3  C   UNL     1       4.924   5.258  16.033  0.00  0.00    +0.000 C 
BRANCH   3   4
ATOM      4  C   UNL     1       5.062   3.839  16.577  0.00  0.00    +0.000 C 
BRANCH   4   5
ATOM      5  N   UNL     1       4.137   3.555  17.664  0.00  0.00    +0.000 N 
ATOM      6  C   UNL     1       4.493   3.473  18.983  0.00  0.00    +0.000 C 
ATOM      7  O   UNL     1       5.596   3.564  19.489  0.00  0.00    +0.000 OA
ATOM      8  C   UNL     1       3.263   3.233  19.739  0.00  0.00    +0.000 A 
ATOM      9  C   UNL     1       3.051   3.108  21.099  0.00  0.00    +0.000 A 
ATOM     10  C   UNL     1       1.737   2.889  21.526  0.00  0.00    +0.000 A 
ATOM     11  C   UNL     1       0.681   2.799  20.595  0.00  0.00    +0.000 A 
ATOM     12  C   UNL     1       0.920   2.932  19.224  0.00  0.00    +0.000 A 
ATOM     13  C   UNL     1       2.226   3.149  18.827  0.00  0.00    +0.000 A 
ATOM     14  C   UNL     1       2.794   3.339  17.492  0.00  0.00    +0.000 C 
ATOM     15  O   UNL     1       2.153   3.300  16.461  0.00  0.00    +0.000 OA
ENDBRANCH   4   5
ENDBRANCH   3   4
ENDBRANCH   2   3
BRANCH   2  16
ATOM     16  O   UNL     1       4.095   7.122  17.233  0.00  0.00    +0.000 OA
BRANCH  16  17
ATOM     17  C   UNL     1       3.160   6.844  18.288  0.00  0.00    +0.000 C 
BRANCH  17  18
ATOM     18  N   UNL     1       2.376   8.048  18.491  0.00  0.00    +0.000 N 
ATOM     19  N   UNL     1       2.455   9.019  17.530  0.00  0.00    +0.000 NA
ATOM     20  N   UNL     1       1.822  10.096  17.635  0.00  0.00    +0.000 NA
ATOM     21  C   UNL     1       1.000  10.317  18.748  0.00  0.00    +0.000 A 
ATOM     22  C   UNL     1       0.185  11.454  18.789  0.00  0.00    +0.000 A 
ATOM     23  C   UNL     1      -0.679  11.678  19.868  0.00  0.00    +0.000 A 
ATOM     24  C   UNL     1      -0.692  10.798  20.949  0.00  0.00    +0.000 A 
ATOM     25  C   UNL     1       0.138   9.681  20.937  0.00  0.00    +0.000 A 
ATOM     26  C   UNL     1       0.946   9.440  19.819  0.00  0.00    +0.000 A 
ATOM     27  C   UNL     1       1.716   8.216  19.688  0.00  0.00    +0.000 A 
ATOM     28  O   UNL     1       1.715   7.392  20.608  0.00  0.00    +0.000 OA
ENDBRANCH  17  18
ENDBRANCH  16  17
ENDBRANCH   2  16
TORSDOF 6
ENDMDL
MODEL 5
REMARK VINA RESULT:      -8.1      1.073      2.294
REMARK  Name = 
REMARK  6 active torsions:
REMARK  status: ('A' for Active; 'I' for Inactive)
REMARK    1  A    between atoms: C_2  and  C_3
REMARK    2  A    between atoms: C_2  and  O_16
REMARK    3  A    between atoms: C_3  and  C_4
REMARK    4  A    between atoms: C_4  and  N_5
REMARK    5  A    between atoms: O_16  and  C_17
REMARK    6  A    between atoms: C_17  and  N_18
REMARK                            x       y       z     vdW  Elec       q    Type
REMARK                         _______ _______ _______ _____ _____    ______ ____
ROOT
ATOM      1  O   UNL     1       6.763   6.910  16.773  0.00  0.00    +0.000 OA
ATOM      2  C   UNL     1       5.588   6.571  16.850  0.00  0.00    +0.000 C 
ENDROOT
BRANCH   2   3
ATOM      3  C   UNL     1       4.960   5.471  16.017  0.00  0.00    +0.000 C 
BRANCH   3   4
ATOM      4  C   UNL     1       5.222   4.108  16.653  0.00  0.00    +0.000 C 
BRANCH   4   5
ATOM      5  N   UNL     1       4.285   3.791  17.720  0.00  0.00    +0.000 N 
ATOM      6  C   UNL     1       2.957   3.517  17.529  0.00  0.00    +0.000 C 
ATOM      7  O   UNL     1       2.311   3.528  16.498  0.00  0.00    +0.000 OA
ATOM      8  C   UNL     1       2.399   3.196  18.844  0.00  0.00    +0.000 A 
ATOM      9  C   UNL     1       1.124   2.812  19.211  0.00  0.00    +0.000 A 
ATOM     10  C   UNL     1       0.895   2.561  20.568  0.00  0.00    +0.000 A 
ATOM     11  C   UNL     1       1.933   2.699  21.512  0.00  0.00    +0.000 A 
ATOM     12  C   UNL     1       3.217   3.086  21.116  0.00  0.00    +0.000 A 
ATOM     13  C   UNL     1       3.418   3.327  19.770  0.00  0.00    +0.000 A 
ATOM     14  C   UNL     1       4.625   3.727  19.047  0.00  0.00    +0.000 C 
ATOM     15  O   UNL     1       5.698   3.951  19.571  0.00  0.00    +0.000 OA
ENDBRANCH   4   5
ENDBRANCH   3   4
ENDBRANCH   2   3
BRANCH   2  16
ATOM     16  O   UNL     1       4.653   7.175  17.632  0.00  0.00    +0.000 OA
BRANCH  16  17
ATOM     17  C   UNL     1       3.318   7.207  17.102  0.00  0.00    +0.000 C 
BRANCH  17  18
ATOM     18  N   UNL     1       2.537   8.072  17.967  0.00  0.00    +0.000 N 
ATOM     19  N   UNL     1       2.279   9.339  17.521  0.00  0.00    +0.000 NA
ATOM     20  N   UNL     1       1.626  10.155  18.213  0.00  0.00    +0.000 NA
ATOM     21  C   UNL     1       1.128   9.768  19.465  0.00  0.00    +0.000 A 
ATOM     22  C   UNL     1       0.277  10.632  20.165  0.00  0.00    +0.000 A 
ATOM     23  C   UNL     1      -0.270  10.253  21.398  0.00  0.00    +0.000 A 
ATOM     24  C   UNL     1       0.077   9.032  21.973  0.00  0.00    +0.000 A 
ATOM     25  C   UNL     1       0.949   8.179  21.303  0.00  0.00    +0.000 A 
ATOM     26  C   UNL     1       1.433   8.547  20.041  0.00  0.00    +0.000 A 
ATOM     27  C   UNL     1       2.221   7.633  19.234  0.00  0.00    +0.000 A 
ATOM     28  O   UNL     1       2.532   6.527  19.689  0.00  0.00    +0.000 OA
ENDBRANCH  17  18
ENDBRANCH  16  17
ENDBRANCH   2  16
TORSDOF 6
ENDMDL
MODEL 6
REMARK VINA RESULT:      -8.0      1.479      2.157
REMARK  Name = 
REMARK  6 active torsions:
REMARK  status: ('A' for Active; 'I' for Inactive)
REMARK    1  A    between atoms: C_2  and  C_3
REMARK    2  A    between atoms: C_2  and  O_16
REMARK    3  A    between atoms: C_3  and  C_4
REMARK    4  A    between atoms: C_4  and  N_5
REMARK    5  A    between atoms: O_16  and  C_17
REMARK    6  A    between atoms: C_17  and  N_18
REMARK                            x       y       z     vdW  Elec       q    Type
REMARK                         _______ _______ _______ _____ _____    ______ ____
ROOT
ATOM      1  O   UNL     1       5.190   6.859  15.343  0.00  0.00    +0.000 OA
ATOM      2  C   UNL     1       5.487   6.975  16.526  0.00  0.00    +0.000 C 
ENDROOT
BRANCH   2   3
ATOM      3  C   UNL     1       6.803   6.520  17.125  0.00  0.00    +0.000 C 
BRANCH   3   4
ATOM      4  C   UNL     1       6.909   4.998  17.082  0.00  0.00    +0.000 C 
BRANCH   4   5
ATOM      5  N   UNL     1       5.728   4.332  17.613  0.00  0.00    +0.000 N 
ATOM      6  C   UNL     1       5.433   4.226  18.946  0.00  0.00    +0.000 C 
ATOM      7  O   UNL     1       6.078   4.598  19.908  0.00  0.00    +0.000 OA
ATOM      8  C   UNL     1       4.142   3.543  19.040  0.00  0.00    +0.000 A 
ATOM      9  C   UNL     1       3.373   3.218  20.140  0.00  0.00    +0.000 A 
ATOM     10  C   UNL     1       2.160   2.562  19.904  0.00  0.00    +0.000 A 
ATOM     11  C   UNL     1       1.751   2.250  18.591  0.00  0.00    +0.000 A 
ATOM     12  C   UNL     1       2.546   2.592  17.492  0.00  0.00    +0.000 A 
ATOM     13  C   UNL     1       3.739   3.241  17.751  0.00  0.00    +0.000 A 
ATOM     14  C   UNL     1       4.770   3.734  16.837  0.00  0.00    +0.000 C 
ATOM     15  O   UNL     1       4.735   3.607  15.629  0.00  0.00    +0.000 OA
ENDBRANCH   4   5
ENDBRANCH   3   4
ENDBRANCH   2   3
BRANCH   2  16
ATOM     16  O   UNL     1       4.660   7.456  17.493  0.00  0.00    +0.000 OA
BRANCH  16  17
ATOM     17  C   UNL     1       3.318   6.944  17.483  0.00  0.00    +0.000 C 
BRANCH  17  18
ATOM     18  N   UNL     1       2.492   7.899  18.197  0.00  0.00    +0.000 N 
ATOM     19  N   UNL     1       2.236   9.093  17.580  0.00  0.00    +0.000 NA
ATOM     20  N   UNL     1       1.544   9.980  18.135  0.00  0.00    +0.000 NA
ATOM     21  C   UNL     1       1.002   9.749  19.406  0.00  0.00    +0.000 A 
ATOM     22  C   UNL     1       0.112  10.681  19.955  0.00  0.00    +0.000 A 
ATOM     23  C   UNL     1      -0.480  10.455  21.204  0.00  0.00    +0.000 A 
ATOM     24  C   UNL     1      -0.141   9.325  21.947  0.00  0.00    +0.000 A 
ATOM     25  C   UNL     1       0.769   8.409  21.427  0.00  0.00    +0.000 A 
ATOM     26  C   UNL     1       1.298   8.619  20.147  0.00  0.00    +0.000 A 
ATOM     27  C   UNL     1       2.130   7.622  19.497  0.00  0.00    +0.000 A 
ATOM     28  O   UNL     1       2.437   6.591  20.104  0.00  0.00    +0.000 OA
ENDBRANCH  17  18
ENDBRANCH  16  17
ENDBRANCH   2  16
TORSDOF 6
ENDMDL
MODEL 7
REMARK VINA RESULT:      -8.0      1.865      4.248
REMARK  Name = 
REMARK  6 active torsions:
REMARK  status: ('A' for Active; 'I' for Inactive)
REMARK    1  A    between atoms: C_2  and  C_3
REMARK    2  A    between atoms: C_2  and  O_16
REMARK    3  A    between atoms: C_3  and  C_4
REMARK    4  A    between atoms: C_4  and  N_5
REMARK    5  A    between atoms: O_16  and  C_17
REMARK    6  A    between atoms: C_17  and  N_18
REMARK                            x       y       z     vdW  Elec       q    Type
REMARK                         _______ _______ _______ _____ _____    ______ ____
ROOT
ATOM      1  O   UNL     1       2.175   3.455  22.027  0.00  0.00    +0.000 OA
ATOM      2  C   UNL     1       1.571   3.739  21.000  0.00  0.00    +0.000 C 
ENDROOT
BRANCH   2   3
ATOM      3  C   UNL     1       1.066   2.720  19.998  0.00  0.00    +0.000 C 
BRANCH   3   4
ATOM      4  C   UNL     1       2.237   1.996  19.340  0.00  0.00    +0.000 C 
BRANCH   4   5
ATOM      5  N   UNL     1       3.221   2.906  18.773  0.00  0.00    +0.000 N 
ATOM      6  C   UNL     1       3.003   3.698  17.677  0.00  0.00    +0.000 C 
ATOM      7  O   UNL     1       2.021   3.768  16.962  0.00  0.00    +0.000 OA
ATOM      8  C   UNL     1       4.217   4.493  17.483  0.00  0.00    +0.000 A 
ATOM      9  C   UNL     1       4.514   5.470  16.552  0.00  0.00    +0.000 A 
ATOM     10  C   UNL     1       5.777   6.066  16.628  0.00  0.00    +0.000 A 
ATOM     11  C   UNL     1       6.702   5.674  17.618  0.00  0.00    +0.000 A 
ATOM     12  C   UNL     1       6.377   4.685  18.551  0.00  0.00    +0.000 A 
ATOM     13  C   UNL     1       5.122   4.113  18.457  0.00  0.00    +0.000 A 
ATOM     14  C   UNL     1       4.486   3.079  19.274  0.00  0.00    +0.000 C 
ATOM     15  O   UNL     1       5.022   2.513  20.206  0.00  0.00    +0.000 OA
ENDBRANCH   4   5
ENDBRANCH   3   4
ENDBRANCH   2   3
BRANCH   2  16
ATOM     16  O   UNL     1       1.329   5.003  20.563  0.00  0.00    +0.000 OA
BRANCH  16  17
ATOM     17  C   UNL     1       2.447   5.904  20.597  0.00  0.00    +0.000 C 
BRANCH  17  18
ATOM     18  N   UNL     1       2.008   7.152  20.001  0.00  0.00    +0.000 N 
ATOM     19  N   UNL     1       2.366   7.387  18.701  0.00  0.00    +0.000 NA
ATOM     20  N   UNL     1       2.041   8.447  18.115  0.00  0.00    +0.000 NA
ATOM     21  C   UNL     1       1.281   9.412  18.789  0.00  0.00    +0.000 A 
ATOM     22  C   UNL     1       0.798  10.523  18.086  0.00  0.00    +0.000 A 
ATOM     23  C   UNL     1      -0.001  11.481  18.723  0.00  0.00    +0.000 A 
ATOM     24  C   UNL     1      -0.275  11.372  20.086  0.00  0.00    +0.000 A 
ATOM     25  C   UNL     1       0.228  10.290  20.803  0.00  0.00    +0.000 A 
ATOM     26  C   UNL     1       0.969   9.309  20.133  0.00  0.00    +0.000 A 
ATOM     27  C   UNL     1       1.387   8.087  20.799  0.00  0.00    +0.000 A 
ATOM     28  O   UNL     1       1.144   7.931  22.000  0.00  0.00    +0.000 OA
ENDBRANCH  17  18
ENDBRANCH  16  17
ENDBRANCH   2  16
TORSDOF 6
ENDMDL
MODEL 8
REMARK VINA RESULT:      -7.9      1.197      5.649
REMARK  Name = 
REMARK  6 active torsions:
REMARK  status: ('A' for Active; 'I' for Inactive)
REMARK    1  A    between atoms: C_2  and  C_3
REMARK    2  A    between atoms: C_2  and  O_16
REMARK    3  A    between atoms: C_3  and  C_4
REMARK    4  A    between atoms: C_4  and  N_5
REMARK    5  A    between atoms: O_16  and  C_17
REMARK    6  A    between atoms: C_17  and  N_18
REMARK                            x       y       z     vdW  Elec       q    Type
REMARK                         _______ _______ _______ _____ _____    ______ ____
ROOT
ATOM      1  O   UNL     1       5.117   6.701  15.273  0.00  0.00    +0.000 OA
ATOM      2  C   UNL     1       5.161   6.415  16.464  0.00  0.00    +0.000 C 
ENDROOT
BRANCH   2   3
ATOM      3  C   UNL     1       4.510   7.232  17.562  0.00  0.00    +0.000 C 
BRANCH   3   4
ATOM      4  C   UNL     1       3.018   6.919  17.644  0.00  0.00    +0.000 C 
BRANCH   4   5
ATOM      5  N   UNL     1       2.313   7.762  18.598  0.00  0.00    +0.000 N 
ATOM      6  C   UNL     1       1.986   7.383  19.872  0.00  0.00    +0.000 C 
ATOM      7  O   UNL     1       2.161   6.313  20.425  0.00  0.00    +0.000 OA
ATOM      8  C   UNL     1       1.344   8.537  20.505  0.00  0.00    +0.000 A 
ATOM      9  C   UNL     1       0.860   8.707  21.787  0.00  0.00    +0.000 A 
ATOM     10  C   UNL     1       0.301   9.950  22.102  0.00  0.00    +0.000 A 
ATOM     11  C   UNL     1       0.238  10.978  21.139  0.00  0.00    +0.000 A 
ATOM     12  C   UNL     1       0.738  10.783  19.848  0.00  0.00    +0.000 A 
ATOM     13  C   UNL     1       1.287   9.547  19.562  0.00  0.00    +0.000 A 
ATOM     14  C   UNL     1       1.895   9.040  18.331  0.00  0.00    +0.000 C 
ATOM     15  O   UNL     1       1.982   9.672  17.297  0.00  0.00    +0.000 OA
ENDBRANCH   4   5
ENDBRANCH   3   4
ENDBRANCH   2   3
BRANCH   2  16
ATOM     16  O   UNL     1       5.859   5.374  16.990  0.00  0.00    +0.000 OA
BRANCH  16  17
ATOM     17  C   UNL     1       5.417   4.063  16.602  0.00  0.00    +0.000 C 
BRANCH  17  18
ATOM     18  N   UNL     1       4.267   3.740  17.427  0.00  0.00    +0.000 N 
ATOM     19  N   UNL     1       3.047   3.685  16.810  0.00  0.00    +0.000 NA
ATOM     20  N   UNL     1       2.001   3.428  17.451  0.00  0.00    +0.000 NA
ATOM     21  C   UNL     1       2.071   3.174  18.827  0.00  0.00    +0.000 A 
ATOM     22  C   UNL     1       0.925   2.745  19.508  0.00  0.00    +0.000 A 
ATOM     23  C   UNL     1       0.976   2.440  20.874  0.00  0.00    +0.000 A 
ATOM     24  C   UNL     1       2.159   2.621  21.589  0.00  0.00    +0.000 A 
ATOM     25  C   UNL     1       3.297   3.080  20.931  0.00  0.00    +0.000 A 
ATOM     26  C   UNL     1       3.242   3.315  19.552  0.00  0.00    +0.000 A 
ATOM     27  C   UNL     1       4.434   3.647  18.791  0.00  0.00    +0.000 A 
ATOM     28  O   UNL     1       5.512   3.793  19.375  0.00  0.00    +0.000 OA
ENDBRANCH  17  18
ENDBRANCH  16  17
ENDBRANCH   2  16
TORSDOF 6
ENDMDL
MODEL 9
REMARK VINA RESULT:      -7.8      0.713      1.805
REMARK  Name = 
REMARK  6 active torsions:
REMARK  status: ('A' for Active; 'I' for Inactive)
REMARK    1  A    between atoms: C_2  and  C_3
REMARK    2  A    between atoms: C_2  and  O_16
REMARK    3  A    between atoms: C_3  and  C_4
REMARK    4  A    between atoms: C_4  and  N_5
REMARK    5  A    between atoms: O_16  and  C_17
REMARK    6  A    between atoms: C_17  and  N_18
REMARK                            x       y       z     vdW  Elec       q    Type
REMARK                         _______ _______ _______ _____ _____    ______ ____
ROOT
ATOM      1  O   UNL     1       5.541   6.646  15.173  0.00  0.00    +0.000 OA
ATOM      2  C   UNL     1       5.256   6.056  16.208  0.00  0.00    +0.000 C 
ENDROOT
BRANCH   2   3
ATOM      3  C   UNL     1       6.006   4.850  16.737  0.00  0.00    +0.000 C 
BRANCH   3   4
ATOM      4  C   UNL     1       5.137   3.599  16.638  0.00  0.00    +0.000 C 
BRANCH   4   5
ATOM      5  N   UNL     1       4.183   3.483  17.731  0.00  0.00    +0.000 N 
ATOM      6  C   UNL     1       2.833   3.327  17.567  0.00  0.00    +0.000 C 
ATOM      7  O   UNL     1       2.181   3.303  16.540  0.00  0.00    +0.000 OA
ATOM      8  C   UNL     1       2.257   3.193  18.906  0.00  0.00    +0.000 A 
ATOM      9  C   UNL     1       0.954   2.978  19.309  0.00  0.00    +0.000 A 
ATOM     10  C   UNL     1       0.714   2.885  20.684  0.00  0.00    +0.000 A 
ATOM     11  C   UNL     1       1.769   3.008  21.611  0.00  0.00    +0.000 A 
ATOM     12  C   UNL     1       3.081   3.223  21.179  0.00  0.00    +0.000 A 
ATOM     13  C   UNL     1       3.293   3.310  19.816  0.00  0.00    +0.000 A 
ATOM     14  C   UNL     1       4.528   3.514  19.058  0.00  0.00    +0.000 C 
ATOM     15  O   UNL     1       5.622   3.678  19.558  0.00  0.00    +0.000 OA
ENDBRANCH   4   5
ENDBRANCH   3   4
ENDBRANCH   2   3
BRANCH   2  16
ATOM     16  O   UNL     1       4.187   6.341  16.998  0.00  0.00    +0.000 OA
BRANCH  16  17
ATOM     17  C   UNL     1       3.859   7.734  17.132  0.00  0.00    +0.000 C 
BRANCH  17  18
ATOM     18  N   UNL     1       2.971   7.855  18.273  0.00  0.00    +0.000 N 
ATOM     19  N   UNL     1       2.957   6.822  19.170  0.00  0.00    +0.000 NA
ATOM     20  N   UNL     1       2.207   6.840  20.175  0.00  0.00    +0.000 NA
ATOM     21  C   UNL     1       1.373   7.942  20.404  0.00  0.00    +0.000 A 
ATOM     22  C   UNL     1       0.649   8.022  21.601  0.00  0.00    +0.000 A 
ATOM     23  C   UNL     1      -0.158   9.132  21.876  0.00  0.00    +0.000 A 
ATOM     24  C   UNL     1      -0.301  10.147  20.931  0.00  0.00    +0.000 A 
ATOM     25  C   UNL     1       0.387  10.063  19.723  0.00  0.00    +0.000 A 
ATOM     26  C   UNL     1       1.241   8.977  19.495  0.00  0.00    +0.000 A 
ATOM     27  C   UNL     1       2.094   8.916  18.322  0.00  0.00    +0.000 A 
ATOM     28  O   UNL     1       2.025   9.806  17.468  0.00  0.00    +0.000 OA
ENDBRANCH  17  18
ENDBRANCH  16  17
ENDBRANCH   2  16
TORSDOF 6
ENDMDL
