MODEL 1
REMARK VINA RESULT:      -9.1      0.000      0.000
REMARK  Name = 
REMARK  3 active torsions:
REMARK  status: ('A' for Active; 'I' for Inactive)
REMARK    1  A    between atoms: C_2  and  C_3
REMARK    2  A    between atoms: C_4  and  C_5
REMARK    3  A    between atoms: C_6  and  C_7
REMARK                            x       y       z     vdW  Elec       q    Type
REMARK                         _______ _______ _______ _____ _____    ______ ____
ROOT
ATOM      1  C   UNL     1       7.577   6.136  18.198  0.00  0.00    +0.000 C 
ATOM      2  C   UNL     1       7.621   7.148  17.320  0.00  0.00    +0.000 C 
ENDROOT
BRANCH   1   4
ATOM      3  O   UNL     1       8.287   4.125  17.176  0.00  0.00    +0.000 OA
ATOM      4  C   UNL     1       7.413   4.715  17.811  0.00  0.00    +0.000 C 
ATOM      5  N   UNL     1       6.321   4.018  18.253  0.00  0.00    +0.000 N 
ATOM      6  C   UNL     1       5.132   4.473  18.836  0.00  0.00    +0.000 A 
ATOM      7  C   UNL     1       4.294   3.535  19.431  0.00  0.00    +0.000 A 
ATOM      8  C   UNL     1       3.107   3.965  20.035  0.00  0.00    +0.000 A 
ATOM      9  C   UNL     1       2.780   5.314  20.011  0.00  0.00    +0.000 A 
ATOM     10 CL   UNL     1       1.341   5.891  20.740  0.00  0.00    +0.000 Cl
ATOM     11  C   UNL     1       3.652   6.179  19.382  0.00  0.00    +0.000 A 
ATOM     12  N   UNL     1       4.807   5.779  18.798  0.00  0.00    +0.000 NA
ATOM     13  H   UNL     1       6.410   3.025  18.092  0.00  0.00    +0.000 HD
ENDBRANCH   1   4
BRANCH   2  14
ATOM     14  C   UNL     1       7.809   8.500  17.807  0.00  0.00    +0.000 C 
ATOM     15  C   UNL     1       8.843   8.903  18.557  0.00  0.00    +0.000 C 
BRANCH  15  16
ATOM     16  C   UNL     1       9.006  10.294  19.020  0.00  0.00    +0.000 A 
ATOM     17  C   UNL     1       9.314  10.617  20.365  0.00  0.00    +0.000 A 
ATOM     18  C   UNL     1       9.460  11.946  20.780  0.00  0.00    +0.000 A 
ATOM     19  C   UNL     1       9.305  12.929  19.829  0.00  0.00    +0.000 A 
ATOM     20  C   UNL     1       9.028  12.626  18.518  0.00  0.00    +0.000 A 
ATOM     21  C   UNL     1       8.879  11.327  18.083  0.00  0.00    +0.000 A 
ATOM     22  O   UNL     1       8.918  13.738  17.742  0.00  0.00    +0.000 OA
ATOM     23  C   UNL     1       9.130  14.774  18.723  0.00  0.00    +0.000 C 
ATOM     24  O   UNL     1       9.404  14.267  20.045  0.00  0.00    +0.000 OA
ENDBRANCH  15  16
ENDBRANCH   2  14
TORSDOF 3
ENDMDL
MODEL 2
REMARK VINA RESULT:      -8.9      0.756      1.526
REMARK  Name = 
REMARK  3 active torsions:
REMARK  status: ('A' for Active; 'I' for Inactive)
REMARK    1  A    between atoms: C_2  and  C_3
REMARK    2  A    between atoms: C_4  and  C_5
REMARK    3  A    between atoms: C_6  and  C_7
REMARK                            x       y       z     vdW  Elec       q    Type
REMARK                         _______ _______ _______ _____ _____    ______ ____
ROOT
ATOM      1  C   UNL     1       7.534   6.117  18.223  0.00  0.00    +0.000 C 
ATOM      2  C   UNL     1       7.579   7.172  17.398  0.00  0.00    +0.000 C 
ENDROOT
BRANCH   1   4
ATOM      3  O   UNL     1       8.304   4.190  17.089  0.00  0.00    +0.000 OA
ATOM      4  C   UNL     1       7.417   4.714  17.762  0.00  0.00    +0.000 C 
ATOM      5  N   UNL     1       6.353   3.956  18.173  0.00  0.00    +0.000 N 
ATOM      6  C   UNL     1       5.155   4.337  18.789  0.00  0.00    +0.000 A 
ATOM      7  C   UNL     1       4.356   3.339  19.339  0.00  0.00    +0.000 A 
ATOM      8  C   UNL     1       3.161   3.694  19.975  0.00  0.00    +0.000 A 
ATOM      9  C   UNL     1       2.787   5.030  20.027  0.00  0.00    +0.000 A 
ATOM     10 CL   UNL     1       1.336   5.516  20.797  0.00  0.00    +0.000 Cl
ATOM     11  C   UNL     1       3.622   5.958  19.438  0.00  0.00    +0.000 A 
ATOM     12  N   UNL     1       4.785   5.631  18.825  0.00  0.00    +0.000 NA
ATOM     13  H   UNL     1       6.475   2.976  17.959  0.00  0.00    +0.000 HD
ENDBRANCH   1   4
BRANCH   2  14
ATOM     14  C   UNL     1       7.719   8.502  17.957  0.00  0.00    +0.000 C 
ATOM     15  C   UNL     1       8.858   9.208  17.968  0.00  0.00    +0.000 C 
BRANCH  15  16
ATOM     16  C   UNL     1       8.956  10.567  18.532  0.00  0.00    +0.000 A 
ATOM     17  C   UNL     1       8.639  11.728  17.782  0.00  0.00    +0.000 A 
ATOM     18  C   UNL     1       8.745  13.007  18.342  0.00  0.00    +0.000 A 
ATOM     19  C   UNL     1       9.155  13.096  19.652  0.00  0.00    +0.000 A 
ATOM     20  C   UNL     1       9.443  11.976  20.395  0.00  0.00    +0.000 A 
ATOM     21  C   UNL     1       9.348  10.705  19.869  0.00  0.00    +0.000 A 
ATOM     22  O   UNL     1       9.826  12.281  21.664  0.00  0.00    +0.000 OA
ATOM     23  C   UNL     1       9.772  13.722  21.623  0.00  0.00    +0.000 C 
ATOM     24  O   UNL     1       9.320  14.246  20.357  0.00  0.00    +0.000 OA
ENDBRANCH  15  16
ENDBRANCH   2  14
TORSDOF 3
ENDMDL
MODEL 3
REMARK VINA RESULT:      -8.3      3.328      4.197
REMARK  Name = 
REMARK  3 active torsions:
REMARK  status: ('A' for Active; 'I' for Inactive)
REMARK    1  A    between atoms: C_2  and  C_3
REMARK    2  A    between atoms: C_4  and  C_5
REMARK    3  A    between atoms: C_6  and  C_7
REMARK                            x       y       z     vdW  Elec       q    Type
REMARK                         _______ _______ _______ _____ _____    ______ ____
ROOT
ATOM      1  C   UNL     1       6.847   6.858  18.007  0.00  0.00    +0.000 C 
ATOM      2  C   UNL     1       8.024   7.338  18.433  0.00  0.00    +0.000 C 
ENDROOT
BRANCH   1   4
ATOM      3  O   UNL     1       6.054   5.263  19.562  0.00  0.00    +0.000 OA
ATOM      4  C   UNL     1       6.311   5.530  18.388  0.00  0.00    +0.000 C 
ATOM      5  N   UNL     1       6.004   4.622  17.411  0.00  0.00    +0.000 N 
ATOM      6  C   UNL     1       6.337   4.607  16.052  0.00  0.00    +0.000 A 
ATOM      7  C   UNL     1       5.677   3.701  15.226  0.00  0.00    +0.000 A 
ATOM      8  C   UNL     1       5.979   3.677  13.860  0.00  0.00    +0.000 A 
ATOM      9  C   UNL     1       6.945   4.540  13.360  0.00  0.00    +0.000 A 
ATOM     10 CL   UNL     1       7.349   4.551  11.695  0.00  0.00    +0.000 Cl
ATOM     11  C   UNL     1       7.571   5.392  14.247  0.00  0.00    +0.000 A 
ATOM     12  N   UNL     1       7.285   5.432  15.570  0.00  0.00    +0.000 NA
ATOM     13  H   UNL     1       5.474   3.839  17.770  0.00  0.00    +0.000 HD
ENDBRANCH   1   4
BRANCH   2  14
ATOM     14  C   UNL     1       8.441   8.662  18.016  0.00  0.00    +0.000 C 
ATOM     15  C   UNL     1       8.854   9.629  18.847  0.00  0.00    +0.000 C 
BRANCH  15  16
ATOM     16  C   UNL     1       9.286  10.959  18.381  0.00  0.00    +0.000 A 
ATOM     17  C   UNL     1       8.393  11.881  17.777  0.00  0.00    +0.000 A 
ATOM     18  C   UNL     1       8.831  13.137  17.340  0.00  0.00    +0.000 A 
ATOM     19  C   UNL     1      10.157  13.450  17.528  0.00  0.00    +0.000 A 
ATOM     20  C   UNL     1      11.025  12.573  18.132  0.00  0.00    +0.000 A 
ATOM     21  C   UNL     1      10.623  11.330  18.572  0.00  0.00    +0.000 A 
ATOM     22  O   UNL     1      12.286  13.075  18.226  0.00  0.00    +0.000 OA
ATOM     23  C   UNL     1      12.115  14.357  17.586  0.00  0.00    +0.000 C 
ATOM     24  O   UNL     1      10.759  14.613  17.166  0.00  0.00    +0.000 OA
ENDBRANCH  15  16
ENDBRANCH   2  14
TORSDOF 3
ENDMDL
MODEL 4
REMARK VINA RESULT:      -8.2      1.835      2.298
REMARK  Name = 
REMARK  3 active torsions:
REMARK  status: ('A' for Active; 'I' for Inactive)
REMARK    1  A    between atoms: C_2  and  C_3
REMARK    2  A    between atoms: C_4  and  C_5
REMARK    3  A    between atoms: C_6  and  C_7
REMARK                            x       y       z     vdW  Elec       q    Type
REMARK                         _______ _______ _______ _____ _____    ______ ____
ROOT
ATOM      1  C   UNL     1       7.474   6.772  17.225  0.00  0.00    +0.000 C 
ATOM      2  C   UNL     1       7.990   7.454  18.258  0.00  0.00    +0.000 C 
ENDROOT
BRANCH   1   4
ATOM      3  O   UNL     1       7.764   4.427  17.139  0.00  0.00    +0.000 OA
ATOM      4  C   UNL     1       6.997   5.372  17.318  0.00  0.00    +0.000 C 
ATOM      5  N   UNL     1       5.707   5.125  17.705  0.00  0.00    +0.000 N 
ATOM      6  C   UNL     1       4.611   5.990  17.808  0.00  0.00    +0.000 A 
ATOM      7  C   UNL     1       3.479   5.533  18.477  0.00  0.00    +0.000 A 
ATOM      8  C   UNL     1       2.375   6.384  18.609  0.00  0.00    +0.000 A 
ATOM      9  C   UNL     1       2.424   7.655  18.053  0.00  0.00    +0.000 A 
ATOM     10 CL   UNL     1       1.101   8.735  18.190  0.00  0.00    +0.000 Cl
ATOM     11  C   UNL     1       3.574   8.025  17.386  0.00  0.00    +0.000 A 
ATOM     12  N   UNL     1       4.653   7.216  17.256  0.00  0.00    +0.000 NA
ATOM     13  H   UNL     1       5.552   4.149  17.917  0.00  0.00    +0.000 HD
ENDBRANCH   1   4
BRANCH   2  14
ATOM     14  C   UNL     1       8.405   8.829  18.061  0.00  0.00    +0.000 C 
ATOM     15  C   UNL     1       9.056   9.566  18.971  0.00  0.00    +0.000 C 
BRANCH  15  16
ATOM     16  C   UNL     1       9.475  10.958  18.727  0.00  0.00    +0.000 A 
ATOM     17  C   UNL     1       8.754  11.831  17.873  0.00  0.00    +0.000 A 
ATOM     18  C   UNL     1       9.177  13.149  17.656  0.00  0.00    +0.000 A 
ATOM     19  C   UNL     1      10.311  13.570  18.310  0.00  0.00    +0.000 A 
ATOM     20  C   UNL     1      11.004  12.738  19.157  0.00  0.00    +0.000 A 
ATOM     21  C   UNL     1      10.611  11.438  19.390  0.00  0.00    +0.000 A 
ATOM     22  O   UNL     1      12.090  13.347  19.706  0.00  0.00    +0.000 OA
ATOM     23  C   UNL     1      12.014  14.647  19.084  0.00  0.00    +0.000 C 
ATOM     24  O   UNL     1      10.871  14.804  18.218  0.00  0.00    +0.000 OA
ENDBRANCH  15  16
ENDBRANCH   2  14
TORSDOF 3
ENDMDL
MODEL 5
REMARK VINA RESULT:      -8.2      3.148      4.057
REMARK  Name = 
REMARK  3 active torsions:
REMARK  status: ('A' for Active; 'I' for Inactive)
REMARK    1  A    between atoms: C_2  and  C_3
REMARK    2  A    between atoms: C_4  and  C_5
REMARK    3  A    between atoms: C_6  and  C_7
REMARK                            x       y       z     vdW  Elec       q    Type
REMARK                         _______ _______ _______ _____ _____    ______ ____
ROOT
ATOM      1  C   UNL     1       7.130   6.863  18.096  0.00  0.00    +0.000 C 
ATOM      2  C   UNL     1       8.203   7.453  18.642  0.00  0.00    +0.000 C 
ENDROOT
BRANCH   1   4
ATOM      3  O   UNL     1       6.459   5.222  19.661  0.00  0.00    +0.000 OA
ATOM      4  C   UNL     1       6.645   5.517  18.480  0.00  0.00    +0.000 C 
ATOM      5  N   UNL     1       6.302   4.621  17.504  0.00  0.00    +0.000 N 
ATOM      6  C   UNL     1       6.559   4.638  16.128  0.00  0.00    +0.000 A 
ATOM      7  C   UNL     1       5.873   3.734  15.323  0.00  0.00    +0.000 A 
ATOM      8  C   UNL     1       6.099   3.742  13.942  0.00  0.00    +0.000 A 
ATOM      9  C   UNL     1       7.017   4.635  13.406  0.00  0.00    +0.000 A 
ATOM     10 CL   UNL     1       7.327   4.687  11.722  0.00  0.00    +0.000 Cl
ATOM     11  C   UNL     1       7.674   5.484  14.274  0.00  0.00    +0.000 A 
ATOM     12  N   UNL     1       7.461   5.493  15.611  0.00  0.00    +0.000 NA
ATOM     13  H   UNL     1       5.810   3.820  17.876  0.00  0.00    +0.000 HD
ENDBRANCH   1   4
BRANCH   2  14
ATOM     14  C   UNL     1       8.576   8.784  18.207  0.00  0.00    +0.000 C 
ATOM     15  C   UNL     1       9.156   9.707  18.988  0.00  0.00    +0.000 C 
BRANCH  15  16
ATOM     16  C   UNL     1       9.535  11.046  18.503  0.00  0.00    +0.000 A 
ATOM     17  C   UNL     1      10.719  11.279  17.759  0.00  0.00    +0.000 A 
ATOM     18  C   UNL     1      11.058  12.563  17.313  0.00  0.00    +0.000 A 
ATOM     19  C   UNL     1      10.193  13.589  17.614  0.00  0.00    +0.000 A 
ATOM     20  C   UNL     1       9.032  13.371  18.315  0.00  0.00    +0.000 A 
ATOM     21  C   UNL     1       8.673  12.118  18.766  0.00  0.00    +0.000 A 
ATOM     22  O   UNL     1       8.317  14.513  18.503  0.00  0.00    +0.000 OA
ATOM     23  C   UNL     1       9.178  15.478  17.862  0.00  0.00    +0.000 C 
ATOM     24  O   UNL     1      10.357  14.894  17.272  0.00  0.00    +0.000 OA
ENDBRANCH  15  16
ENDBRANCH   2  14
TORSDOF 3
ENDMDL
MODEL 6
REMARK VINA RESULT:      -8.1      0.826      1.444
REMARK  Name = 
REMARK  3 active torsions:
REMARK  status: ('A' for Active; 'I' for Inactive)
REMARK    1  A    between atoms: C_2  and  C_3
REMARK    2  A    between atoms: C_4  and  C_5
REMARK    3  A    between atoms: C_6  and  C_7
REMARK                            x       y       z     vdW  Elec       q    Type
REMARK                         _______ _______ _______ _____ _____    ______ ____
ROOT
ATOM      1  C   UNL     1       7.209   6.293  17.107  0.00  0.00    +0.000 C 
ATOM      2  C   UNL     1       7.916   6.943  18.042  0.00  0.00    +0.000 C 
ENDROOT
BRANCH   1   4
ATOM      3  O   UNL     1       7.849   4.116  16.444  0.00  0.00    +0.000 OA
ATOM      4  C   UNL     1       7.054   4.820  17.065  0.00  0.00    +0.000 C 
ATOM      5  N   UNL     1       6.072   4.225  17.810  0.00  0.00    +0.000 N 
ATOM      6  C   UNL     1       4.964   4.783  18.459  0.00  0.00    +0.000 A 
ATOM      7  C   UNL     1       4.267   3.989  19.365  0.00  0.00    +0.000 A 
ATOM      8  C   UNL     1       3.166   4.528  20.039  0.00  0.00    +0.000 A 
ATOM      9  C   UNL     1       2.778   5.835  19.776  0.00  0.00    +0.000 A 
ATOM     10 CL   UNL     1       1.439   6.541  20.578  0.00  0.00    +0.000 Cl
ATOM     11  C   UNL     1       3.507   6.550  18.848  0.00  0.00    +0.000 A 
ATOM     12  N   UNL     1       4.579   6.045  18.192  0.00  0.00    +0.000 NA
ATOM     13  H   UNL     1       6.181   3.222  17.855  0.00  0.00    +0.000 HD
ENDBRANCH   1   4
BRANCH   2  14
ATOM     14  C   UNL     1       7.982   8.390  18.001  0.00  0.00    +0.000 C 
ATOM     15  C   UNL     1       8.850   9.134  18.700  0.00  0.00    +0.000 C 
BRANCH  15  16
ATOM     16  C   UNL     1       8.896  10.606  18.619  0.00  0.00    +0.000 A 
ATOM     17  C   UNL     1       8.243  11.331  17.591  0.00  0.00    +0.000 A 
ATOM     18  C   UNL     1       8.305  12.729  17.535  0.00  0.00    +0.000 A 
ATOM     19  C   UNL     1       9.014  13.374  18.522  0.00  0.00    +0.000 A 
ATOM     20  C   UNL     1       9.632  12.682  19.535  0.00  0.00    +0.000 A 
ATOM     21  C   UNL     1       9.587  11.306  19.615  0.00  0.00    +0.000 A 
ATOM     22  O   UNL     1      10.273  13.504  20.408  0.00  0.00    +0.000 OA
ATOM     23  C   UNL     1      10.010  14.791  19.810  0.00  0.00    +0.000 C 
ATOM     24  O   UNL     1       9.188  14.718  18.627  0.00  0.00    +0.000 OA
ENDBRANCH  15  16
ENDBRANCH   2  14
TORSDOF 3
ENDMDL
MODEL 7
REMARK VINA RESULT:      -8.1      1.671      2.152
REMARK  Name = 
REMARK  3 active torsions:
REMARK  status: ('A' for Active; 'I' for Inactive)
REMARK    1  A    between atoms: C_2  and  C_3
REMARK    2  A    between atoms: C_4  and  C_5
REMARK    3  A    between atoms: C_6  and  C_7
REMARK                            x       y       z     vdW  Elec       q    Type
REMARK                         _______ _______ _______ _____ _____    ______ ____
ROOT
ATOM      1  C   UNL     1       7.537   6.827  17.289  0.00  0.00    +0.000 C 
ATOM      2  C   UNL     1       7.991   7.632  18.260  0.00  0.00    +0.000 C 
ENDROOT
BRANCH   1   4
ATOM      3  O   UNL     1       7.867   4.489  17.424  0.00  0.00    +0.000 OA
ATOM      4  C   UNL     1       7.084   5.434  17.516  0.00  0.00    +0.000 C 
ATOM      5  N   UNL     1       5.801   5.203  17.932  0.00  0.00    +0.000 N 
ATOM      6  C   UNL     1       4.690   6.054  17.958  0.00  0.00    +0.000 A 
ATOM      7  C   UNL     1       3.568   5.644  18.673  0.00  0.00    +0.000 A 
ATOM      8  C   UNL     1       2.450   6.484  18.729  0.00  0.00    +0.000 A 
ATOM      9  C   UNL     1       2.475   7.698  18.055  0.00  0.00    +0.000 A 
ATOM     10 CL   UNL     1       1.133   8.763  18.096  0.00  0.00    +0.000 Cl
ATOM     11  C   UNL     1       3.616   8.022  17.350  0.00  0.00    +0.000 A 
ATOM     12  N   UNL     1       4.708   7.223  17.292  0.00  0.00    +0.000 NA
ATOM     13  H   UNL     1       5.663   4.249  18.236  0.00  0.00    +0.000 HD
ENDBRANCH   1   4
BRANCH   2  14
ATOM     14  C   UNL     1       8.386   8.986  17.930  0.00  0.00    +0.000 C 
ATOM     15  C   UNL     1       9.075   9.799  18.742  0.00  0.00    +0.000 C 
BRANCH  15  16
ATOM     16  C   UNL     1       9.472  11.167  18.363  0.00  0.00    +0.000 A 
ATOM     17  C   UNL     1      10.717  11.456  17.748  0.00  0.00    +0.000 A 
ATOM     18  C   UNL     1      11.071  12.765  17.401  0.00  0.00    +0.000 A 
ATOM     19  C   UNL     1      10.161  13.762  17.666  0.00  0.00    +0.000 A 
ATOM     20  C   UNL     1       8.942  13.491  18.241  0.00  0.00    +0.000 A 
ATOM     21  C   UNL     1       8.568  12.211  18.593  0.00  0.00    +0.000 A 
ATOM     22  O   UNL     1       8.191  14.611  18.414  0.00  0.00    +0.000 OA
ATOM     23  C   UNL     1       9.089  15.620  17.908  0.00  0.00    +0.000 C 
ATOM     24  O   UNL     1      10.331  15.084  17.406  0.00  0.00    +0.000 OA
ENDBRANCH  15  16
ENDBRANCH   2  14
TORSDOF 3
ENDMDL
MODEL 8
REMARK VINA RESULT:      -8.0      3.783      8.503
REMARK  Name = 
REMARK  3 active torsions:
REMARK  status: ('A' for Active; 'I' for Inactive)
REMARK    1  A    between atoms: C_2  and  C_3
REMARK    2  A    between atoms: C_4  and  C_5
REMARK    3  A    between atoms: C_6  and  C_7
REMARK                            x       y       z     vdW  Elec       q    Type
REMARK                         _______ _______ _______ _____ _____    ______ ____
ROOT
ATOM      1  C   UNL     1       9.312  10.449  19.246  0.00  0.00    +0.000 C 
ATOM      2  C   UNL     1       8.943   9.912  18.075  0.00  0.00    +0.000 C 
ENDROOT
BRANCH   1   4
ATOM      3  O   UNL     1      11.360  11.448  18.616  0.00  0.00    +0.000 OA
ATOM      4  C   UNL     1      10.405  11.439  19.392  0.00  0.00    +0.000 C 
ATOM      5  N   UNL     1      10.304  12.419  20.341  0.00  0.00    +0.000 N 
ATOM      6  C   UNL     1       9.430  12.541  21.428  0.00  0.00    +0.000 A 
ATOM      7  C   UNL     1       9.368  13.767  22.085  0.00  0.00    +0.000 A 
ATOM      8  C   UNL     1       8.490  13.919  23.164  0.00  0.00    +0.000 A 
ATOM      9  C   UNL     1       7.716  12.842  23.571  0.00  0.00    +0.000 A 
ATOM     10 CL   UNL     1       6.624  12.979  24.884  0.00  0.00    +0.000 Cl
ATOM     11  C   UNL     1       7.851  11.653  22.882  0.00  0.00    +0.000 A 
ATOM     12  N   UNL     1       8.691  11.491  21.832  0.00  0.00    +0.000 NA
ATOM     13  H   UNL     1      11.003  13.140  20.223  0.00  0.00    +0.000 HD
ENDBRANCH   1   4
BRANCH   2  14
ATOM     14  C   UNL     1       7.842   8.970  18.043  0.00  0.00    +0.000 C 
ATOM     15  C   UNL     1       7.955   7.676  17.714  0.00  0.00    +0.000 C 
BRANCH  15  16
ATOM     16  C   UNL     1       6.812   6.745  17.709  0.00  0.00    +0.000 A 
ATOM     17  C   UNL     1       5.723   6.882  16.813  0.00  0.00    +0.000 A 
ATOM     18  C   UNL     1       4.647   5.985  16.832  0.00  0.00    +0.000 A 
ATOM     19  C   UNL     1       4.692   4.958  17.746  0.00  0.00    +0.000 A 
ATOM     20  C   UNL     1       5.754   4.803  18.605  0.00  0.00    +0.000 A 
ATOM     21  C   UNL     1       6.826   5.670  18.607  0.00  0.00    +0.000 A 
ATOM     22  O   UNL     1       5.606   3.726  19.422  0.00  0.00    +0.000 OA
ATOM     23  C   UNL     1       4.316   3.239  18.996  0.00  0.00    +0.000 C 
ATOM     24  O   UNL     1       3.743   4.000  17.914  0.00  0.00    +0.000 OA
ENDBRANCH  15  16
ENDBRANCH   2  14
TORSDOF 3
ENDMDL
MODEL 9
REMARK VINA RESULT:      -8.0      1.385      1.535
REMARK  Name = 
REMARK  3 active torsions:
REMARK  status: ('A' for Active; 'I' for Inactive)
REMARK    1  A    between atoms: C_2  and  C_3
REMARK    2  A    between atoms: C_4  and  C_5
REMARK    3  A    between atoms: C_6  and  C_7
REMARK                            x       y       z     vdW  Elec       q    Type
REMARK                         _______ _______ _______ _____ _____    ______ ____
ROOT
ATOM      1  C   UNL     1       7.572   6.550  18.320  0.00  0.00    +0.000 C 
ATOM      2  C   UNL     1       7.768   7.459  17.353  0.00  0.00    +0.000 C 
ENDROOT
BRANCH   1   4
ATOM      3  O   UNL     1       7.988   4.252  17.952  0.00  0.00    +0.000 OA
ATOM      4  C   UNL     1       7.156   5.151  18.065  0.00  0.00    +0.000 C 
ATOM      5  N   UNL     1       5.824   4.837  18.055  0.00  0.00    +0.000 N 
ATOM      6  C   UNL     1       4.698   5.666  17.997  0.00  0.00    +0.000 A 
ATOM      7  C   UNL     1       3.454   5.101  18.263  0.00  0.00    +0.000 A 
ATOM      8  C   UNL     1       2.314   5.912  18.228  0.00  0.00    +0.000 A 
ATOM      9  C   UNL     1       2.444   7.257  17.909  0.00  0.00    +0.000 A 
ATOM     10 CL   UNL     1       1.080   8.292  17.856  0.00  0.00    +0.000 Cl
ATOM     11  C   UNL     1       3.709   7.737  17.635  0.00  0.00    +0.000 A 
ATOM     12  N   UNL     1       4.822   6.966  17.671  0.00  0.00    +0.000 NA
ATOM     13  H   UNL     1       5.667   3.838  18.064  0.00  0.00    +0.000 HD
ENDBRANCH   1   4
BRANCH   2  14
ATOM     14  C   UNL     1       8.198   8.794  17.714  0.00  0.00    +0.000 C 
ATOM     15  C   UNL     1       8.830   9.111  18.853  0.00  0.00    +0.000 C 
BRANCH  15  16
ATOM     16  C   UNL     1       9.267  10.481  19.176  0.00  0.00    +0.000 A 
ATOM     17  C   UNL     1       9.551  10.897  20.501  0.00  0.00    +0.000 A 
ATOM     18  C   UNL     1       9.961  12.206  20.781  0.00  0.00    +0.000 A 
ATOM     19  C   UNL     1      10.089  13.073  19.721  0.00  0.00    +0.000 A 
ATOM     20  C   UNL     1       9.837  12.675  18.430  0.00  0.00    +0.000 A 
ATOM     21  C   UNL     1       9.432  11.392  18.126  0.00  0.00    +0.000 A 
ATOM     22  O   UNL     1      10.026  13.679  17.532  0.00  0.00    +0.000 OA
ATOM     23  C   UNL     1      10.398  14.761  18.411  0.00  0.00    +0.000 C 
ATOM     24  O   UNL     1      10.467  14.376  19.800  0.00  0.00    +0.000 OA
ENDBRANCH  15  16
ENDBRANCH   2  14
TORSDOF 3
ENDMDL
