MODEL 1
REMARK VINA RESULT:      -7.3      0.000      0.000
REMARK  Name = 
REMARK  4 active torsions:
REMARK  status: ('A' for Active; 'I' for Inactive)
REMARK    1  A    between atoms: C_2  and  C_3
REMARK    2  A    between atoms: C_3  and  N_4
REMARK    3  A    between atoms: C_6  and  C_7
REMARK    4  A    between atoms: N_12  and  C_13
REMARK                            x       y       z     vdW  Elec       q    Type
REMARK                         _______ _______ _______ _____ _____    ______ ____
ROOT
ATOM      1  O   UNL     1       5.488   5.535  19.202  0.00  0.00    +0.000 OA
ATOM      2  C   UNL     1       4.773   5.796  18.237  0.00  0.00    +0.000 C 
ATOM      3  N   UNL     1       3.489   5.321  18.105  0.00  0.00    +0.000 N 
ATOM      4  H   UNL     1       3.021   5.409  17.203  0.00  0.00    +0.000 HD
ENDROOT
BRANCH   3   5
ATOM      5  C   UNL     1       2.904   4.381  19.049  0.00  0.00    +0.000 C 
ATOM      6  C   UNL     1       2.021   5.049  20.079  0.00  0.00    +0.000 C 
ATOM      7  C   UNL     1       0.949   4.020  20.334  0.00  0.00    +0.000 C 
ATOM      8  O   UNL     1       0.805   3.286  19.122  0.00  0.00    +0.000 OA
ATOM      9  C   UNL     1       1.912   3.468  18.346  0.00  0.00    +0.000 C 
ATOM     10  O   UNL     1       2.063   2.981  17.238  0.00  0.00    +0.000 OA
ENDBRANCH   3   5
BRANCH   2  11
ATOM     11  C   UNL     1       5.223   6.707  17.114  0.00  0.00    +0.000 C 
BRANCH  11  12
ATOM     12  N   UNL     1       5.884   5.960  16.074  0.00  0.00    +0.000 N 
ATOM     13  C   UNL     1       5.348   5.042  15.221  0.00  0.00    +0.000 A 
ATOM     14  C   UNL     1       6.437   4.569  14.530  0.00  0.00    +0.000 A 
ATOM     15  N   UNL     1       7.570   5.195  14.973  0.00  0.00    +0.000 NA
ATOM     16  N   UNL     1       7.220   6.047  15.929  0.00  0.00    +0.000 NA
BRANCH  14  17
ATOM     17  C   UNL     1       6.379   3.514  13.449  0.00  0.00    +0.000 C 
ATOM     18  C   UNL     1       5.343   3.672  12.353  0.00  0.00    +0.000 C 
ATOM     19  C   UNL     1       6.782   3.886  12.039  0.00  0.00    +0.000 C 
ENDBRANCH  14  17
ENDBRANCH  11  12
ENDBRANCH   2  11
TORSDOF 4
ENDMDL
MODEL 2
REMARK VINA RESULT:      -7.2      2.760      6.560
REMARK  Name = 
REMARK  4 active torsions:
REMARK  status: ('A' for Active; 'I' for Inactive)
REMARK    1  A    between atoms: C_2  and  C_3
REMARK    2  A    between atoms: C_3  and  N_4
REMARK    3  A    between atoms: C_6  and  C_7
REMARK    4  A    between atoms: N_12  and  C_13
REMARK                            x       y       z     vdW  Elec       q    Type
REMARK                         _______ _______ _______ _____ _____    ______ ____
ROOT
ATOM      1  O   UNL     1       7.788   4.687  16.942  0.00  0.00    +0.000 OA
ATOM      2  C   UNL     1       6.979   5.494  16.489  0.00  0.00    +0.000 C 
ATOM      3  N   UNL     1       6.445   5.392  15.226  0.00  0.00    +0.000 N 
ATOM      4  H   UNL     1       5.936   6.186  14.841  0.00  0.00    +0.000 HD
ENDROOT
BRANCH   3   5
ATOM      5  C   UNL     1       6.872   4.374  14.278  0.00  0.00    +0.000 C 
ATOM      6  C   UNL     1       5.723   3.756  13.515  0.00  0.00    +0.000 C 
ATOM      7  C   UNL     1       6.323   3.464  12.164  0.00  0.00    +0.000 C 
ATOM      8  O   UNL     1       7.334   4.446  11.957  0.00  0.00    +0.000 OA
ATOM      9  C   UNL     1       7.680   5.001  13.154  0.00  0.00    +0.000 C 
ATOM     10  O   UNL     1       8.506   5.889  13.287  0.00  0.00    +0.000 OA
ENDBRANCH   3   5
BRANCH   2  11
ATOM     11  C   UNL     1       6.456   6.662  17.299  0.00  0.00    +0.000 C 
BRANCH  11  12
ATOM     12  N   UNL     1       5.210   6.328  17.944  0.00  0.00    +0.000 N 
ATOM     13  C   UNL     1       4.984   5.396  18.913  0.00  0.00    +0.000 A 
ATOM     14  C   UNL     1       3.619   5.422  19.072  0.00  0.00    +0.000 A 
ATOM     15  N   UNL     1       3.073   6.341  18.217  0.00  0.00    +0.000 NA
ATOM     16  N   UNL     1       4.062   6.890  17.522  0.00  0.00    +0.000 NA
BRANCH  14  17
ATOM     17  C   UNL     1       2.849   4.558  20.044  0.00  0.00    +0.000 C 
ATOM     18  C   UNL     1       1.579   5.123  20.649  0.00  0.00    +0.000 C 
ATOM     19  C   UNL     1       1.488   4.033  19.640  0.00  0.00    +0.000 C 
ENDBRANCH  14  17
ENDBRANCH  11  12
ENDBRANCH   2  11
TORSDOF 4
ENDMDL
MODEL 3
REMARK VINA RESULT:      -7.1      2.737      6.569
REMARK  Name = 
REMARK  4 active torsions:
REMARK  status: ('A' for Active; 'I' for Inactive)
REMARK    1  A    between atoms: C_2  and  C_3
REMARK    2  A    between atoms: C_3  and  N_4
REMARK    3  A    between atoms: C_6  and  C_7
REMARK    4  A    between atoms: N_12  and  C_13
REMARK                            x       y       z     vdW  Elec       q    Type
REMARK                         _______ _______ _______ _____ _____    ______ ____
ROOT
ATOM      1  O   UNL     1       7.799   4.290  16.869  0.00  0.00    +0.000 OA
ATOM      2  C   UNL     1       6.739   4.857  16.613  0.00  0.00    +0.000 C 
ATOM      3  N   UNL     1       6.089   4.724  15.409  0.00  0.00    +0.000 N 
ATOM      4  H   UNL     1       5.327   5.363  15.187  0.00  0.00    +0.000 HD
ENDROOT
BRANCH   3   5
ATOM      5  C   UNL     1       6.657   3.981  14.294  0.00  0.00    +0.000 C 
ATOM      6  C   UNL     1       5.620   3.548  13.282  0.00  0.00    +0.000 C 
ATOM      7  C   UNL     1       6.367   3.611  11.975  0.00  0.00    +0.000 C 
ATOM      8  O   UNL     1       7.347   4.634  12.124  0.00  0.00    +0.000 OA
ATOM      9  C   UNL     1       7.544   4.883  13.451  0.00  0.00    +0.000 C 
ATOM     10  O   UNL     1       8.311   5.727  13.886  0.00  0.00    +0.000 OA
ENDBRANCH   3   5
BRANCH   2  11
ATOM     11  C   UNL     1       6.019   5.727  17.622  0.00  0.00    +0.000 C 
BRANCH  11  12
ATOM     12  N   UNL     1       4.980   4.988  18.296  0.00  0.00    +0.000 N 
ATOM     13  C   UNL     1       3.637   5.221  18.288  0.00  0.00    +0.000 A 
ATOM     14  C   UNL     1       3.145   4.297  19.178  0.00  0.00    +0.000 A 
ATOM     15  N   UNL     1       4.174   3.553  19.686  0.00  0.00    +0.000 NA
ATOM     16  N   UNL     1       5.304   3.991  19.140  0.00  0.00    +0.000 NA
BRANCH  14  17
ATOM     17  C   UNL     1       1.684   4.138  19.535  0.00  0.00    +0.000 C 
ATOM     18  C   UNL     1       0.977   2.871  19.098  0.00  0.00    +0.000 C 
ATOM     19  C   UNL     1       1.286   3.078  20.539  0.00  0.00    +0.000 C 
ENDBRANCH  14  17
ENDBRANCH  11  12
ENDBRANCH   2  11
TORSDOF 4
ENDMDL
MODEL 4
REMARK VINA RESULT:      -7.0      0.978      1.031
REMARK  Name = 
REMARK  4 active torsions:
REMARK  status: ('A' for Active; 'I' for Inactive)
REMARK    1  A    between atoms: C_2  and  C_3
REMARK    2  A    between atoms: C_3  and  N_4
REMARK    3  A    between atoms: C_6  and  C_7
REMARK    4  A    between atoms: N_12  and  C_13
REMARK                            x       y       z     vdW  Elec       q    Type
REMARK                         _______ _______ _______ _____ _____    ______ ____
ROOT
ATOM      1  O   UNL     1       5.659   3.724  19.358  0.00  0.00    +0.000 OA
ATOM      2  C   UNL     1       5.000   4.585  18.781  0.00  0.00    +0.000 C 
ATOM      3  N   UNL     1       3.625   4.620  18.805  0.00  0.00    +0.000 N 
ATOM      4  H   UNL     1       3.136   5.235  18.157  0.00  0.00    +0.000 HD
ENDROOT
BRANCH   3   5
ATOM      5  C   UNL     1       2.829   3.576  19.433  0.00  0.00    +0.000 C 
ATOM      6  C   UNL     1       1.817   4.114  20.418  0.00  0.00    +0.000 C 
ATOM      7  C   UNL     1       0.661   3.156  20.283  0.00  0.00    +0.000 C 
ATOM      8  O   UNL     1       0.693   2.680  18.941  0.00  0.00    +0.000 OA
ATOM      9  C   UNL     1       1.929   2.905  18.409  0.00  0.00    +0.000 C 
ATOM     10  O   UNL     1       2.247   2.623  17.265  0.00  0.00    +0.000 OA
ENDBRANCH   3   5
BRANCH   2  11
ATOM     11  C   UNL     1       5.642   5.725  18.018  0.00  0.00    +0.000 C 
BRANCH  11  12
ATOM     12  N   UNL     1       5.747   5.415  16.614  0.00  0.00    +0.000 N 
ATOM     13  C   UNL     1       5.832   4.189  16.024  0.00  0.00    +0.000 A 
ATOM     14  C   UNL     1       6.025   4.484  14.696  0.00  0.00    +0.000 A 
ATOM     15  N   UNL     1       6.053   5.841  14.524  0.00  0.00    +0.000 NA
ATOM     16  N   UNL     1       5.886   6.406  15.715  0.00  0.00    +0.000 NA
BRANCH  14  17
ATOM     17  C   UNL     1       6.186   3.455  13.600  0.00  0.00    +0.000 C 
ATOM     18  C   UNL     1       5.237   3.516  12.419  0.00  0.00    +0.000 C 
ATOM     19  C   UNL     1       6.662   3.904  12.236  0.00  0.00    +0.000 C 
ENDBRANCH  14  17
ENDBRANCH  11  12
ENDBRANCH   2  11
TORSDOF 4
ENDMDL
MODEL 5
REMARK VINA RESULT:      -7.0      1.386      1.560
REMARK  Name = 
REMARK  4 active torsions:
REMARK  status: ('A' for Active; 'I' for Inactive)
REMARK    1  A    between atoms: C_2  and  C_3
REMARK    2  A    between atoms: C_3  and  N_4
REMARK    3  A    between atoms: C_6  and  C_7
REMARK    4  A    between atoms: N_12  and  C_13
REMARK                            x       y       z     vdW  Elec       q    Type
REMARK                         _______ _______ _______ _____ _____    ______ ____
ROOT
ATOM      1  O   UNL     1       6.952   5.244  19.978  0.00  0.00    +0.000 OA
ATOM      2  C   UNL     1       6.439   5.602  18.922  0.00  0.00    +0.000 C 
ATOM      3  N   UNL     1       5.079   5.616  18.715  0.00  0.00    +0.000 N 
ATOM      4  H   UNL     1       4.726   5.736  17.766  0.00  0.00    +0.000 HD
ENDROOT
BRANCH   3   5
ATOM      5  C   UNL     1       4.135   5.108  19.699  0.00  0.00    +0.000 C 
ATOM      6  C   UNL     1       2.849   5.900  19.750  0.00  0.00    +0.000 C 
ATOM      7  C   UNL     1       1.814   4.855  20.082  0.00  0.00    +0.000 C 
ATOM      8  O   UNL     1       2.291   3.632  19.531  0.00  0.00    +0.000 OA
ATOM      9  C   UNL     1       3.630   3.734  19.290  0.00  0.00    +0.000 C 
ATOM     10  O   UNL     1       4.309   2.849  18.796  0.00  0.00    +0.000 OA
ENDBRANCH   3   5
BRANCH   2  11
ATOM     11  C   UNL     1       7.256   6.108  17.751  0.00  0.00    +0.000 C 
BRANCH  11  12
ATOM     12  N   UNL     1       6.725   5.625  16.501  0.00  0.00    +0.000 N 
ATOM     13  C   UNL     1       6.982   4.442  15.875  0.00  0.00    +0.000 A 
ATOM     14  C   UNL     1       6.309   4.555  14.682  0.00  0.00    +0.000 A 
ATOM     15  N   UNL     1       5.682   5.770  14.621  0.00  0.00    +0.000 NA
ATOM     16  N   UNL     1       5.950   6.425  15.745  0.00  0.00    +0.000 NA
BRANCH  14  17
ATOM     17  C   UNL     1       6.276   3.492  13.608  0.00  0.00    +0.000 C 
ATOM     18  C   UNL     1       5.237   3.619  12.511  0.00  0.00    +0.000 C 
ATOM     19  C   UNL     1       6.671   3.866  12.195  0.00  0.00    +0.000 C 
ENDBRANCH  14  17
ENDBRANCH  11  12
ENDBRANCH   2  11
TORSDOF 4
ENDMDL
MODEL 6
REMARK VINA RESULT:      -6.9      2.536      6.881
REMARK  Name = 
REMARK  4 active torsions:
REMARK  status: ('A' for Active; 'I' for Inactive)
REMARK    1  A    between atoms: C_2  and  C_3
REMARK    2  A    between atoms: C_3  and  N_4
REMARK    3  A    between atoms: C_6  and  C_7
REMARK    4  A    between atoms: N_12  and  C_13
REMARK                            x       y       z     vdW  Elec       q    Type
REMARK                         _______ _______ _______ _____ _____    ______ ____
ROOT
ATOM      1  O   UNL     1       6.137   3.882  17.047  0.00  0.00    +0.000 OA
ATOM      2  C   UNL     1       5.407   4.676  16.460  0.00  0.00    +0.000 C 
ATOM      3  N   UNL     1       5.323   4.746  15.089  0.00  0.00    +0.000 N 
ATOM      4  H   UNL     1       4.854   5.544  14.663  0.00  0.00    +0.000 HD
ENDROOT
BRANCH   3   5
ATOM      5  C   UNL     1       6.173   3.951  14.214  0.00  0.00    +0.000 C 
ATOM      6  C   UNL     1       5.476   3.521  12.943  0.00  0.00    +0.000 C 
ATOM      7  C   UNL     1       6.587   3.521  11.924  0.00  0.00    +0.000 C 
ATOM      8  O   UNL     1       7.515   4.516  12.346  0.00  0.00    +0.000 OA
ATOM      9  C   UNL     1       7.309   4.798  13.665  0.00  0.00    +0.000 C 
ATOM     10  O   UNL     1       7.940   5.630  14.297  0.00  0.00    +0.000 OA
ENDBRANCH   3   5
BRANCH   2  11
ATOM     11  C   UNL     1       4.489   5.632  17.193  0.00  0.00    +0.000 C 
BRANCH  11  12
ATOM     12  N   UNL     1       3.372   4.933  17.777  0.00  0.00    +0.000 N 
ATOM     13  C   UNL     1       2.947   4.952  19.072  0.00  0.00    +0.000 A 
ATOM     14  C   UNL     1       1.929   4.029  19.090  0.00  0.00    +0.000 A 
ATOM     15  N   UNL     1       1.773   3.491  17.842  0.00  0.00    +0.000 NA
ATOM     16  N   UNL     1       2.671   4.051  17.040  0.00  0.00    +0.000 NA
BRANCH  14  17
ATOM     17  C   UNL     1       1.116   3.668  20.313  0.00  0.00    +0.000 C 
ATOM     18  C   UNL     1       1.438   2.370  21.026  0.00  0.00    +0.000 C 
ATOM     19  C   UNL     1       1.790   3.666  21.668  0.00  0.00    +0.000 C 
ENDBRANCH  14  17
ENDBRANCH  11  12
ENDBRANCH   2  11
TORSDOF 4
ENDMDL
MODEL 7
REMARK VINA RESULT:      -6.8      1.421      1.458
REMARK  Name = 
REMARK  4 active torsions:
REMARK  status: ('A' for Active; 'I' for Inactive)
REMARK    1  A    between atoms: C_2  and  C_3
REMARK    2  A    between atoms: C_3  and  N_4
REMARK    3  A    between atoms: C_6  and  C_7
REMARK    4  A    between atoms: N_12  and  C_13
REMARK                            x       y       z     vdW  Elec       q    Type
REMARK                         _______ _______ _______ _____ _____    ______ ____
ROOT
ATOM      1  O   UNL     1       4.208   5.328  18.183  0.00  0.00    +0.000 OA
ATOM      2  C   UNL     1       5.206   4.665  18.455  0.00  0.00    +0.000 C 
ATOM      3  N   UNL     1       5.165   3.533  19.235  0.00  0.00    +0.000 N 
ATOM      4  H   UNL     1       6.040   3.141  19.582  0.00  0.00    +0.000 HD
ENDROOT
BRANCH   3   5
ATOM      5  C   UNL     1       3.947   3.082  19.891  0.00  0.00    +0.000 C 
ATOM      6  C   UNL     1       2.999   4.212  20.222  0.00  0.00    +0.000 C 
ATOM      7  C   UNL     1       1.640   3.580  20.061  0.00  0.00    +0.000 C 
ATOM      8  O   UNL     1       1.786   2.568  19.070  0.00  0.00    +0.000 OA
ATOM      9  C   UNL     1       3.105   2.250  18.936  0.00  0.00    +0.000 C 
ATOM     10  O   UNL     1       3.539   1.429  18.144  0.00  0.00    +0.000 OA
ENDBRANCH   3   5
BRANCH   2  11
ATOM     11  C   UNL     1       6.581   5.007  17.919  0.00  0.00    +0.000 C 
BRANCH  11  12
ATOM     12  N   UNL     1       6.635   4.839  16.488  0.00  0.00    +0.000 N 
ATOM     13  C   UNL     1       6.144   3.812  15.739  0.00  0.00    +0.000 A 
ATOM     14  C   UNL     1       6.572   4.107  14.467  0.00  0.00    +0.000 A 
ATOM     15  N   UNL     1       7.292   5.270  14.482  0.00  0.00    +0.000 NA
ATOM     16  N   UNL     1       7.330   5.711  15.735  0.00  0.00    +0.000 NA
BRANCH  14  17
ATOM     17  C   UNL     1       6.287   3.264  13.245  0.00  0.00    +0.000 C 
ATOM     18  C   UNL     1       5.203   3.731  12.294  0.00  0.00    +0.000 C 
ATOM     19  C   UNL     1       6.629   3.815  11.878  0.00  0.00    +0.000 C 
ENDBRANCH  14  17
ENDBRANCH  11  12
ENDBRANCH   2  11
TORSDOF 4
ENDMDL
MODEL 8
REMARK VINA RESULT:      -6.8      1.259      1.624
REMARK  Name = 
REMARK  4 active torsions:
REMARK  status: ('A' for Active; 'I' for Inactive)
REMARK    1  A    between atoms: C_2  and  C_3
REMARK    2  A    between atoms: C_3  and  N_4
REMARK    3  A    between atoms: C_6  and  C_7
REMARK    4  A    between atoms: N_12  and  C_13
REMARK                            x       y       z     vdW  Elec       q    Type
REMARK                         _______ _______ _______ _____ _____    ______ ____
ROOT
ATOM      1  O   UNL     1       3.778   6.546  18.227  0.00  0.00    +0.000 OA
ATOM      2  C   UNL     1       4.444   5.519  18.338  0.00  0.00    +0.000 C 
ATOM      3  N   UNL     1       3.894   4.297  18.644  0.00  0.00    +0.000 N 
ATOM      4  H   UNL     1       4.512   3.531  18.910  0.00  0.00    +0.000 HD
ENDROOT
BRANCH   3   5
ATOM      5  C   UNL     1       2.484   4.134  18.965  0.00  0.00    +0.000 C 
ATOM      6  C   UNL     1       1.736   3.306  17.946  0.00  0.00    +0.000 C 
ATOM      7  C   UNL     1       0.708   2.582  18.777  0.00  0.00    +0.000 C 
ATOM      8  O   UNL     1       1.285   2.416  20.068  0.00  0.00    +0.000 OA
ATOM      9  C   UNL     1       2.319   3.292  20.220  0.00  0.00    +0.000 C 
ATOM     10  O   UNL     1       3.019   3.365  21.217  0.00  0.00    +0.000 OA
ENDBRANCH   3   5
BRANCH   2  11
ATOM     11  C   UNL     1       5.940   5.493  18.103  0.00  0.00    +0.000 C 
BRANCH  11  12
ATOM     12  N   UNL     1       6.244   5.184  16.728  0.00  0.00    +0.000 N 
ATOM     13  C   UNL     1       5.723   4.194  15.950  0.00  0.00    +0.000 A 
ATOM     14  C   UNL     1       6.443   4.289  14.783  0.00  0.00    +0.000 A 
ATOM     15  N   UNL     1       7.355   5.303  14.886  0.00  0.00    +0.000 NA
ATOM     16  N   UNL     1       7.229   5.846  16.092  0.00  0.00    +0.000 NA
BRANCH  14  17
ATOM     17  C   UNL     1       6.249   3.398  13.577  0.00  0.00    +0.000 C 
ATOM     18  C   UNL     1       5.229   3.817  12.538  0.00  0.00    +0.000 C 
ATOM     19  C   UNL     1       6.680   3.902  12.217  0.00  0.00    +0.000 C 
ENDBRANCH  14  17
ENDBRANCH  11  12
ENDBRANCH   2  11
TORSDOF 4
ENDMDL
MODEL 9
REMARK VINA RESULT:      -6.7      2.667      6.115
REMARK  Name = 
REMARK  4 active torsions:
REMARK  status: ('A' for Active; 'I' for Inactive)
REMARK    1  A    between atoms: C_2  and  C_3
REMARK    2  A    between atoms: C_3  and  N_4
REMARK    3  A    between atoms: C_6  and  C_7
REMARK    4  A    between atoms: N_12  and  C_13
REMARK                            x       y       z     vdW  Elec       q    Type
REMARK                         _______ _______ _______ _____ _____    ______ ____
ROOT
ATOM      1  O   UNL     1       7.792   4.301  18.087  0.00  0.00    +0.000 OA
ATOM      2  C   UNL     1       6.666   4.777  17.967  0.00  0.00    +0.000 C 
ATOM      3  N   UNL     1       5.902   4.623  16.834  0.00  0.00    +0.000 N 
ATOM      4  H   UNL     1       5.067   5.196  16.720  0.00  0.00    +0.000 HD
ENDROOT
BRANCH   3   5
ATOM      5  C   UNL     1       6.407   3.968  15.637  0.00  0.00    +0.000 C 
ATOM      6  C   UNL     1       5.309   3.500  14.710  0.00  0.00    +0.000 C 
ATOM      7  C   UNL     1       5.917   3.669  13.341  0.00  0.00    +0.000 C 
ATOM      8  O   UNL     1       6.833   4.755  13.444  0.00  0.00    +0.000 OA
ATOM      9  C   UNL     1       7.143   4.965  14.755  0.00  0.00    +0.000 C 
ATOM     10  O   UNL     1       7.887   5.846  15.154  0.00  0.00    +0.000 OA
ENDBRANCH   3   5
BRANCH   2  11
ATOM     11  C   UNL     1       5.986   5.548  19.081  0.00  0.00    +0.000 C 
BRANCH  11  12
ATOM     12  N   UNL     1       4.554   5.402  19.012  0.00  0.00    +0.000 N 
ATOM     13  C   UNL     1       3.768   4.481  19.637  0.00  0.00    +0.000 A 
ATOM     14  C   UNL     1       2.514   4.731  19.131  0.00  0.00    +0.000 A 
ATOM     15  N   UNL     1       2.576   5.765  18.239  0.00  0.00    +0.000 NA
ATOM     16  N   UNL     1       3.840   6.169  18.168  0.00  0.00    +0.000 NA
BRANCH  14  17
ATOM     17  C   UNL     1       1.265   3.967  19.509  0.00  0.00    +0.000 C 
ATOM     18  C   UNL     1       1.061   2.591  18.907  0.00  0.00    +0.000 C 
ATOM     19  C   UNL     1       1.397   2.717  20.352  0.00  0.00    +0.000 C 
ENDBRANCH  14  17
ENDBRANCH  11  12
ENDBRANCH   2  11
TORSDOF 4
ENDMDL
