MODEL 1
REMARK VINA RESULT:      -6.7      0.000      0.000
REMARK  Name = 
REMARK  8 active torsions:
REMARK  status: ('A' for Active; 'I' for Inactive)
REMARK    1  A    between atoms: C_2  and  N_3
REMARK    2  A    between atoms: C_2  and  N_12
REMARK    3  A    between atoms: N_3  and  C_4
REMARK    4  A    between atoms: C_4  and  C_5
REMARK    5  A    between atoms: C_5  and  C_6
REMARK    6  A    between atoms: N_12  and  C_13
REMARK    7  A    between atoms: C_13  and  C_14
REMARK    8  A    between atoms: C_14  and  N_15
REMARK                            x       y       z     vdW  Elec       q    Type
REMARK                         _______ _______ _______ _____ _____    ______ ____
ROOT
ATOM      1  S   UNL     1       7.592   5.786  18.638  0.00  0.00    +0.000 S 
ATOM      2  C   UNL     1       7.229   6.836  17.393  0.00  0.00    +0.000 C 
ENDROOT
BRANCH   2   3
ATOM      3  N   UNL     1       7.637   8.150  17.320  0.00  0.00    +0.000 N 
ATOM      4  H   UNL     1       7.231   8.710  16.584  0.00  0.00    +0.000 HD
BRANCH   3   5
ATOM      5  C   UNL     1       8.452   8.861  18.302  0.00  0.00    +0.000 C 
BRANCH   5   6
ATOM      6  C   UNL     1       8.484  10.359  17.993  0.00  0.00    +0.000 C 
BRANCH   6   7
ATOM      7  C   UNL     1       9.690  11.021  18.603  0.00  0.00    +0.000 A 
ATOM      8  C   UNL     1       9.775  11.183  19.991  0.00  0.00    +0.000 A 
ATOM      9  C   UNL     1      10.880  11.819  20.556  0.00  0.00    +0.000 A 
ATOM     10  C   UNL     1      11.899  12.302  19.739  0.00  0.00    +0.000 A 
ATOM     11  C   UNL     1      11.819  12.150  18.356  0.00  0.00    +0.000 A 
ATOM     12  C   UNL     1      10.717  11.511  17.789  0.00  0.00    +0.000 A 
ENDBRANCH   6   7
ENDBRANCH   5   6
ENDBRANCH   3   5
ENDBRANCH   2   3
BRANCH   2  13
ATOM     13  N   UNL     1       6.477   6.522  16.280  0.00  0.00    +0.000 N 
ATOM     14  H   UNL     1       6.759   6.965  15.416  0.00  0.00    +0.000 HD
BRANCH  13  15
ATOM     15  C   UNL     1       5.534   5.415  16.149  0.00  0.00    +0.000 C 
BRANCH  15  16
ATOM     16  C   UNL     1       4.348   5.577  17.120  0.00  0.00    +0.000 C 
BRANCH  16  17
ATOM     17  N   UNL     1       4.156   4.434  18.033  0.00  0.00    +0.000 NA
ATOM     18  C   UNL     1       3.031   3.577  17.587  0.00  0.00    +0.000 C 
ATOM     19  C   UNL     1       1.633   4.159  17.871  0.00  0.00    +0.000 C 
ATOM     20  O   UNL     1       1.473   4.494  19.255  0.00  0.00    +0.000 OA
ATOM     21  C   UNL     1       2.487   5.415  19.672  0.00  0.00    +0.000 C 
ATOM     22  C   UNL     1       3.890   4.836  19.432  0.00  0.00    +0.000 C 
ENDBRANCH  16  17
ENDBRANCH  15  16
ENDBRANCH  13  15
ENDBRANCH   2  13
TORSDOF 8
ENDMDL
MODEL 2
REMARK VINA RESULT:      -6.4      1.182      1.988
REMARK  Name = 
REMARK  8 active torsions:
REMARK  status: ('A' for Active; 'I' for Inactive)
REMARK    1  A    between atoms: C_2  and  N_3
REMARK    2  A    between atoms: C_2  and  N_12
REMARK    3  A    between atoms: N_3  and  C_4
REMARK    4  A    between atoms: C_4  and  C_5
REMARK    5  A    between atoms: C_5  and  C_6
REMARK    6  A    between atoms: N_12  and  C_13
REMARK    7  A    between atoms: C_13  and  C_14
REMARK    8  A    between atoms: C_14  and  N_15
REMARK                            x       y       z     vdW  Elec       q    Type
REMARK                         _______ _______ _______ _____ _____    ______ ____
ROOT
ATOM      1  S   UNL     1       7.372   4.973  17.484  0.00  0.00    +0.000 S 
ATOM      2  C   UNL     1       6.762   6.521  17.344  0.00  0.00    +0.000 C 
ENDROOT
BRANCH   2   3
ATOM      3  N   UNL     1       7.520   7.656  17.155  0.00  0.00    +0.000 N 
ATOM      4  H   UNL     1       7.475   8.082  16.240  0.00  0.00    +0.000 HD
BRANCH   3   5
ATOM      5  C   UNL     1       8.233   8.405  18.185  0.00  0.00    +0.000 C 
BRANCH   5   6
ATOM      6  C   UNL     1       8.152   9.908  17.915  0.00  0.00    +0.000 C 
BRANCH   6   7
ATOM      7  C   UNL     1       9.289  10.648  18.564  0.00  0.00    +0.000 A 
ATOM      8  C   UNL     1      10.345  11.136  17.786  0.00  0.00    +0.000 A 
ATOM      9  C   UNL     1      11.413  11.800  18.389  0.00  0.00    +0.000 A 
ATOM     10  C   UNL     1      11.435  11.971  19.771  0.00  0.00    +0.000 A 
ATOM     11  C   UNL     1      10.392  11.481  20.554  0.00  0.00    +0.000 A 
ATOM     12  C   UNL     1       9.321  10.821  19.953  0.00  0.00    +0.000 A 
ENDBRANCH   6   7
ENDBRANCH   5   6
ENDBRANCH   3   5
ENDBRANCH   2   3
BRANCH   2  13
ATOM     13  N   UNL     1       5.426   6.859  17.400  0.00  0.00    +0.000 N 
ATOM     14  H   UNL     1       5.220   7.849  17.405  0.00  0.00    +0.000 HD
BRANCH  13  15
ATOM     15  C   UNL     1       4.292   5.974  17.149  0.00  0.00    +0.000 C 
BRANCH  15  16
ATOM     16  C   UNL     1       3.633   5.528  18.469  0.00  0.00    +0.000 C 
BRANCH  16  17
ATOM     17  N   UNL     1       2.318   4.881  18.297  0.00  0.00    +0.000 NA
ATOM     18  C   UNL     1       1.748   4.473  19.604  0.00  0.00    +0.000 C 
ATOM     19  C   UNL     1       2.392   3.213  20.216  0.00  0.00    +0.000 C 
ATOM     20  O   UNL     1       2.361   2.109  19.304  0.00  0.00    +0.000 OA
ATOM     21  C   UNL     1       3.013   2.452  18.075  0.00  0.00    +0.000 C 
ATOM     22  C   UNL     1       2.360   3.683  17.429  0.00  0.00    +0.000 C 
ENDBRANCH  16  17
ENDBRANCH  15  16
ENDBRANCH  13  15
ENDBRANCH   2  13
TORSDOF 8
ENDMDL
MODEL 3
REMARK VINA RESULT:      -6.3      5.052      8.029
REMARK  Name = 
REMARK  8 active torsions:
REMARK  status: ('A' for Active; 'I' for Inactive)
REMARK    1  A    between atoms: C_2  and  N_3
REMARK    2  A    between atoms: C_2  and  N_12
REMARK    3  A    between atoms: N_3  and  C_4
REMARK    4  A    between atoms: C_4  and  C_5
REMARK    5  A    between atoms: C_5  and  C_6
REMARK    6  A    between atoms: N_12  and  C_13
REMARK    7  A    between atoms: C_13  and  C_14
REMARK    8  A    between atoms: C_14  and  N_15
REMARK                            x       y       z     vdW  Elec       q    Type
REMARK                         _______ _______ _______ _____ _____    ______ ____
ROOT
ATOM      1  S   UNL     1       1.460   9.125  18.554  0.00  0.00    +0.000 S 
ATOM      2  C   UNL     1       2.312   7.722  18.857  0.00  0.00    +0.000 C 
ENDROOT
BRANCH   2   3
ATOM      3  N   UNL     1       2.402   7.099  20.083  0.00  0.00    +0.000 N 
ATOM      4  H   UNL     1       3.074   7.479  20.735  0.00  0.00    +0.000 HD
BRANCH   3   5
ATOM      5  C   UNL     1       1.506   6.069  20.600  0.00  0.00    +0.000 C 
BRANCH   5   6
ATOM      6  C   UNL     1       2.300   4.849  21.070  0.00  0.00    +0.000 C 
BRANCH   6   7
ATOM      7  C   UNL     1       2.531   3.877  19.945  0.00  0.00    +0.000 A 
ATOM      8  C   UNL     1       3.582   2.954  20.020  0.00  0.00    +0.000 A 
ATOM      9  C   UNL     1       3.814   2.069  18.968  0.00  0.00    +0.000 A 
ATOM     10  C   UNL     1       3.003   2.106  17.835  0.00  0.00    +0.000 A 
ATOM     11  C   UNL     1       1.960   3.025  17.751  0.00  0.00    +0.000 A 
ATOM     12  C   UNL     1       1.724   3.909  18.803  0.00  0.00    +0.000 A 
ENDBRANCH   6   7
ENDBRANCH   5   6
ENDBRANCH   3   5
ENDBRANCH   2   3
BRANCH   2  13
ATOM     13  N   UNL     1       3.033   7.010  17.921  0.00  0.00    +0.000 N 
ATOM     14  H   UNL     1       2.511   6.332  17.383  0.00  0.00    +0.000 HD
BRANCH  13  15
ATOM     15  C   UNL     1       4.365   7.332  17.418  0.00  0.00    +0.000 C 
BRANCH  15  16
ATOM     16  C   UNL     1       4.851   6.270  16.411  0.00  0.00    +0.000 C 
BRANCH  16  17
ATOM     17  N   UNL     1       5.086   4.940  17.005  0.00  0.00    +0.000 NA
ATOM     18  C   UNL     1       5.991   5.031  18.177  0.00  0.00    +0.000 C 
ATOM     19  C   UNL     1       7.476   5.239  17.823  0.00  0.00    +0.000 C 
ATOM     20  O   UNL     1       7.948   4.233  16.918  0.00  0.00    +0.000 OA
ATOM     21  C   UNL     1       7.153   4.212  15.727  0.00  0.00    +0.000 C 
ATOM     22  C   UNL     1       5.672   3.967  16.057  0.00  0.00    +0.000 C 
ENDBRANCH  16  17
ENDBRANCH  15  16
ENDBRANCH  13  15
ENDBRANCH   2  13
TORSDOF 8
ENDMDL
MODEL 4
REMARK VINA RESULT:      -6.3      1.347      1.847
REMARK  Name = 
REMARK  8 active torsions:
REMARK  status: ('A' for Active; 'I' for Inactive)
REMARK    1  A    between atoms: C_2  and  N_3
REMARK    2  A    between atoms: C_2  and  N_12
REMARK    3  A    between atoms: N_3  and  C_4
REMARK    4  A    between atoms: C_4  and  C_5
REMARK    5  A    between atoms: C_5  and  C_6
REMARK    6  A    between atoms: N_12  and  C_13
REMARK    7  A    between atoms: C_13  and  C_14
REMARK    8  A    between atoms: C_14  and  N_15
REMARK                            x       y       z     vdW  Elec       q    Type
REMARK                         _______ _______ _______ _____ _____    ______ ____
ROOT
ATOM      1  S   UNL     1       6.467   5.322  15.812  0.00  0.00    +0.000 S 
ATOM      2  C   UNL     1       7.137   6.179  17.079  0.00  0.00    +0.000 C 
ENDROOT
BRANCH   2   3
ATOM      3  N   UNL     1       7.472   7.515  17.042  0.00  0.00    +0.000 N 
ATOM      4  H   UNL     1       7.026   8.073  16.328  0.00  0.00    +0.000 HD
BRANCH   3   5
ATOM      5  C   UNL     1       8.259   8.239  18.035  0.00  0.00    +0.000 C 
BRANCH   5   6
ATOM      6  C   UNL     1       8.073   9.749  17.875  0.00  0.00    +0.000 C 
BRANCH   6   7
ATOM      7  C   UNL     1       9.181  10.515  18.544  0.00  0.00    +0.000 A 
ATOM      8  C   UNL     1      10.193  11.101  17.776  0.00  0.00    +0.000 A 
ATOM      9  C   UNL     1      11.236  11.790  18.396  0.00  0.00    +0.000 A 
ATOM     10  C   UNL     1      11.275  11.890  19.785  0.00  0.00    +0.000 A 
ATOM     11  C   UNL     1      10.274  11.304  20.557  0.00  0.00    +0.000 A 
ATOM     12  C   UNL     1       9.229  10.618  19.939  0.00  0.00    +0.000 A 
ENDBRANCH   6   7
ENDBRANCH   5   6
ENDBRANCH   3   5
ENDBRANCH   2   3
BRANCH   2  13
ATOM     13  N   UNL     1       7.440   5.659  18.320  0.00  0.00    +0.000 N 
ATOM     14  H   UNL     1       8.420   5.646  18.567  0.00  0.00    +0.000 HD
BRANCH  13  15
ATOM     15  C   UNL     1       6.504   5.413  19.413  0.00  0.00    +0.000 C 
BRANCH  15  16
ATOM     16  C   UNL     1       5.062   5.264  18.889  0.00  0.00    +0.000 C 
BRANCH  16  17
ATOM     17  N   UNL     1       4.407   4.001  19.278  0.00  0.00    +0.000 NA
ATOM     18  C   UNL     1       4.042   3.199  18.085  0.00  0.00    +0.000 C 
ATOM     19  C   UNL     1       2.806   3.714  17.323  0.00  0.00    +0.000 C 
ATOM     20  O   UNL     1       1.671   3.847  18.187  0.00  0.00    +0.000 OA
ATOM     21  C   UNL     1       1.973   4.715  19.286  0.00  0.00    +0.000 C 
ATOM     22  C   UNL     1       3.180   4.197  20.083  0.00  0.00    +0.000 C 
ENDBRANCH  16  17
ENDBRANCH  15  16
ENDBRANCH  13  15
ENDBRANCH   2  13
TORSDOF 8
ENDMDL
MODEL 5
REMARK VINA RESULT:      -6.2      5.065      8.200
REMARK  Name = 
REMARK  8 active torsions:
REMARK  status: ('A' for Active; 'I' for Inactive)
REMARK    1  A    between atoms: C_2  and  N_3
REMARK    2  A    between atoms: C_2  and  N_12
REMARK    3  A    between atoms: N_3  and  C_4
REMARK    4  A    between atoms: C_4  and  C_5
REMARK    5  A    between atoms: C_5  and  C_6
REMARK    6  A    between atoms: N_12  and  C_13
REMARK    7  A    between atoms: C_13  and  C_14
REMARK    8  A    between atoms: C_14  and  N_15
REMARK                            x       y       z     vdW  Elec       q    Type
REMARK                         _______ _______ _______ _____ _____    ______ ____
ROOT
ATOM      1  S   UNL     1       1.766   8.629  18.305  0.00  0.00    +0.000 S 
ATOM      2  C   UNL     1       2.786   7.353  18.646  0.00  0.00    +0.000 C 
ENDROOT
BRANCH   2   3
ATOM      3  N   UNL     1       2.800   6.644  19.827  0.00  0.00    +0.000 N 
ATOM      4  H   UNL     1       3.669   6.641  20.342  0.00  0.00    +0.000 HD
BRANCH   3   5
ATOM      5  C   UNL     1       1.647   6.052  20.498  0.00  0.00    +0.000 C 
BRANCH   5   6
ATOM      6  C   UNL     1       2.023   4.716  21.141  0.00  0.00    +0.000 C 
BRANCH   6   7
ATOM      7  C   UNL     1       2.381   3.687  20.104  0.00  0.00    +0.000 A 
ATOM      8  C   UNL     1       1.516   3.439  19.032  0.00  0.00    +0.000 A 
ATOM      9  C   UNL     1       1.834   2.468  18.083  0.00  0.00    +0.000 A 
ATOM     10  C   UNL     1       3.013   1.736  18.204  0.00  0.00    +0.000 A 
ATOM     11  C   UNL     1       3.876   1.972  19.272  0.00  0.00    +0.000 A 
ATOM     12  C   UNL     1       3.561   2.944  20.220  0.00  0.00    +0.000 A 
ENDBRANCH   6   7
ENDBRANCH   5   6
ENDBRANCH   3   5
ENDBRANCH   2   3
BRANCH   2  13
ATOM     13  N   UNL     1       3.741   6.847  17.790  0.00  0.00    +0.000 N 
ATOM     14  H   UNL     1       4.073   7.478  17.073  0.00  0.00    +0.000 HD
BRANCH  13  15
ATOM     15  C   UNL     1       4.532   5.634  17.984  0.00  0.00    +0.000 C 
BRANCH  15  16
ATOM     16  C   UNL     1       4.480   4.730  16.737  0.00  0.00    +0.000 C 
BRANCH  16  17
ATOM     17  N   UNL     1       5.702   3.931  16.522  0.00  0.00    +0.000 NA
ATOM     18  C   UNL     1       6.873   4.559  17.181  0.00  0.00    +0.000 C 
ATOM     19  C   UNL     1       7.436   5.791  16.447  0.00  0.00    +0.000 C 
ATOM     20  O   UNL     1       7.747   5.494  15.080  0.00  0.00    +0.000 OA
ATOM     21  C   UNL     1       6.591   4.994  14.397  0.00  0.00    +0.000 C 
ATOM     22  C   UNL     1       6.038   3.741  15.092  0.00  0.00    +0.000 C 
ENDBRANCH  16  17
ENDBRANCH  15  16
ENDBRANCH  13  15
ENDBRANCH   2  13
TORSDOF 8
ENDMDL
MODEL 6
REMARK VINA RESULT:      -6.2      4.768      6.424
REMARK  Name = 
REMARK  8 active torsions:
REMARK  status: ('A' for Active; 'I' for Inactive)
REMARK    1  A    between atoms: C_2  and  N_3
REMARK    2  A    between atoms: C_2  and  N_12
REMARK    3  A    between atoms: N_3  and  C_4
REMARK    4  A    between atoms: C_4  and  C_5
REMARK    5  A    between atoms: C_5  and  C_6
REMARK    6  A    between atoms: N_12  and  C_13
REMARK    7  A    between atoms: C_13  and  C_14
REMARK    8  A    between atoms: C_14  and  N_15
REMARK                            x       y       z     vdW  Elec       q    Type
REMARK                         _______ _______ _______ _____ _____    ______ ____
ROOT
ATOM      1  S   UNL     1       7.438   5.532  19.211  0.00  0.00    +0.000 S 
ATOM      2  C   UNL     1       6.061   4.982  18.444  0.00  0.00    +0.000 C 
ENDROOT
BRANCH   2   3
ATOM      3  N   UNL     1       5.340   5.690  17.507  0.00  0.00    +0.000 N 
ATOM      4  H   UNL     1       4.384   5.911  17.744  0.00  0.00    +0.000 HD
BRANCH   3   5
ATOM      5  C   UNL     1       5.866   6.306  16.293  0.00  0.00    +0.000 C 
BRANCH   5   6
ATOM      6  C   UNL     1       7.100   5.552  15.795  0.00  0.00    +0.000 C 
BRANCH   6   7
ATOM      7  C   UNL     1       6.835   4.868  14.481  0.00  0.00    +0.000 A 
ATOM      8  C   UNL     1       7.664   5.116  13.381  0.00  0.00    +0.000 A 
ATOM      9  C   UNL     1       7.405   4.502  12.155  0.00  0.00    +0.000 A 
ATOM     10  C   UNL     1       6.314   3.645  12.022  0.00  0.00    +0.000 A 
ATOM     11  C   UNL     1       5.481   3.399  13.112  0.00  0.00    +0.000 A 
ATOM     12  C   UNL     1       5.740   4.008  14.339  0.00  0.00    +0.000 A 
ENDBRANCH   6   7
ENDBRANCH   5   6
ENDBRANCH   3   5
ENDBRANCH   2   3
BRANCH   2  13
ATOM     13  N   UNL     1       5.472   3.753  18.651  0.00  0.00    +0.000 N 
ATOM     14  H   UNL     1       5.607   3.345  19.567  0.00  0.00    +0.000 HD
BRANCH  13  15
ATOM     15  C   UNL     1       4.445   3.128  17.821  0.00  0.00    +0.000 C 
BRANCH  15  16
ATOM     16  C   UNL     1       3.406   2.386  18.686  0.00  0.00    +0.000 C 
BRANCH  16  17
ATOM     17  N   UNL     1       2.021   2.862  18.503  0.00  0.00    +0.000 NA
ATOM     18  C   UNL     1       1.979   4.336  18.352  0.00  0.00    +0.000 C 
ATOM     19  C   UNL     1       2.174   5.119  19.665  0.00  0.00    +0.000 C 
ATOM     20  O   UNL     1       1.241   4.704  20.669  0.00  0.00    +0.000 OA
ATOM     21  C   UNL     1       1.351   3.296  20.910  0.00  0.00    +0.000 C 
ATOM     22  C   UNL     1       1.121   2.496  19.619  0.00  0.00    +0.000 C 
ENDBRANCH  16  17
ENDBRANCH  15  16
ENDBRANCH  13  15
ENDBRANCH   2  13
TORSDOF 8
ENDMDL
MODEL 7
REMARK VINA RESULT:      -6.2      3.078      9.146
REMARK  Name = 
REMARK  8 active torsions:
REMARK  status: ('A' for Active; 'I' for Inactive)
REMARK    1  A    between atoms: C_2  and  N_3
REMARK    2  A    between atoms: C_2  and  N_12
REMARK    3  A    between atoms: N_3  and  C_4
REMARK    4  A    between atoms: C_4  and  C_5
REMARK    5  A    between atoms: C_5  and  C_6
REMARK    6  A    between atoms: N_12  and  C_13
REMARK    7  A    between atoms: C_13  and  C_14
REMARK    8  A    between atoms: C_14  and  N_15
REMARK                            x       y       z     vdW  Elec       q    Type
REMARK                         _______ _______ _______ _____ _____    ______ ____
ROOT
ATOM      1  S   UNL     1       7.740   6.003  18.719  0.00  0.00    +0.000 S 
ATOM      2  C   UNL     1       7.277   7.111  17.560  0.00  0.00    +0.000 C 
ENDROOT
BRANCH   2   3
ATOM      3  N   UNL     1       6.272   6.919  16.637  0.00  0.00    +0.000 N 
ATOM      4  H   UNL     1       6.212   7.593  15.887  0.00  0.00    +0.000 HD
BRANCH   3   5
ATOM      5  C   UNL     1       5.407   5.748  16.528  0.00  0.00    +0.000 C 
BRANCH   5   6
ATOM      6  C   UNL     1       4.060   6.007  17.204  0.00  0.00    +0.000 C 
BRANCH   6   7
ATOM      7  C   UNL     1       3.356   4.722  17.543  0.00  0.00    +0.000 A 
ATOM      8  C   UNL     1       2.021   4.741  17.963  0.00  0.00    +0.000 A 
ATOM      9  C   UNL     1       1.375   3.552  18.301  0.00  0.00    +0.000 A 
ATOM     10  C   UNL     1       2.061   2.342  18.229  0.00  0.00    +0.000 A 
ATOM     11  C   UNL     1       3.392   2.315  17.819  0.00  0.00    +0.000 A 
ATOM     12  C   UNL     1       4.039   3.502  17.476  0.00  0.00    +0.000 A 
ENDBRANCH   6   7
ENDBRANCH   5   6
ENDBRANCH   3   5
ENDBRANCH   2   3
BRANCH   2  13
ATOM     13  N   UNL     1       7.839   8.357  17.380  0.00  0.00    +0.000 N 
ATOM     14  H   UNL     1       7.600   8.831  16.519  0.00  0.00    +0.000 HD
BRANCH  13  15
ATOM     15  C   UNL     1       8.480   9.181  18.402  0.00  0.00    +0.000 C 
BRANCH  15  16
ATOM     16  C   UNL     1       8.533  10.660  17.972  0.00  0.00    +0.000 C 
BRANCH  16  17
ATOM     17  N   UNL     1       9.888  11.244  17.990  0.00  0.00    +0.000 NA
ATOM     18  C   UNL     1      10.521  11.082  19.322  0.00  0.00    +0.000 C 
ATOM     19  C   UNL     1       9.990  12.043  20.403  0.00  0.00    +0.000 C 
ATOM     20  O   UNL     1      10.080  13.410  19.983  0.00  0.00    +0.000 OA
ATOM     21  C   UNL     1       9.371  13.607  18.754  0.00  0.00    +0.000 C 
ATOM     22  C   UNL     1       9.913  12.685  17.651  0.00  0.00    +0.000 C 
ENDBRANCH  16  17
ENDBRANCH  15  16
ENDBRANCH  13  15
ENDBRANCH   2  13
TORSDOF 8
ENDMDL
MODEL 8
REMARK VINA RESULT:      -6.2      1.782      2.405
REMARK  Name = 
REMARK  8 active torsions:
REMARK  status: ('A' for Active; 'I' for Inactive)
REMARK    1  A    between atoms: C_2  and  N_3
REMARK    2  A    between atoms: C_2  and  N_12
REMARK    3  A    between atoms: N_3  and  C_4
REMARK    4  A    between atoms: C_4  and  C_5
REMARK    5  A    between atoms: C_5  and  C_6
REMARK    6  A    between atoms: N_12  and  C_13
REMARK    7  A    between atoms: C_13  and  C_14
REMARK    8  A    between atoms: C_14  and  N_15
REMARK                            x       y       z     vdW  Elec       q    Type
REMARK                         _______ _______ _______ _____ _____    ______ ____
ROOT
ATOM      1  S   UNL     1       6.362   4.810  16.015  0.00  0.00    +0.000 S 
ATOM      2  C   UNL     1       6.954   5.155  17.538  0.00  0.00    +0.000 C 
ENDROOT
BRANCH   2   3
ATOM      3  N   UNL     1       8.045   5.955  17.801  0.00  0.00    +0.000 N 
ATOM      4  H   UNL     1       8.905   5.717  17.327  0.00  0.00    +0.000 HD
BRANCH   3   5
ATOM      5  C   UNL     1       8.041   7.210  18.547  0.00  0.00    +0.000 C 
BRANCH   5   6
ATOM      6  C   UNL     1       7.799   8.394  17.610  0.00  0.00    +0.000 C 
BRANCH   6   7
ATOM      7  C   UNL     1       8.439   9.651  18.134  0.00  0.00    +0.000 A 
ATOM      8  C   UNL     1       9.174   9.621  19.325  0.00  0.00    +0.000 A 
ATOM      9  C   UNL     1       9.748  10.790  19.825  0.00  0.00    +0.000 A 
ATOM     10  C   UNL     1       9.583  11.993  19.143  0.00  0.00    +0.000 A 
ATOM     11  C   UNL     1       8.848  12.032  17.960  0.00  0.00    +0.000 A 
ATOM     12  C   UNL     1       8.277  10.865  17.456  0.00  0.00    +0.000 A 
ENDBRANCH   6   7
ENDBRANCH   5   6
ENDBRANCH   3   5
ENDBRANCH   2   3
BRANCH   2  13
ATOM     13  N   UNL     1       6.427   4.686  18.722  0.00  0.00    +0.000 N 
ATOM     14  H   UNL     1       7.098   4.406  19.425  0.00  0.00    +0.000 HD
BRANCH  13  15
ATOM     15  C   UNL     1       5.048   4.831  19.181  0.00  0.00    +0.000 C 
BRANCH  15  16
ATOM     16  C   UNL     1       4.370   3.457  19.350  0.00  0.00    +0.000 C 
BRANCH  16  17
ATOM     17  N   UNL     1       3.788   2.916  18.106  0.00  0.00    +0.000 NA
ATOM     18  C   UNL     1       2.964   3.938  17.415  0.00  0.00    +0.000 C 
ATOM     19  C   UNL     1       1.588   4.193  18.060  0.00  0.00    +0.000 C 
ATOM     20  O   UNL     1       0.841   2.979  18.204  0.00  0.00    +0.000 OA
ATOM     21  C   UNL     1       1.578   2.021  18.973  0.00  0.00    +0.000 C 
ATOM     22  C   UNL     1       2.938   1.723  18.324  0.00  0.00    +0.000 C 
ENDBRANCH  16  17
ENDBRANCH  15  16
ENDBRANCH  13  15
ENDBRANCH   2  13
TORSDOF 8
ENDMDL
MODEL 9
REMARK VINA RESULT:      -6.2      3.026      8.464
REMARK  Name = 
REMARK  8 active torsions:
REMARK  status: ('A' for Active; 'I' for Inactive)
REMARK    1  A    between atoms: C_2  and  N_3
REMARK    2  A    between atoms: C_2  and  N_12
REMARK    3  A    between atoms: N_3  and  C_4
REMARK    4  A    between atoms: C_4  and  C_5
REMARK    5  A    between atoms: C_5  and  C_6
REMARK    6  A    between atoms: N_12  and  C_13
REMARK    7  A    between atoms: C_13  and  C_14
REMARK    8  A    between atoms: C_14  and  N_15
REMARK                            x       y       z     vdW  Elec       q    Type
REMARK                         _______ _______ _______ _____ _____    ______ ____
ROOT
ATOM      1  S   UNL     1       7.513   5.817  18.874  0.00  0.00    +0.000 S 
ATOM      2  C   UNL     1       7.553   6.723  17.473  0.00  0.00    +0.000 C 
ENDROOT
BRANCH   2   3
ATOM      3  N   UNL     1       7.440   6.215  16.197  0.00  0.00    +0.000 N 
ATOM      4  H   UNL     1       7.940   6.705  15.470  0.00  0.00    +0.000 HD
BRANCH   3   5
ATOM      5  C   UNL     1       6.825   4.945  15.821  0.00  0.00    +0.000 C 
BRANCH   5   6
ATOM      6  C   UNL     1       5.345   5.140  15.488  0.00  0.00    +0.000 C 
BRANCH   6   7
ATOM      7  C   UNL     1       4.473   4.890  16.688  0.00  0.00    +0.000 A 
ATOM      8  C   UNL     1       3.917   5.966  17.389  0.00  0.00    +0.000 A 
ATOM      9  C   UNL     1       3.129   5.737  18.517  0.00  0.00    +0.000 A 
ATOM     10  C   UNL     1       2.900   4.434  18.953  0.00  0.00    +0.000 A 
ATOM     11  C   UNL     1       3.456   3.357  18.265  0.00  0.00    +0.000 A 
ATOM     12  C   UNL     1       4.241   3.584  17.135  0.00  0.00    +0.000 A 
ENDBRANCH   6   7
ENDBRANCH   5   6
ENDBRANCH   3   5
ENDBRANCH   2   3
BRANCH   2  13
ATOM     13  N   UNL     1       7.704   8.093  17.415  0.00  0.00    +0.000 N 
ATOM     14  H   UNL     1       7.056   8.584  16.814  0.00  0.00    +0.000 HD
BRANCH  13  15
ATOM     15  C   UNL     1       8.476   8.925  18.334  0.00  0.00    +0.000 C 
BRANCH  15  16
ATOM     16  C   UNL     1       8.401  10.412  17.935  0.00  0.00    +0.000 C 
BRANCH  16  17
ATOM     17  N   UNL     1       9.669  11.147  18.111  0.00  0.00    +0.000 NA
ATOM     18  C   UNL     1      10.145  11.059  19.513  0.00  0.00    +0.000 C 
ATOM     19  C   UNL     1       9.379  11.955  20.506  0.00  0.00    +0.000 C 
ATOM     20  O   UNL     1       9.365  13.322  20.079  0.00  0.00    +0.000 OA
ATOM     21  C   UNL     1       8.797  13.436  18.769  0.00  0.00    +0.000 C 
ATOM     22  C   UNL     1       9.573  12.580  17.756  0.00  0.00    +0.000 C 
ENDBRANCH  16  17
ENDBRANCH  15  16
ENDBRANCH  13  15
ENDBRANCH   2  13
TORSDOF 8
ENDMDL
