MODEL 1
REMARK VINA RESULT:      -8.1      0.000      0.000
REMARK  Name = 
REMARK  4 active torsions:
REMARK  status: ('A' for Active; 'I' for Inactive)
REMARK    1  A    between atoms: C_2  and  C_3
REMARK    2  A    between atoms: N_6  and  S_7
REMARK    3  A    between atoms: S_7  and  C_10
REMARK    4  A    between atoms: C_14  and  N_15
REMARK                            x       y       z     vdW  Elec       q    Type
REMARK                         _______ _______ _______ _____ _____    ______ ____
ROOT
ATOM      1  C   UNL     1       2.842   5.551  17.863  0.00  0.00    +0.000 C 
ATOM      2  C   UNL     1       3.139   4.410  16.885  0.00  0.00    +0.000 C 
ATOM      3  C   UNL     1       4.623   4.163  16.636  0.00  0.00    +0.000 C 
ATOM      4  N   UNL     1       5.327   5.423  16.253  0.00  0.00    +0.000 NA
ATOM      5  C   UNL     1       5.113   6.503  17.273  0.00  0.00    +0.000 C 
ATOM      6  C   UNL     1       3.624   6.800  17.455  0.00  0.00    +0.000 C 
ENDROOT
BRANCH   1   8
ATOM      7  O   UNL     1       4.203   5.563  19.848  0.00  0.00    +0.000 OA
ATOM      8  C   UNL     1       3.143   5.209  19.330  0.00  0.00    +0.000 C 
ATOM      9  N   UNL     1       2.142   4.602  20.075  0.00  0.00    +0.000 N 
ATOM     10  C   UNL     1       2.261   4.522  21.538  0.00  0.00    +0.000 C 
ATOM     11  C   UNL     1       2.289   3.065  22.015  0.00  0.00    +0.000 C 
ATOM     12  O   UNL     1       1.166   2.327  21.503  0.00  0.00    +0.000 OA
ATOM     13  C   UNL     1       1.158   2.350  20.068  0.00  0.00    +0.000 C 
ATOM     14  C   UNL     1       1.041   3.788  19.546  0.00  0.00    +0.000 C 
ENDBRANCH   1   8
BRANCH   4  15
ATOM     15  S   UNL     1       7.018   5.187  15.964  0.00  0.00    +0.000 S 
ATOM     16  O   UNL     1       7.682   6.466  16.129  0.00  0.00    +0.000 OA
ATOM     17  O   UNL     1       7.442   4.029  16.721  0.00  0.00    +0.000 OA
BRANCH  15  18
ATOM     18  C   UNL     1       7.142   4.788  14.232  0.00  0.00    +0.000 A 
ATOM     19  C   UNL     1       7.983   5.539  13.400  0.00  0.00    +0.000 A 
ATOM     20  C   UNL     1       7.951   5.345  12.016  0.00  0.00    +0.000 A 
ATOM     21  C   UNL     1       7.085   4.402  11.462  0.00  0.00    +0.000 A 
ATOM     22  C   UNL     1       6.251   3.648  12.302  0.00  0.00    +0.000 A 
ATOM     23  C   UNL     1       6.269   3.839  13.691  0.00  0.00    +0.000 A 
BRANCH  22  24
ATOM     24  N   UNL     1       5.341   2.662  11.710  0.00  0.00    +0.000 N 
ATOM     25  O   UNL     1       4.175   3.015  11.481  0.00  0.00    +0.000 OA
ATOM     26  O   UNL     1       5.798   1.537  11.455  0.00  0.00    +0.000 OA
ENDBRANCH  22  24
ENDBRANCH  15  18
ENDBRANCH   4  15
TORSDOF 4
ENDMDL
MODEL 2
REMARK VINA RESULT:      -7.0      4.689      6.390
REMARK  Name = 
REMARK  4 active torsions:
REMARK  status: ('A' for Active; 'I' for Inactive)
REMARK    1  A    between atoms: C_2  and  C_3
REMARK    2  A    between atoms: N_6  and  S_7
REMARK    3  A    between atoms: S_7  and  C_10
REMARK    4  A    between atoms: C_14  and  N_15
REMARK                            x       y       z     vdW  Elec       q    Type
REMARK                         _______ _______ _______ _____ _____    ______ ____
ROOT
ATOM      1  C   UNL     1       1.390   9.874  18.953  0.00  0.00    +0.000 C 
ATOM      2  C   UNL     1       2.576   9.489  18.062  0.00  0.00    +0.000 C 
ATOM      3  C   UNL     1       2.709   7.992  17.803  0.00  0.00    +0.000 C 
ATOM      4  N   UNL     1       2.694   7.215  19.078  0.00  0.00    +0.000 NA
ATOM      5  C   UNL     1       1.475   7.525  19.895  0.00  0.00    +0.000 C 
ATOM      6  C   UNL     1       1.393   9.017  20.220  0.00  0.00    +0.000 C 
ENDROOT
BRANCH   1   8
ATOM      7  O   UNL     1      -0.085   9.150  17.194  0.00  0.00    +0.000 OA
ATOM      8  C   UNL     1       0.025   9.762  18.257  0.00  0.00    +0.000 C 
ATOM      9  N   UNL     1      -1.085  10.263  18.921  0.00  0.00    +0.000 N 
ATOM     10  C   UNL     1      -2.436   9.926  18.450  0.00  0.00    +0.000 C 
ATOM     11  C   UNL     1      -3.210  11.182  18.032  0.00  0.00    +0.000 C 
ATOM     12  O   UNL     1      -3.211  12.166  19.081  0.00  0.00    +0.000 OA
ATOM     13  C   UNL     1      -1.869  12.537  19.427  0.00  0.00    +0.000 C 
ATOM     14  C   UNL     1      -1.082  11.322  19.937  0.00  0.00    +0.000 C 
ENDBRANCH   1   8
BRANCH   4  15
ATOM     15  S   UNL     1       2.841   5.509  18.828  0.00  0.00    +0.000 S 
ATOM     16  O   UNL     1       2.646   4.851  20.105  0.00  0.00    +0.000 OA
ATOM     17  O   UNL     1       2.032   5.156  17.681  0.00  0.00    +0.000 OA
BRANCH  15  18
ATOM     18  C   UNL     1       4.550   5.247  18.396  0.00  0.00    +0.000 A 
ATOM     19  C   UNL     1       5.554   5.464  19.350  0.00  0.00    +0.000 A 
ATOM     20  C   UNL     1       6.898   5.431  18.969  0.00  0.00    +0.000 A 
ATOM     21  C   UNL     1       7.243   5.180  17.641  0.00  0.00    +0.000 A 
ATOM     22  C   UNL     1       6.232   4.956  16.692  0.00  0.00    +0.000 A 
ATOM     23  C   UNL     1       4.880   4.993  17.060  0.00  0.00    +0.000 A 
BRANCH  22  24
ATOM     24  N   UNL     1       6.604   4.696  15.298  0.00  0.00    +0.000 N 
ATOM     25  O   UNL     1       7.524   5.367  14.809  0.00  0.00    +0.000 OA
ATOM     26  O   UNL     1       5.989   3.803  14.694  0.00  0.00    +0.000 OA
ENDBRANCH  22  24
ENDBRANCH  15  18
ENDBRANCH   4  15
TORSDOF 4
ENDMDL
MODEL 3
REMARK VINA RESULT:      -6.9      2.169      7.829
REMARK  Name = 
REMARK  4 active torsions:
REMARK  status: ('A' for Active; 'I' for Inactive)
REMARK    1  A    between atoms: C_2  and  C_3
REMARK    2  A    between atoms: N_6  and  S_7
REMARK    3  A    between atoms: S_7  and  C_10
REMARK    4  A    between atoms: C_14  and  N_15
REMARK                            x       y       z     vdW  Elec       q    Type
REMARK                         _______ _______ _______ _____ _____    ______ ____
ROOT
ATOM      1  C   UNL     1       6.726   5.400  16.690  0.00  0.00    +0.000 C 
ATOM      2  C   UNL     1       6.473   5.006  18.148  0.00  0.00    +0.000 C 
ATOM      3  C   UNL     1       5.014   5.098  18.583  0.00  0.00    +0.000 C 
ATOM      4  N   UNL     1       4.433   6.435  18.258  0.00  0.00    +0.000 NA
ATOM      5  C   UNL     1       4.594   6.764  16.803  0.00  0.00    +0.000 C 
ATOM      6  C   UNL     1       6.068   6.750  16.396  0.00  0.00    +0.000 C 
ENDROOT
BRANCH   1   8
ATOM      7  O   UNL     1       5.751   3.294  16.050  0.00  0.00    +0.000 OA
ATOM      8  C   UNL     1       6.242   4.358  15.670  0.00  0.00    +0.000 C 
ATOM      9  N   UNL     1       6.266   4.704  14.327  0.00  0.00    +0.000 N 
ATOM     10  C   UNL     1       5.551   3.878  13.343  0.00  0.00    +0.000 C 
ATOM     11  C   UNL     1       6.515   3.288  12.305  0.00  0.00    +0.000 C 
ATOM     12  O   UNL     1       7.318   4.315  11.698  0.00  0.00    +0.000 OA
ATOM     13  C   UNL     1       8.076   5.019  12.693  0.00  0.00    +0.000 C 
ATOM     14  C   UNL     1       7.145   5.702  13.705  0.00  0.00    +0.000 C 
ENDBRANCH   1   8
BRANCH   4  15
ATOM     15  S   UNL     1       2.775   6.580  18.733  0.00  0.00    +0.000 S 
ATOM     16  O   UNL     1       2.736   7.224  20.032  0.00  0.00    +0.000 OA
ATOM     17  O   UNL     1       2.037   7.125  17.614  0.00  0.00    +0.000 OA
BRANCH  15  18
ATOM     18  C   UNL     1       2.218   4.908  18.997  0.00  0.00    +0.000 A 
ATOM     19  C   UNL     1       1.502   4.242  17.994  0.00  0.00    +0.000 A 
ATOM     20  C   UNL     1       0.914   3.003  18.260  0.00  0.00    +0.000 A 
ATOM     21  C   UNL     1       1.043   2.425  19.524  0.00  0.00    +0.000 A 
ATOM     22  C   UNL     1       1.769   3.094  20.522  0.00  0.00    +0.000 A 
ATOM     23  C   UNL     1       2.356   4.341  20.269  0.00  0.00    +0.000 A 
BRANCH  22  24
ATOM     24  N   UNL     1       1.895   2.480  21.848  0.00  0.00    +0.000 N 
ATOM     25  O   UNL     1       0.871   2.376  22.538  0.00  0.00    +0.000 OA
ATOM     26  O   UNL     1       3.019   2.082  22.194  0.00  0.00    +0.000 OA
ENDBRANCH  22  24
ENDBRANCH  15  18
ENDBRANCH   4  15
TORSDOF 4
ENDMDL
MODEL 4
REMARK VINA RESULT:      -6.8      7.099     10.011
REMARK  Name = 
REMARK  4 active torsions:
REMARK  status: ('A' for Active; 'I' for Inactive)
REMARK    1  A    between atoms: C_2  and  C_3
REMARK    2  A    between atoms: N_6  and  S_7
REMARK    3  A    between atoms: S_7  and  C_10
REMARK    4  A    between atoms: C_14  and  N_15
REMARK                            x       y       z     vdW  Elec       q    Type
REMARK                         _______ _______ _______ _____ _____    ______ ____
ROOT
ATOM      1  C   UNL     1      -0.290  12.571  18.659  0.00  0.00    +0.000 C 
ATOM      2  C   UNL     1      -0.919  11.214  18.325  0.00  0.00    +0.000 C 
ATOM      3  C   UNL     1      -0.811  10.179  19.439  0.00  0.00    +0.000 C 
ATOM      4  N   UNL     1       0.596  10.038  19.918  0.00  0.00    +0.000 NA
ATOM      5  C   UNL     1       1.167  11.360  20.340  0.00  0.00    +0.000 C 
ATOM      6  C   UNL     1       1.130  12.368  19.191  0.00  0.00    +0.000 C 
ENDROOT
BRANCH   1   8
ATOM      7  O   UNL     1      -2.022  12.891  20.299  0.00  0.00    +0.000 OA
ATOM      8  C   UNL     1      -1.102  13.405  19.662  0.00  0.00    +0.000 C 
ATOM      9  N   UNL     1      -0.690  14.706  19.909  0.00  0.00    +0.000 N 
ATOM     10  C   UNL     1      -1.236  15.444  21.057  0.00  0.00    +0.000 C 
ATOM     11  C   UNL     1      -1.990  16.700  20.605  0.00  0.00    +0.000 C 
ATOM     12  O   UNL     1      -1.173  17.518  19.750  0.00  0.00    +0.000 OA
ATOM     13  C   UNL     1      -0.757  16.780  18.592  0.00  0.00    +0.000 C 
ATOM     14  C   UNL     1       0.080  15.559  18.996  0.00  0.00    +0.000 C 
ENDBRANCH   1   8
BRANCH   4  15
ATOM     15  S   UNL     1       0.762   8.872  21.187  0.00  0.00    +0.000 S 
ATOM     16  O   UNL     1       1.673   9.414  22.176  0.00  0.00    +0.000 OA
ATOM     17  O   UNL     1      -0.565   8.432  21.562  0.00  0.00    +0.000 OA
BRANCH  15  18
ATOM     18  C   UNL     1       1.609   7.493  20.443  0.00  0.00    +0.000 A 
ATOM     19  C   UNL     1       2.286   7.660  19.227  0.00  0.00    +0.000 A 
ATOM     20  C   UNL     1       2.800   6.548  18.554  0.00  0.00    +0.000 A 
ATOM     21  C   UNL     1       2.643   5.271  19.093  0.00  0.00    +0.000 A 
ATOM     22  C   UNL     1       1.971   5.111  20.315  0.00  0.00    +0.000 A 
ATOM     23  C   UNL     1       1.445   6.218  20.996  0.00  0.00    +0.000 A 
BRANCH  22  24
ATOM     24  N   UNL     1       1.808   3.764  20.872  0.00  0.00    +0.000 N 
ATOM     25  O   UNL     1       1.346   2.884  20.132  0.00  0.00    +0.000 OA
ATOM     26  O   UNL     1       2.160   3.580  22.047  0.00  0.00    +0.000 OA
ENDBRANCH  22  24
ENDBRANCH  15  18
ENDBRANCH   4  15
TORSDOF 4
ENDMDL
MODEL 5
REMARK VINA RESULT:      -6.7      3.198      8.480
REMARK  Name = 
REMARK  4 active torsions:
REMARK  status: ('A' for Active; 'I' for Inactive)
REMARK    1  A    between atoms: C_2  and  C_3
REMARK    2  A    between atoms: N_6  and  S_7
REMARK    3  A    between atoms: S_7  and  C_10
REMARK    4  A    between atoms: C_14  and  N_15
REMARK                            x       y       z     vdW  Elec       q    Type
REMARK                         _______ _______ _______ _____ _____    ______ ____
ROOT
ATOM      1  C   UNL     1       6.587   5.203  16.778  0.00  0.00    +0.000 C 
ATOM      2  C   UNL     1       6.530   4.641  18.201  0.00  0.00    +0.000 C 
ATOM      3  C   UNL     1       5.119   4.453  18.749  0.00  0.00    +0.000 C 
ATOM      4  N   UNL     1       4.311   5.701  18.610  0.00  0.00    +0.000 NA
ATOM      5  C   UNL     1       4.289   6.185  17.190  0.00  0.00    +0.000 C 
ATOM      6  C   UNL     1       5.705   6.449  16.676  0.00  0.00    +0.000 C 
ENDROOT
BRANCH   1   8
ATOM      7  O   UNL     1       5.730   3.091  16.003  0.00  0.00    +0.000 OA
ATOM      8  C   UNL     1       6.182   4.194  15.692  0.00  0.00    +0.000 C 
ATOM      9  N   UNL     1       6.229   4.609  14.369  0.00  0.00    +0.000 N 
ATOM     10  C   UNL     1       5.582   3.804  13.323  0.00  0.00    +0.000 C 
ATOM     11  C   UNL     1       6.601   3.311  12.289  0.00  0.00    +0.000 C 
ATOM     12  O   UNL     1       7.374   4.403  11.759  0.00  0.00    +0.000 OA
ATOM     13  C   UNL     1       8.069   5.088  12.811  0.00  0.00    +0.000 C 
ATOM     14  C   UNL     1       7.078   5.676  13.826  0.00  0.00    +0.000 C 
ENDBRANCH   1   8
BRANCH   4  15
ATOM     15  S   UNL     1       2.700   5.530  19.218  0.00  0.00    +0.000 S 
ATOM     16  O   UNL     1       1.924   4.801  18.233  0.00  0.00    +0.000 OA
ATOM     17  O   UNL     1       2.787   5.064  20.586  0.00  0.00    +0.000 OA
BRANCH  15  18
ATOM     18  C   UNL     1       2.034   7.182  19.242  0.00  0.00    +0.000 A 
ATOM     19  C   UNL     1       2.116   7.986  18.097  0.00  0.00    +0.000 A 
ATOM     20  C   UNL     1       1.756   9.335  18.164  0.00  0.00    +0.000 A 
ATOM     21  C   UNL     1       1.312   9.882  19.368  0.00  0.00    +0.000 A 
ATOM     22  C   UNL     1       1.225   9.069  20.509  0.00  0.00    +0.000 A 
ATOM     23  C   UNL     1       1.589   7.716  20.457  0.00  0.00    +0.000 A 
BRANCH  22  24
ATOM     24  N   UNL     1       0.760   9.654  21.771  0.00  0.00    +0.000 N 
ATOM     25  O   UNL     1       1.519   9.596  22.749  0.00  0.00    +0.000 OA
ATOM     26  O   UNL     1      -0.359  10.190  21.780  0.00  0.00    +0.000 OA
ENDBRANCH  22  24
ENDBRANCH  15  18
ENDBRANCH   4  15
TORSDOF 4
ENDMDL
MODEL 6
REMARK VINA RESULT:      -6.6      3.274      8.208
REMARK  Name = 
REMARK  4 active torsions:
REMARK  status: ('A' for Active; 'I' for Inactive)
REMARK    1  A    between atoms: C_2  and  C_3
REMARK    2  A    between atoms: N_6  and  S_7
REMARK    3  A    between atoms: S_7  and  C_10
REMARK    4  A    between atoms: C_14  and  N_15
REMARK                            x       y       z     vdW  Elec       q    Type
REMARK                         _______ _______ _______ _____ _____    ______ ____
ROOT
ATOM      1  C   UNL     1       6.470   5.241  16.807  0.00  0.00    +0.000 C 
ATOM      2  C   UNL     1       6.483   4.665  18.226  0.00  0.00    +0.000 C 
ATOM      3  C   UNL     1       5.100   4.399  18.811  0.00  0.00    +0.000 C 
ATOM      4  N   UNL     1       4.224   5.604  18.707  0.00  0.00    +0.000 NA
ATOM      5  C   UNL     1       4.136   6.098  17.293  0.00  0.00    +0.000 C 
ATOM      6  C   UNL     1       5.521   6.440  16.742  0.00  0.00    +0.000 C 
ENDROOT
BRANCH   1   8
ATOM      7  O   UNL     1       5.627   3.123  16.036  0.00  0.00    +0.000 OA
ATOM      8  C   UNL     1       6.087   4.221  15.723  0.00  0.00    +0.000 C 
ATOM      9  N   UNL     1       6.163   4.623  14.397  0.00  0.00    +0.000 N 
ATOM     10  C   UNL     1       5.538   3.807  13.346  0.00  0.00    +0.000 C 
ATOM     11  C   UNL     1       6.579   3.303  12.339  0.00  0.00    +0.000 C 
ATOM     12  O   UNL     1       7.365   4.388  11.815  0.00  0.00    +0.000 OA
ATOM     13  C   UNL     1       8.037   5.083  12.875  0.00  0.00    +0.000 C 
ATOM     14  C   UNL     1       7.026   5.683  13.861  0.00  0.00    +0.000 C 
ENDBRANCH   1   8
BRANCH   4  15
ATOM     15  S   UNL     1       2.642   5.343  19.359  0.00  0.00    +0.000 S 
ATOM     16  O   UNL     1       1.769   4.947  18.271  0.00  0.00    +0.000 OA
ATOM     17  O   UNL     1       2.778   4.516  20.539  0.00  0.00    +0.000 OA
BRANCH  15  18
ATOM     18  C   UNL     1       2.082   6.953  19.877  0.00  0.00    +0.000 A 
ATOM     19  C   UNL     1       1.507   7.120  21.144  0.00  0.00    +0.000 A 
ATOM     20  C   UNL     1       0.909   8.336  21.485  0.00  0.00    +0.000 A 
ATOM     21  C   UNL     1       0.886   9.386  20.567  0.00  0.00    +0.000 A 
ATOM     22  C   UNL     1       1.470   9.215  19.303  0.00  0.00    +0.000 A 
ATOM     23  C   UNL     1       2.067   7.997  18.946  0.00  0.00    +0.000 A 
BRANCH  22  24
ATOM     24  N   UNL     1       1.438  10.323  18.343  0.00  0.00    +0.000 N 
ATOM     25  O   UNL     1       0.546  11.173  18.470  0.00  0.00    +0.000 OA
ATOM     26  O   UNL     1       2.320  10.355  17.470  0.00  0.00    +0.000 OA
ENDBRANCH  22  24
ENDBRANCH  15  18
ENDBRANCH   4  15
TORSDOF 4
ENDMDL
MODEL 7
REMARK VINA RESULT:      -6.5      7.390      9.516
REMARK  Name = 
REMARK  4 active torsions:
REMARK  status: ('A' for Active; 'I' for Inactive)
REMARK    1  A    between atoms: C_2  and  C_3
REMARK    2  A    between atoms: N_6  and  S_7
REMARK    3  A    between atoms: S_7  and  C_10
REMARK    4  A    between atoms: C_14  and  N_15
REMARK                            x       y       z     vdW  Elec       q    Type
REMARK                         _______ _______ _______ _____ _____    ______ ____
ROOT
ATOM      1  C   UNL     1      -2.818  11.656  17.911  0.00  0.00    +0.000 C 
ATOM      2  C   UNL     1      -2.701  10.129  17.920  0.00  0.00    +0.000 C 
ATOM      3  C   UNL     1      -1.837   9.569  19.045  0.00  0.00    +0.000 C 
ATOM      4  N   UNL     1      -0.499  10.231  19.085  0.00  0.00    +0.000 NA
ATOM      5  C   UNL     1      -0.628  11.723  19.181  0.00  0.00    +0.000 C 
ATOM      6  C   UNL     1      -1.427  12.284  18.004  0.00  0.00    +0.000 C 
ENDROOT
BRANCH   1   8
ATOM      7  O   UNL     1      -3.215  12.790  19.997  0.00  0.00    +0.000 OA
ATOM      8  C   UNL     1      -3.713  12.218  19.026  0.00  0.00    +0.000 C 
ATOM      9  N   UNL     1      -5.088  12.167  18.844  0.00  0.00    +0.000 N 
ATOM     10  C   UNL     1      -5.974  12.943  19.723  0.00  0.00    +0.000 C 
ATOM     11  C   UNL     1      -6.926  12.027  20.504  0.00  0.00    +0.000 C 
ATOM     12  O   UNL     1      -7.642  11.146  19.621  0.00  0.00    +0.000 OA
ATOM     13  C   UNL     1      -6.730  10.337  18.864  0.00  0.00    +0.000 C 
ATOM     14  C   UNL     1      -5.814  11.213  17.997  0.00  0.00    +0.000 C 
ENDBRANCH   1   8
BRANCH   4  15
ATOM     15  S   UNL     1       0.514   9.626  20.351  0.00  0.00    +0.000 S 
ATOM     16  O   UNL     1       1.304  10.731  20.859  0.00  0.00    +0.000 OA
ATOM     17  O   UNL     1      -0.310   8.833  21.239  0.00  0.00    +0.000 OA
BRANCH  15  18
ATOM     18  C   UNL     1       1.663   8.530  19.544  0.00  0.00    +0.000 A 
ATOM     19  C   UNL     1       2.092   8.804  18.238  0.00  0.00    +0.000 A 
ATOM     20  C   UNL     1       2.851   7.861  17.540  0.00  0.00    +0.000 A 
ATOM     21  C   UNL     1       3.187   6.648  18.142  0.00  0.00    +0.000 A 
ATOM     22  C   UNL     1       2.761   6.384  19.453  0.00  0.00    +0.000 A 
ATOM     23  C   UNL     1       1.993   7.319  20.161  0.00  0.00    +0.000 A 
BRANCH  22  24
ATOM     24  N   UNL     1       3.115   5.105  20.077  0.00  0.00    +0.000 N 
ATOM     25  O   UNL     1       4.092   4.491  19.625  0.00  0.00    +0.000 OA
ATOM     26  O   UNL     1       2.427   4.721  21.035  0.00  0.00    +0.000 OA
ENDBRANCH  22  24
ENDBRANCH  15  18
ENDBRANCH   4  15
TORSDOF 4
ENDMDL
MODEL 8
REMARK VINA RESULT:      -6.4      3.511      5.696
REMARK  Name = 
REMARK  4 active torsions:
REMARK  status: ('A' for Active; 'I' for Inactive)
REMARK    1  A    between atoms: C_2  and  C_3
REMARK    2  A    between atoms: N_6  and  S_7
REMARK    3  A    between atoms: S_7  and  C_10
REMARK    4  A    between atoms: C_14  and  N_15
REMARK                            x       y       z     vdW  Elec       q    Type
REMARK                         _______ _______ _______ _____ _____    ______ ____
ROOT
ATOM      1  C   UNL     1       1.508   5.649  20.944  0.00  0.00    +0.000 C 
ATOM      2  C   UNL     1       2.771   4.861  21.303  0.00  0.00    +0.000 C 
ATOM      3  C   UNL     1       3.509   4.272  20.106  0.00  0.00    +0.000 C 
ATOM      4  N   UNL     1       2.589   3.483  19.234  0.00  0.00    +0.000 NA
ATOM      5  C   UNL     1       1.407   4.300  18.803  0.00  0.00    +0.000 C 
ATOM      6  C   UNL     1       0.625   4.818  20.011  0.00  0.00    +0.000 C 
ENDROOT
BRANCH   1   8
ATOM      7  O   UNL     1       2.677   7.142  19.460  0.00  0.00    +0.000 OA
ATOM      8  C   UNL     1       1.789   7.018  20.304  0.00  0.00    +0.000 C 
ATOM      9  N   UNL     1       0.938   8.068  20.617  0.00  0.00    +0.000 N 
ATOM     10  C   UNL     1       0.974   9.304  19.823  0.00  0.00    +0.000 C 
ATOM     11  C   UNL     1       1.357  10.511  20.688  0.00  0.00    +0.000 C 
ATOM     12  O   UNL     1       0.510  10.613  21.845  0.00  0.00    +0.000 OA
ATOM     13  C   UNL     1       0.595   9.422  22.640  0.00  0.00    +0.000 C 
ATOM     14  C   UNL     1       0.134   8.197  21.839  0.00  0.00    +0.000 C 
ENDBRANCH   1   8
BRANCH   4  15
ATOM     15  S   UNL     1       3.388   2.798  17.859  0.00  0.00    +0.000 S 
ATOM     16  O   UNL     1       4.104   1.617  18.301  0.00  0.00    +0.000 OA
ATOM     17  O   UNL     1       2.428   2.722  16.779  0.00  0.00    +0.000 OA
BRANCH  15  18
ATOM     18  C   UNL     1       4.634   3.987  17.405  0.00  0.00    +0.000 A 
ATOM     19  C   UNL     1       4.873   4.268  16.053  0.00  0.00    +0.000 A 
ATOM     20  C   UNL     1       5.962   5.064  15.687  0.00  0.00    +0.000 A 
ATOM     21  C   UNL     1       6.810   5.582  16.666  0.00  0.00    +0.000 A 
ATOM     22  C   UNL     1       6.560   5.303  18.018  0.00  0.00    +0.000 A 
ATOM     23  C   UNL     1       5.475   4.500  18.398  0.00  0.00    +0.000 A 
BRANCH  22  24
ATOM     24  N   UNL     1       7.460   5.848  19.040  0.00  0.00    +0.000 N 
ATOM     25  O   UNL     1       7.484   5.292  20.147  0.00  0.00    +0.000 OA
ATOM     26  O   UNL     1       8.160   6.824  18.730  0.00  0.00    +0.000 OA
ENDBRANCH  22  24
ENDBRANCH  15  18
ENDBRANCH   4  15
TORSDOF 4
ENDMDL
MODEL 9
REMARK VINA RESULT:      -6.4      7.111      8.971
REMARK  Name = 
REMARK  4 active torsions:
REMARK  status: ('A' for Active; 'I' for Inactive)
REMARK    1  A    between atoms: C_2  and  C_3
REMARK    2  A    between atoms: N_6  and  S_7
REMARK    3  A    between atoms: S_7  and  C_10
REMARK    4  A    between atoms: C_14  and  N_15
REMARK                            x       y       z     vdW  Elec       q    Type
REMARK                         _______ _______ _______ _____ _____    ______ ____
ROOT
ATOM      1  C   UNL     1      -0.473  11.881  21.884  0.00  0.00    +0.000 C 
ATOM      2  C   UNL     1       0.839  12.389  21.279  0.00  0.00    +0.000 C 
ATOM      3  C   UNL     1       1.131  11.867  19.876  0.00  0.00    +0.000 C 
ATOM      4  N   UNL     1       1.030  10.379  19.817  0.00  0.00    +0.000 NA
ATOM      5  C   UNL     1      -0.302   9.899  20.316  0.00  0.00    +0.000 C 
ATOM      6  C   UNL     1      -0.550  10.359  21.753  0.00  0.00    +0.000 C 
ENDROOT
BRANCH   1   8
ATOM      7  O   UNL     1      -1.713  12.937  20.110  0.00  0.00    +0.000 OA
ATOM      8  C   UNL     1      -1.730  12.515  21.268  0.00  0.00    +0.000 C 
ATOM      9  N   UNL     1      -2.902  12.486  22.009  0.00  0.00    +0.000 N 
ATOM     10  C   UNL     1      -4.185  12.804  21.366  0.00  0.00    +0.000 C 
ATOM     11  C   UNL     1      -4.842  14.032  22.011  0.00  0.00    +0.000 C 
ATOM     12  O   UNL     1      -4.952  13.875  23.436  0.00  0.00    +0.000 OA
ATOM     13  C   UNL     1      -3.659  13.674  24.024  0.00  0.00    +0.000 C 
ATOM     14  C   UNL     1      -3.001  12.402  23.471  0.00  0.00    +0.000 C 
ENDBRANCH   1   8
BRANCH   4  15
ATOM     15  S   UNL     1       1.352   9.745  18.239  0.00  0.00    +0.000 S 
ATOM     16  O   UNL     1       0.080   9.443  17.610  0.00  0.00    +0.000 OA
ATOM     17  O   UNL     1       2.309  10.619  17.595  0.00  0.00    +0.000 OA
BRANCH  15  18
ATOM     18  C   UNL     1       2.144   8.174  18.522  0.00  0.00    +0.000 A 
ATOM     19  C   UNL     1       1.922   7.484  19.721  0.00  0.00    +0.000 A 
ATOM     20  C   UNL     1       2.673   6.344  20.021  0.00  0.00    +0.000 A 
ATOM     21  C   UNL     1       3.643   5.890  19.126  0.00  0.00    +0.000 A 
ATOM     22  C   UNL     1       3.855   6.582  17.923  0.00  0.00    +0.000 A 
ATOM     23  C   UNL     1       3.112   7.731  17.614  0.00  0.00    +0.000 A 
BRANCH  22  24
ATOM     24  N   UNL     1       4.879   6.100  16.991  0.00  0.00    +0.000 N 
ATOM     25  O   UNL     1       4.638   5.067  16.350  0.00  0.00    +0.000 OA
ATOM     26  O   UNL     1       5.919   6.767  16.882  0.00  0.00    +0.000 OA
ENDBRANCH  22  24
ENDBRANCH  15  18
ENDBRANCH   4  15
TORSDOF 4
ENDMDL
