MODEL 1
REMARK VINA RESULT:      -7.8      0.000      0.000
REMARK  Name = 
REMARK  8 active torsions:
REMARK  status: ('A' for Active; 'I' for Inactive)
REMARK    1  A    between atoms: C_1  and  O_2
REMARK    2  A    between atoms: O_2  and  C_3
REMARK    3  A    between atoms: C_7  and  C_8
REMARK    4  A    between atoms: C_12  and  C_13
REMARK    5  A    between atoms: C_14  and  C_15
REMARK    6  A    between atoms: C_15  and  O_17
REMARK    7  A    between atoms: C_19  and  O_20
REMARK    8  A    between atoms: O_20  and  C_21
REMARK                            x       y       z     vdW  Elec       q    Type
REMARK                         _______ _______ _______ _____ _____    ______ ____
ROOT
ATOM      1  C   UNL     1       2.818   7.179  18.589  0.00  0.00    +0.000 A 
ATOM      2  C   UNL     1       3.620   7.408  17.495  0.00  0.00    +0.000 A 
ATOM      3  C   UNL     1       4.142   6.169  17.100  0.00  0.00    +0.000 A 
ATOM      4  C   UNL     1       4.953   5.799  16.019  0.00  0.00    +0.000 A 
ATOM      5  C   UNL     1       5.291   4.461  15.816  0.00  0.00    +0.000 A 
ATOM      6  C   UNL     1       4.823   3.508  16.726  0.00  0.00    +0.000 A 
ATOM      7  C   UNL     1       4.006   3.848  17.840  0.00  0.00    +0.000 A 
ATOM      8  C   UNL     1       3.671   5.208  17.990  0.00  0.00    +0.000 A 
ATOM      9  O   UNL     1       2.861   5.840  18.922  0.00  0.00    +0.000 OA
ENDROOT
BRANCH   1  14
ATOM     10  C   UNL     1       0.735  10.194  19.521  0.00  0.00    +0.000 A 
ATOM     11  C   UNL     1       0.480   9.927  20.872  0.00  0.00    +0.000 A 
ATOM     12  C   UNL     1       0.920   8.744  21.446  0.00  0.00    +0.000 A 
ATOM     13  C   UNL     1       1.642   7.839  20.670  0.00  0.00    +0.000 A 
ATOM     14  C   UNL     1       1.937   8.095  19.315  0.00  0.00    +0.000 A 
ATOM     15  C   UNL     1       1.439   9.269  18.743  0.00  0.00    +0.000 A 
BRANCH  10  17
ATOM     16  C   UNL     1      -1.141  11.593  19.158  0.00  0.00    +0.000 C 
ATOM     17  O   UNL     1       0.266  11.409  19.094  0.00  0.00    +0.000 OA
ENDBRANCH  10  17
ENDBRANCH   1  14
BRANCH   5  18
ATOM     18  C   UNL     1       6.091   4.203  14.609  0.00  0.00    +0.000 C 
ATOM     19  C   UNL     1       5.677   3.854  13.384  0.00  0.00    +0.000 C 
BRANCH  19  20
ATOM     20  C   UNL     1       6.722   3.679  12.349  0.00  0.00    +0.000 C 
ATOM     21  O   UNL     1       7.480   4.554  11.963  0.00  0.00    +0.000 OA
BRANCH  20  22
ATOM     22  O   UNL     1       6.753   2.423  11.861  0.00  0.00    +0.000 OA
ATOM     23  H   UNL     1       6.400   2.319  10.961  0.00  0.00    +0.000 HD
ENDBRANCH  20  22
ENDBRANCH  19  20
ENDBRANCH   5  18
BRANCH   7  24
ATOM     24  O   UNL     1       3.623   2.738  18.580  0.00  0.00    +0.000 OA
ATOM     25  C   UNL     1       2.258   2.359  18.574  0.00  0.00    +0.000 C 
ENDBRANCH   7  24
TORSDOF 6
ENDMDL
MODEL 2
REMARK VINA RESULT:      -7.8      1.107      1.646
REMARK  Name = 
REMARK  8 active torsions:
REMARK  status: ('A' for Active; 'I' for Inactive)
REMARK    1  A    between atoms: C_1  and  O_2
REMARK    2  A    between atoms: O_2  and  C_3
REMARK    3  A    between atoms: C_7  and  C_8
REMARK    4  A    between atoms: C_12  and  C_13
REMARK    5  A    between atoms: C_14  and  C_15
REMARK    6  A    between atoms: C_15  and  O_17
REMARK    7  A    between atoms: C_19  and  O_20
REMARK    8  A    between atoms: O_20  and  C_21
REMARK                            x       y       z     vdW  Elec       q    Type
REMARK                         _______ _______ _______ _____ _____    ______ ____
ROOT
ATOM      1  C   UNL     1       2.677   7.581  18.539  0.00  0.00    +0.000 A 
ATOM      2  C   UNL     1       3.427   7.814  17.409  0.00  0.00    +0.000 A 
ATOM      3  C   UNL     1       4.049   6.604  17.070  0.00  0.00    +0.000 A 
ATOM      4  C   UNL     1       4.862   6.243  15.989  0.00  0.00    +0.000 A 
ATOM      5  C   UNL     1       5.315   4.930  15.854  0.00  0.00    +0.000 A 
ATOM      6  C   UNL     1       4.958   3.997  16.833  0.00  0.00    +0.000 A 
ATOM      7  C   UNL     1       4.143   4.329  17.949  0.00  0.00    +0.000 A 
ATOM      8  C   UNL     1       3.690   5.661  18.030  0.00  0.00    +0.000 A 
ATOM      9  O   UNL     1       2.849   6.275  18.948  0.00  0.00    +0.000 OA
ENDROOT
BRANCH   1  14
ATOM     10  C   UNL     1       0.326   9.007  21.136  0.00  0.00    +0.000 A 
ATOM     11  C   UNL     1      -0.281  10.033  20.402  0.00  0.00    +0.000 A 
ATOM     12  C   UNL     1       0.127  10.300  19.103  0.00  0.00    +0.000 A 
ATOM     13  C   UNL     1       1.127   9.516  18.529  0.00  0.00    +0.000 A 
ATOM     14  C   UNL     1       1.736   8.458  19.236  0.00  0.00    +0.000 A 
ATOM     15  C   UNL     1       1.347   8.241  20.560  0.00  0.00    +0.000 A 
BRANCH  10  17
ATOM     16  C   UNL     1      -0.518  10.025  23.100  0.00  0.00    +0.000 C 
ATOM     17  O   UNL     1      -0.191   8.837  22.393  0.00  0.00    +0.000 OA
ENDBRANCH  10  17
ENDBRANCH   1  14
BRANCH   5  18
ATOM     18  C   UNL     1       6.104   4.671  14.640  0.00  0.00    +0.000 C 
ATOM     19  C   UNL     1       5.849   3.822  13.636  0.00  0.00    +0.000 C 
BRANCH  19  20
ATOM     20  C   UNL     1       6.826   3.789  12.522  0.00  0.00    +0.000 C 
ATOM     21  O   UNL     1       7.564   4.709  12.210  0.00  0.00    +0.000 OA
BRANCH  20  22
ATOM     22  O   UNL     1       6.816   2.610  11.870  0.00  0.00    +0.000 OA
ATOM     23  H   UNL     1       7.111   2.646  10.944  0.00  0.00    +0.000 HD
ENDBRANCH  20  22
ENDBRANCH  19  20
ENDBRANCH   5  18
BRANCH   7  24
ATOM     24  O   UNL     1       3.881   3.237  18.765  0.00  0.00    +0.000 OA
ATOM     25  C   UNL     1       2.538   2.810  18.912  0.00  0.00    +0.000 C 
ENDBRANCH   7  24
TORSDOF 6
ENDMDL
MODEL 3
REMARK VINA RESULT:      -7.7      1.783      2.771
REMARK  Name = 
REMARK  8 active torsions:
REMARK  status: ('A' for Active; 'I' for Inactive)
REMARK    1  A    between atoms: C_1  and  O_2
REMARK    2  A    between atoms: O_2  and  C_3
REMARK    3  A    between atoms: C_7  and  C_8
REMARK    4  A    between atoms: C_12  and  C_13
REMARK    5  A    between atoms: C_14  and  C_15
REMARK    6  A    between atoms: C_15  and  O_17
REMARK    7  A    between atoms: C_19  and  O_20
REMARK    8  A    between atoms: O_20  and  C_21
REMARK                            x       y       z     vdW  Elec       q    Type
REMARK                         _______ _______ _______ _____ _____    ______ ____
ROOT
ATOM      1  C   UNL     1       1.411   9.007  18.891  0.00  0.00    +0.000 A 
ATOM      2  C   UNL     1       2.300   8.940  17.843  0.00  0.00    +0.000 A 
ATOM      3  C   UNL     1       3.008   7.737  17.979  0.00  0.00    +0.000 A 
ATOM      4  C   UNL     1       3.975   7.126  17.171  0.00  0.00    +0.000 A 
ATOM      5  C   UNL     1       4.490   5.875  17.511  0.00  0.00    +0.000 A 
ATOM      6  C   UNL     1       4.038   5.263  18.684  0.00  0.00    +0.000 A 
ATOM      7  C   UNL     1       3.064   5.857  19.533  0.00  0.00    +0.000 A 
ATOM      8  C   UNL     1       2.555   7.109  19.136  0.00  0.00    +0.000 A 
ATOM      9  O   UNL     1       1.574   7.907  19.708  0.00  0.00    +0.000 OA
ENDROOT
BRANCH   1  14
ATOM     10  C   UNL     1      -1.631  11.221  18.506  0.00  0.00    +0.000 A 
ATOM     11  C   UNL     1      -1.488  12.057  19.620  0.00  0.00    +0.000 A 
ATOM     12  C   UNL     1      -0.454  11.848  20.521  0.00  0.00    +0.000 A 
ATOM     13  C   UNL     1       0.455  10.818  20.289  0.00  0.00    +0.000 A 
ATOM     14  C   UNL     1       0.350   9.979  19.159  0.00  0.00    +0.000 A 
ATOM     15  C   UNL     1      -0.729  10.173  18.293  0.00  0.00    +0.000 A 
BRANCH  10  17
ATOM     16  C   UNL     1      -2.611  11.068  16.355  0.00  0.00    +0.000 C 
ATOM     17  O   UNL     1      -2.678  11.555  17.688  0.00  0.00    +0.000 OA
ENDBRANCH  10  17
ENDBRANCH   1  14
BRANCH   5  18
ATOM     18  C   UNL     1       5.449   5.318  16.544  0.00  0.00    +0.000 C 
ATOM     19  C   UNL     1       5.452   5.422  15.208  0.00  0.00    +0.000 C 
BRANCH  19  20
ATOM     20  C   UNL     1       6.568   4.766  14.489  0.00  0.00    +0.000 C 
ATOM     21  O   UNL     1       6.453   3.811  13.738  0.00  0.00    +0.000 OA
BRANCH  20  22
ATOM     22  O   UNL     1       7.756   5.345  14.754  0.00  0.00    +0.000 OA
ATOM     23  H   UNL     1       7.924   6.180  14.285  0.00  0.00    +0.000 HD
ENDBRANCH  20  22
ENDBRANCH  19  20
ENDBRANCH   5  18
BRANCH   7  24
ATOM     24  O   UNL     1       2.734   5.051  20.614  0.00  0.00    +0.000 OA
ATOM     25  C   UNL     1       1.451   4.449  20.642  0.00  0.00    +0.000 C 
ENDBRANCH   7  24
TORSDOF 6
ENDMDL
MODEL 4
REMARK VINA RESULT:      -7.6      1.654      2.474
REMARK  Name = 
REMARK  8 active torsions:
REMARK  status: ('A' for Active; 'I' for Inactive)
REMARK    1  A    between atoms: C_1  and  O_2
REMARK    2  A    between atoms: O_2  and  C_3
REMARK    3  A    between atoms: C_7  and  C_8
REMARK    4  A    between atoms: C_12  and  C_13
REMARK    5  A    between atoms: C_14  and  C_15
REMARK    6  A    between atoms: C_15  and  O_17
REMARK    7  A    between atoms: C_19  and  O_20
REMARK    8  A    between atoms: O_20  and  C_21
REMARK                            x       y       z     vdW  Elec       q    Type
REMARK                         _______ _______ _______ _____ _____    ______ ____
ROOT
ATOM      1  C   UNL     1       1.770   8.588  19.295  0.00  0.00    +0.000 A 
ATOM      2  C   UNL     1       2.546   8.561  18.160  0.00  0.00    +0.000 A 
ATOM      3  C   UNL     1       3.147   7.295  18.102  0.00  0.00    +0.000 A 
ATOM      4  C   UNL     1       3.972   6.696  17.142  0.00  0.00    +0.000 A 
ATOM      5  C   UNL     1       4.397   5.376  17.300  0.00  0.00    +0.000 A 
ATOM      6  C   UNL     1       4.001   4.681  18.446  0.00  0.00    +0.000 A 
ATOM      7  C   UNL     1       3.172   5.259  19.447  0.00  0.00    +0.000 A 
ATOM      8  C   UNL     1       2.748   6.585  19.231  0.00  0.00    +0.000 A 
ATOM      9  O   UNL     1       1.905   7.396  19.978  0.00  0.00    +0.000 OA
ENDROOT
BRANCH   1  14
ATOM     10  C   UNL     1      -0.224  10.886  21.541  0.00  0.00    +0.000 A 
ATOM     11  C   UNL     1      -1.172  11.379  20.634  0.00  0.00    +0.000 A 
ATOM     12  C   UNL     1      -1.109  11.021  19.296  0.00  0.00    +0.000 A 
ATOM     13  C   UNL     1      -0.113  10.144  18.871  0.00  0.00    +0.000 A 
ATOM     14  C   UNL     1       0.836   9.611  19.768  0.00  0.00    +0.000 A 
ATOM     15  C   UNL     1       0.788  10.026  21.101  0.00  0.00    +0.000 A 
BRANCH  10  17
ATOM     16  C   UNL     1      -1.720  11.780  23.146  0.00  0.00    +0.000 C 
ATOM     17  O   UNL     1      -0.419  11.300  22.832  0.00  0.00    +0.000 OA
ENDBRANCH  10  17
ENDBRANCH   1  14
BRANCH   5  18
ATOM     18  C   UNL     1       5.203   4.850  16.188  0.00  0.00    +0.000 C 
ATOM     19  C   UNL     1       5.884   5.522  15.251  0.00  0.00    +0.000 C 
BRANCH  19  20
ATOM     20  C   UNL     1       6.629   4.715  14.257  0.00  0.00    +0.000 C 
ATOM     21  O   UNL     1       7.465   5.153  13.483  0.00  0.00    +0.000 OA
BRANCH  20  22
ATOM     22  O   UNL     1       6.282   3.413  14.294  0.00  0.00    +0.000 OA
ATOM     23  H   UNL     1       5.328   3.237  14.223  0.00  0.00    +0.000 HD
ENDBRANCH  20  22
ENDBRANCH  19  20
ENDBRANCH   5  18
BRANCH   7  24
ATOM     24  O   UNL     1       2.870   4.371  20.470  0.00  0.00    +0.000 OA
ATOM     25  C   UNL     1       2.559   3.030  20.132  0.00  0.00    +0.000 C 
ENDBRANCH   7  24
TORSDOF 6
ENDMDL
MODEL 5
REMARK VINA RESULT:      -7.6      0.831      1.052
REMARK  Name = 
REMARK  8 active torsions:
REMARK  status: ('A' for Active; 'I' for Inactive)
REMARK    1  A    between atoms: C_1  and  O_2
REMARK    2  A    between atoms: O_2  and  C_3
REMARK    3  A    between atoms: C_7  and  C_8
REMARK    4  A    between atoms: C_12  and  C_13
REMARK    5  A    between atoms: C_14  and  C_15
REMARK    6  A    between atoms: C_15  and  O_17
REMARK    7  A    between atoms: C_19  and  O_20
REMARK    8  A    between atoms: O_20  and  C_21
REMARK                            x       y       z     vdW  Elec       q    Type
REMARK                         _______ _______ _______ _____ _____    ______ ____
ROOT
ATOM      1  C   UNL     1       2.932   7.313  18.742  0.00  0.00    +0.000 A 
ATOM      2  C   UNL     1       3.415   7.448  17.461  0.00  0.00    +0.000 A 
ATOM      3  C   UNL     1       4.270   6.361  17.227  0.00  0.00    +0.000 A 
ATOM      4  C   UNL     1       4.974   5.957  16.086  0.00  0.00    +0.000 A 
ATOM      5  C   UNL     1       5.724   4.780  16.100  0.00  0.00    +0.000 A 
ATOM      6  C   UNL     1       5.774   4.034  17.282  0.00  0.00    +0.000 A 
ATOM      7  C   UNL     1       5.080   4.419  18.462  0.00  0.00    +0.000 A 
ATOM      8  C   UNL     1       4.316   5.601  18.392  0.00  0.00    +0.000 A 
ATOM      9  O   UNL     1       3.496   6.203  19.336  0.00  0.00    +0.000 OA
ENDROOT
BRANCH   1  14
ATOM     10  C   UNL     1       0.482  10.042  19.665  0.00  0.00    +0.000 A 
ATOM     11  C   UNL     1       0.172   9.680  20.982  0.00  0.00    +0.000 A 
ATOM     12  C   UNL     1       0.699   8.520  21.530  0.00  0.00    +0.000 A 
ATOM     13  C   UNL     1       1.563   7.737  20.766  0.00  0.00    +0.000 A 
ATOM     14  C   UNL     1       1.914   8.094  19.447  0.00  0.00    +0.000 A 
ATOM     15  C   UNL     1       1.330   9.237  18.896  0.00  0.00    +0.000 A 
BRANCH  10  17
ATOM     16  C   UNL     1      -1.279  11.112  18.496  0.00  0.00    +0.000 C 
ATOM     17  O   UNL     1      -0.087  11.222  19.262  0.00  0.00    +0.000 OA
ENDBRANCH  10  17
ENDBRANCH   1  14
BRANCH   5  18
ATOM     18  C   UNL     1       6.360   4.437  14.819  0.00  0.00    +0.000 C 
ATOM     19  C   UNL     1       5.785   4.053  13.671  0.00  0.00    +0.000 C 
BRANCH  19  20
ATOM     20  C   UNL     1       6.687   3.791  12.526  0.00  0.00    +0.000 C 
ATOM     21  O   UNL     1       6.667   2.787  11.833  0.00  0.00    +0.000 OA
BRANCH  20  22
ATOM     22  O   UNL     1       7.557   4.800  12.321  0.00  0.00    +0.000 OA
ATOM     23  H   UNL     1       8.220   4.641  11.628  0.00  0.00    +0.000 HD
ENDBRANCH  20  22
ENDBRANCH  19  20
ENDBRANCH   5  18
BRANCH   7  24
ATOM     24  O   UNL     1       5.237   3.507  19.496  0.00  0.00    +0.000 OA
ATOM     25  C   UNL     1       4.209   2.557  19.722  0.00  0.00    +0.000 C 
ENDBRANCH   7  24
TORSDOF 6
ENDMDL
MODEL 6
REMARK VINA RESULT:      -7.6      1.510      2.191
REMARK  Name = 
REMARK  8 active torsions:
REMARK  status: ('A' for Active; 'I' for Inactive)
REMARK    1  A    between atoms: C_1  and  O_2
REMARK    2  A    between atoms: O_2  and  C_3
REMARK    3  A    between atoms: C_7  and  C_8
REMARK    4  A    between atoms: C_12  and  C_13
REMARK    5  A    between atoms: C_14  and  C_15
REMARK    6  A    between atoms: C_15  and  O_17
REMARK    7  A    between atoms: C_19  and  O_20
REMARK    8  A    between atoms: O_20  and  C_21
REMARK                            x       y       z     vdW  Elec       q    Type
REMARK                         _______ _______ _______ _____ _____    ______ ____
ROOT
ATOM      1  C   UNL     1       1.687   7.983  19.983  0.00  0.00    +0.000 A 
ATOM      2  C   UNL     1       2.424   8.117  18.829  0.00  0.00    +0.000 A 
ATOM      3  C   UNL     1       3.009   6.870  18.566  0.00  0.00    +0.000 A 
ATOM      4  C   UNL     1       3.794   6.413  17.500  0.00  0.00    +0.000 A 
ATOM      5  C   UNL     1       4.210   5.081  17.450  0.00  0.00    +0.000 A 
ATOM      6  C   UNL     1       3.846   4.229  18.497  0.00  0.00    +0.000 A 
ATOM      7  C   UNL     1       3.058   4.660  19.599  0.00  0.00    +0.000 A 
ATOM      8  C   UNL     1       2.641   6.006  19.594  0.00  0.00    +0.000 A 
ATOM      9  O   UNL     1       1.833   6.704  20.480  0.00  0.00    +0.000 OA
ENDROOT
BRANCH   1  14
ATOM     10  C   UNL     1      -0.635  10.904  20.600  0.00  0.00    +0.000 A 
ATOM     11  C   UNL     1      -0.720  10.878  21.998  0.00  0.00    +0.000 A 
ATOM     12  C   UNL     1      -0.089   9.875  22.718  0.00  0.00    +0.000 A 
ATOM     13  C   UNL     1       0.655   8.912  22.037  0.00  0.00    +0.000 A 
ATOM     14  C   UNL     1       0.781   8.932  20.633  0.00  0.00    +0.000 A 
ATOM     15  C   UNL     1       0.094   9.919  19.923  0.00  0.00    +0.000 A 
BRANCH  10  17
ATOM     16  C   UNL     1      -0.470  13.063  19.641  0.00  0.00    +0.000 C 
ATOM     17  O   UNL     1      -1.284  11.962  20.020  0.00  0.00    +0.000 OA
ENDBRANCH  10  17
ENDBRANCH   1  14
BRANCH   5  18
ATOM     18  C   UNL     1       4.971   4.718  16.246  0.00  0.00    +0.000 C 
ATOM     19  C   UNL     1       6.019   5.342  15.693  0.00  0.00    +0.000 C 
BRANCH  19  20
ATOM     20  C   UNL     1       6.601   4.727  14.478  0.00  0.00    +0.000 C 
ATOM     21  O   UNL     1       6.163   3.736  13.916  0.00  0.00    +0.000 OA
BRANCH  20  22
ATOM     22  O   UNL     1       7.693   5.387  14.044  0.00  0.00    +0.000 OA
ATOM     23  H   UNL     1       7.834   5.369  13.082  0.00  0.00    +0.000 HD
ENDBRANCH  20  22
ENDBRANCH  19  20
ENDBRANCH   5  18
BRANCH   7  24
ATOM     24  O   UNL     1       2.782   3.634  20.493  0.00  0.00    +0.000 OA
ATOM     25  C   UNL     1       1.440   3.202  20.633  0.00  0.00    +0.000 C 
ENDBRANCH   7  24
TORSDOF 6
ENDMDL
MODEL 7
REMARK VINA RESULT:      -7.5      1.946      3.105
REMARK  Name = 
REMARK  8 active torsions:
REMARK  status: ('A' for Active; 'I' for Inactive)
REMARK    1  A    between atoms: C_1  and  O_2
REMARK    2  A    between atoms: O_2  and  C_3
REMARK    3  A    between atoms: C_7  and  C_8
REMARK    4  A    between atoms: C_12  and  C_13
REMARK    5  A    between atoms: C_14  and  C_15
REMARK    6  A    between atoms: C_15  and  O_17
REMARK    7  A    between atoms: C_19  and  O_20
REMARK    8  A    between atoms: O_20  and  C_21
REMARK                            x       y       z     vdW  Elec       q    Type
REMARK                         _______ _______ _______ _____ _____    ______ ____
ROOT
ATOM      1  C   UNL     1       1.201   9.180  18.741  0.00  0.00    +0.000 A 
ATOM      2  C   UNL     1       2.186   9.019  17.795  0.00  0.00    +0.000 A 
ATOM      3  C   UNL     1       2.857   7.825  18.098  0.00  0.00    +0.000 A 
ATOM      4  C   UNL     1       3.887   7.141  17.441  0.00  0.00    +0.000 A 
ATOM      5  C   UNL     1       4.345   5.916  17.931  0.00  0.00    +0.000 A 
ATOM      6  C   UNL     1       3.770   5.408  19.099  0.00  0.00    +0.000 A 
ATOM      7  C   UNL     1       2.728   6.079  19.797  0.00  0.00    +0.000 A 
ATOM      8  C   UNL     1       2.282   7.299  19.251  0.00  0.00    +0.000 A 
ATOM      9  O   UNL     1       1.264   8.150  19.657  0.00  0.00    +0.000 OA
ENDROOT
BRANCH   1  14
ATOM     10  C   UNL     1      -1.045  11.959  19.982  0.00  0.00    +0.000 A 
ATOM     11  C   UNL     1      -2.090  11.884  19.052  0.00  0.00    +0.000 A 
ATOM     12  C   UNL     1      -2.021  10.989  17.995  0.00  0.00    +0.000 A 
ATOM     13  C   UNL     1      -0.917  10.147  17.886  0.00  0.00    +0.000 A 
ATOM     14  C   UNL     1       0.136  10.182  18.824  0.00  0.00    +0.000 A 
ATOM     15  C   UNL     1       0.073  11.127  19.851  0.00  0.00    +0.000 A 
BRANCH  10  17
ATOM     16  C   UNL     1      -0.667  12.557  22.242  0.00  0.00    +0.000 C 
ATOM     17  O   UNL     1      -1.255  12.867  20.986  0.00  0.00    +0.000 OA
ENDBRANCH  10  17
ENDBRANCH   1  14
BRANCH   5  18
ATOM     18  C   UNL     1       5.383   5.273  17.111  0.00  0.00    +0.000 C 
ATOM     19  C   UNL     1       5.440   5.138  15.780  0.00  0.00    +0.000 C 
BRANCH  19  20
ATOM     20  C   UNL     1       6.632   4.454  15.227  0.00  0.00    +0.000 C 
ATOM     21  O   UNL     1       7.786   4.690  15.544  0.00  0.00    +0.000 OA
BRANCH  20  22
ATOM     22  O   UNL     1       6.304   3.519  14.312  0.00  0.00    +0.000 OA
ATOM     23  H   UNL     1       6.604   2.617  14.516  0.00  0.00    +0.000 HD
ENDBRANCH  20  22
ENDBRANCH  19  20
ENDBRANCH   5  18
BRANCH   7  24
ATOM     24  O   UNL     1       2.280   5.368  20.902  0.00  0.00    +0.000 OA
ATOM     25  C   UNL     1       1.729   4.079  20.699  0.00  0.00    +0.000 C 
ENDBRANCH   7  24
TORSDOF 6
ENDMDL
MODEL 8
REMARK VINA RESULT:      -7.4      1.015      1.320
REMARK  Name = 
REMARK  8 active torsions:
REMARK  status: ('A' for Active; 'I' for Inactive)
REMARK    1  A    between atoms: C_1  and  O_2
REMARK    2  A    between atoms: O_2  and  C_3
REMARK    3  A    between atoms: C_7  and  C_8
REMARK    4  A    between atoms: C_12  and  C_13
REMARK    5  A    between atoms: C_14  and  C_15
REMARK    6  A    between atoms: C_15  and  O_17
REMARK    7  A    between atoms: C_19  and  O_20
REMARK    8  A    between atoms: O_20  and  C_21
REMARK                            x       y       z     vdW  Elec       q    Type
REMARK                         _______ _______ _______ _____ _____    ______ ____
ROOT
ATOM      1  C   UNL     1       2.214   7.726  19.297  0.00  0.00    +0.000 A 
ATOM      2  C   UNL     1       2.968   8.017  18.184  0.00  0.00    +0.000 A 
ATOM      3  C   UNL     1       3.638   6.840  17.821  0.00  0.00    +0.000 A 
ATOM      4  C   UNL     1       4.476   6.538  16.740  0.00  0.00    +0.000 A 
ATOM      5  C   UNL     1       4.977   5.246  16.575  0.00  0.00    +0.000 A 
ATOM      6  C   UNL     1       4.642   4.274  17.523  0.00  0.00    +0.000 A 
ATOM      7  C   UNL     1       3.802   4.546  18.637  0.00  0.00    +0.000 A 
ATOM      8  C   UNL     1       3.300   5.858  18.749  0.00  0.00    +0.000 A 
ATOM      9  O   UNL     1       2.428   6.416  19.672  0.00  0.00    +0.000 OA
ENDROOT
BRANCH   1  14
ATOM     10  C   UNL     1      -0.232  10.479  20.157  0.00  0.00    +0.000 A 
ATOM     11  C   UNL     1      -0.424  10.240  21.524  0.00  0.00    +0.000 A 
ATOM     12  C   UNL     1       0.179   9.150  22.133  0.00  0.00    +0.000 A 
ATOM     13  C   UNL     1       1.000   8.315  21.378  0.00  0.00    +0.000 A 
ATOM     14  C   UNL     1       1.233   8.550  20.007  0.00  0.00    +0.000 A 
ATOM     15  C   UNL     1       0.574   9.622  19.400  0.00  0.00    +0.000 A 
BRANCH  10  17
ATOM     16  C   UNL     1      -0.610  12.804  20.406  0.00  0.00    +0.000 C 
ATOM     17  O   UNL     1      -0.866  11.602  19.693  0.00  0.00    +0.000 OA
ENDBRANCH  10  17
ENDBRANCH   1  14
BRANCH   5  18
ATOM     18  C   UNL     1       5.790   5.050  15.365  0.00  0.00    +0.000 C 
ATOM     19  C   UNL     1       5.607   4.182  14.360  0.00  0.00    +0.000 C 
BRANCH  19  20
ATOM     20  C   UNL     1       6.588   4.226  13.251  0.00  0.00    +0.000 C 
ATOM     21  O   UNL     1       6.607   3.461  12.301  0.00  0.00    +0.000 OA
BRANCH  20  22
ATOM     22  O   UNL     1       7.483   5.223  13.401  0.00  0.00    +0.000 OA
ATOM     23  H   UNL     1       8.278   4.993  13.912  0.00  0.00    +0.000 HD
ENDBRANCH  20  22
ENDBRANCH  19  20
ENDBRANCH   5  18
BRANCH   7  24
ATOM     24  O   UNL     1       3.570   3.423  19.419  0.00  0.00    +0.000 OA
ATOM     25  C   UNL     1       3.134   2.234  18.782  0.00  0.00    +0.000 C 
ENDBRANCH   7  24
TORSDOF 6
ENDMDL
MODEL 9
REMARK VINA RESULT:      -7.4      1.446      2.010
REMARK  Name = 
REMARK  8 active torsions:
REMARK  status: ('A' for Active; 'I' for Inactive)
REMARK    1  A    between atoms: C_1  and  O_2
REMARK    2  A    between atoms: O_2  and  C_3
REMARK    3  A    between atoms: C_7  and  C_8
REMARK    4  A    between atoms: C_12  and  C_13
REMARK    5  A    between atoms: C_14  and  C_15
REMARK    6  A    between atoms: C_15  and  O_17
REMARK    7  A    between atoms: C_19  and  O_20
REMARK    8  A    between atoms: O_20  and  C_21
REMARK                            x       y       z     vdW  Elec       q    Type
REMARK                         _______ _______ _______ _____ _____    ______ ____
ROOT
ATOM      1  C   UNL     1       2.249   7.839  19.022  0.00  0.00    +0.000 A 
ATOM      2  C   UNL     1       3.124   7.979  17.970  0.00  0.00    +0.000 A 
ATOM      3  C   UNL     1       3.657   6.709  17.705  0.00  0.00    +0.000 A 
ATOM      4  C   UNL     1       4.532   6.253  16.712  0.00  0.00    +0.000 A 
ATOM      5  C   UNL     1       4.866   4.900  16.633  0.00  0.00    +0.000 A 
ATOM      6  C   UNL     1       4.327   4.023  17.580  0.00  0.00    +0.000 A 
ATOM      7  C   UNL     1       3.443   4.452  18.607  0.00  0.00    +0.000 A 
ATOM      8  C   UNL     1       3.115   5.822  18.632  0.00  0.00    +0.000 A 
ATOM      9  O   UNL     1       2.253   6.530  19.457  0.00  0.00    +0.000 OA
ENDROOT
BRANCH   1  14
ATOM     10  C   UNL     1      -0.001   9.648  21.465  0.00  0.00    +0.000 A 
ATOM     11  C   UNL     1      -0.640  10.554  20.610  0.00  0.00    +0.000 A 
ATOM     12  C   UNL     1      -0.283  10.621  19.271  0.00  0.00    +0.000 A 
ATOM     13  C   UNL     1       0.695   9.756  18.782  0.00  0.00    +0.000 A 
ATOM     14  C   UNL     1       1.334   8.815  19.616  0.00  0.00    +0.000 A 
ATOM     15  C   UNL     1       0.998   8.801  20.972  0.00  0.00    +0.000 A 
BRANCH  10  17
ATOM     16  C   UNL     1      -1.199  10.830  23.132  0.00  0.00    +0.000 C 
ATOM     17  O   UNL     1      -0.468   9.672  22.753  0.00  0.00    +0.000 OA
ENDBRANCH  10  17
ENDBRANCH   1  14
BRANCH   5  18
ATOM     18  C   UNL     1       5.741   4.545  15.506  0.00  0.00    +0.000 C 
ATOM     19  C   UNL     1       5.599   4.836  14.206  0.00  0.00    +0.000 C 
BRANCH  19  20
ATOM     20  C   UNL     1       6.662   4.357  13.292  0.00  0.00    +0.000 C 
ATOM     21  O   UNL     1       6.609   3.333  12.631  0.00  0.00    +0.000 OA
BRANCH  20  22
ATOM     22  O   UNL     1       7.723   5.188  13.266  0.00  0.00    +0.000 OA
ATOM     23  H   UNL     1       7.862   5.708  14.075  0.00  0.00    +0.000 HD
ENDBRANCH  20  22
ENDBRANCH  19  20
ENDBRANCH   5  18
BRANCH   7  24
ATOM     24  O   UNL     1       2.998   3.405  19.402  0.00  0.00    +0.000 OA
ATOM     25  C   UNL     1       3.961   2.575  20.029  0.00  0.00    +0.000 C 
ENDBRANCH   7  24
TORSDOF 6
ENDMDL
