MODEL 1
REMARK VINA RESULT:      -7.7      0.000      0.000
REMARK  Name = 
REMARK  1 active torsions:
REMARK  status: ('A' for Active; 'I' for Inactive)
REMARK    1  A    between atoms: C_2  and  C_3
REMARK                            x       y       z     vdW  Elec       q    Type
REMARK                         _______ _______ _______ _____ _____    ______ ____
ROOT
ATOM      1  O   UNL     1       1.810   5.420  19.131  0.00  0.00    +0.000 OA
ATOM      2  C   UNL     1       2.772   4.676  19.255  0.00  0.00    +0.000 C 
ATOM      3  N   UNL     1       3.951   4.990  18.618  0.00  0.00    +0.000 N 
ATOM      4  C   UNL     1       5.102   4.091  18.603  0.00  0.00    +0.000 C 
ATOM      5  C   UNL     1       5.389   3.700  17.144  0.00  0.00    +0.000 C 
ATOM      6  C   UNL     1       5.629   4.960  16.277  0.00  0.00    +0.000 C 
ATOM      7  C   UNL     1       4.407   5.907  16.395  0.00  0.00    +0.000 C 
ATOM      8  C   UNL     1       4.102   6.234  17.861  0.00  0.00    +0.000 C 
ATOM      9  C   UNL     1       6.985   5.663  16.659  0.00  0.00    +0.000 C 
ATOM     10  N   UNL     1       7.812   5.568  15.480  0.00  0.00    +0.000 N 
ATOM     11  C   UNL     1       7.115   4.941  14.447  0.00  0.00    +0.000 A 
ATOM     12  C   UNL     1       7.588   4.694  13.161  0.00  0.00    +0.000 A 
ATOM     13  C   UNL     1       6.732   4.057  12.248  0.00  0.00    +0.000 A 
ATOM     14  C   UNL     1       5.432   3.682  12.640  0.00  0.00    +0.000 A 
ATOM     15  F   UNL     1       4.610   3.074  11.751  0.00  0.00    +0.000 F 
ATOM     16  C   UNL     1       4.988   3.939  13.946  0.00  0.00    +0.000 A 
ATOM     17  C   UNL     1       5.857   4.577  14.841  0.00  0.00    +0.000 A 
ATOM     18  H   UNL     1       8.773   5.928  15.407  0.00  0.00    +0.000 HD
ENDROOT
BRANCH   2  19
ATOM     19  C   UNL     1       2.616   3.428  20.114  0.00  0.00    +0.000 C 
ATOM     20  C   UNL     1       2.248   3.600  21.585  0.00  0.00    +0.000 C 
ATOM     21  C   UNL     1       1.180   3.226  20.567  0.00  0.00    +0.000 C 
ENDBRANCH   2  19
TORSDOF 1
ENDMDL
MODEL 2
REMARK VINA RESULT:      -7.0      2.773      6.664
REMARK  Name = 
REMARK  1 active torsions:
REMARK  status: ('A' for Active; 'I' for Inactive)
REMARK    1  A    between atoms: C_2  and  C_3
REMARK                            x       y       z     vdW  Elec       q    Type
REMARK                         _______ _______ _______ _____ _____    ______ ____
ROOT
ATOM      1  O   UNL     1       7.951   4.352  15.982  0.00  0.00    +0.000 OA
ATOM      2  C   UNL     1       6.953   4.995  15.692  0.00  0.00    +0.000 C 
ATOM      3  N   UNL     1       6.146   5.475  16.699  0.00  0.00    +0.000 N 
ATOM      4  C   UNL     1       4.868   6.133  16.439  0.00  0.00    +0.000 C 
ATOM      5  C   UNL     1       3.754   5.293  17.084  0.00  0.00    +0.000 C 
ATOM      6  C   UNL     1       4.013   5.113  18.600  0.00  0.00    +0.000 C 
ATOM      7  C   UNL     1       5.412   4.481  18.812  0.00  0.00    +0.000 C 
ATOM      8  C   UNL     1       6.500   5.301  18.108  0.00  0.00    +0.000 C 
ATOM      9  C   UNL     1       3.833   6.472  19.374  0.00  0.00    +0.000 C 
ATOM     10  N   UNL     1       2.718   6.262  20.265  0.00  0.00    +0.000 N 
ATOM     11  C   UNL     1       2.243   4.956  20.149  0.00  0.00    +0.000 A 
ATOM     12  C   UNL     1       1.191   4.392  20.867  0.00  0.00    +0.000 A 
ATOM     13  C   UNL     1       0.862   3.049  20.620  0.00  0.00    +0.000 A 
ATOM     14  C   UNL     1       1.586   2.306  19.666  0.00  0.00    +0.000 A 
ATOM     15  F   UNL     1       1.266   1.009  19.439  0.00  0.00    +0.000 F 
ATOM     16  C   UNL     1       2.636   2.907  18.954  0.00  0.00    +0.000 A 
ATOM     17  C   UNL     1       2.949   4.247  19.217  0.00  0.00    +0.000 A 
ATOM     18  H   UNL     1       2.339   6.971  20.907  0.00  0.00    +0.000 HD
ENDROOT
BRANCH   2  19
ATOM     19  C   UNL     1       6.647   5.233  14.219  0.00  0.00    +0.000 C 
ATOM     20  C   UNL     1       7.645   4.728  13.180  0.00  0.00    +0.000 C 
ATOM     21  C   UNL     1       6.381   3.934  13.478  0.00  0.00    +0.000 C 
ENDBRANCH   2  19
TORSDOF 1
ENDMDL
MODEL 3
REMARK VINA RESULT:      -6.9      4.571      6.052
REMARK  Name = 
REMARK  1 active torsions:
REMARK  status: ('A' for Active; 'I' for Inactive)
REMARK    1  A    between atoms: C_2  and  C_3
REMARK                            x       y       z     vdW  Elec       q    Type
REMARK                         _______ _______ _______ _____ _____    ______ ____
ROOT
ATOM      1  O   UNL     1       0.095   9.941  18.071  0.00  0.00    +0.000 OA
ATOM      2  C   UNL     1       0.491   9.557  19.162  0.00  0.00    +0.000 C 
ATOM      3  N   UNL     1       1.561   8.693  19.223  0.00  0.00    +0.000 N 
ATOM      4  C   UNL     1       2.010   8.082  20.472  0.00  0.00    +0.000 C 
ATOM      5  C   UNL     1       1.856   6.557  20.344  0.00  0.00    +0.000 C 
ATOM      6  C   UNL     1       2.649   6.028  19.124  0.00  0.00    +0.000 C 
ATOM      7  C   UNL     1       2.179   6.767  17.845  0.00  0.00    +0.000 C 
ATOM      8  C   UNL     1       2.283   8.287  18.017  0.00  0.00    +0.000 C 
ATOM      9  C   UNL     1       4.201   6.142  19.361  0.00  0.00    +0.000 C 
ATOM     10  N   UNL     1       4.689   4.784  19.365  0.00  0.00    +0.000 N 
ATOM     11  C   UNL     1       3.645   3.891  19.126  0.00  0.00    +0.000 A 
ATOM     12  C   UNL     1       3.745   2.505  19.041  0.00  0.00    +0.000 A 
ATOM     13  C   UNL     1       2.579   1.768  18.781  0.00  0.00    +0.000 A 
ATOM     14  C   UNL     1       1.346   2.430  18.615  0.00  0.00    +0.000 A 
ATOM     15  F   UNL     1       0.226   1.712  18.357  0.00  0.00    +0.000 F 
ATOM     16  C   UNL     1       1.277   3.828  18.714  0.00  0.00    +0.000 A 
ATOM     17  C   UNL     1       2.453   4.544  18.972  0.00  0.00    +0.000 A 
ATOM     18  H   UNL     1       5.673   4.515  19.508  0.00  0.00    +0.000 HD
ENDROOT
BRANCH   2  19
ATOM     19  C   UNL     1      -0.226  10.056  20.410  0.00  0.00    +0.000 C 
ATOM     20  C   UNL     1       0.289  11.325  21.084  0.00  0.00    +0.000 C 
ATOM     21  C   UNL     1      -0.927  11.382  20.170  0.00  0.00    +0.000 C 
ENDBRANCH   2  19
TORSDOF 1
ENDMDL
MODEL 4
REMARK VINA RESULT:      -6.7      3.540      4.349
REMARK  Name = 
REMARK  1 active torsions:
REMARK  status: ('A' for Active; 'I' for Inactive)
REMARK    1  A    between atoms: C_2  and  C_3
REMARK                            x       y       z     vdW  Elec       q    Type
REMARK                         _______ _______ _______ _____ _____    ______ ____
ROOT
ATOM      1  O   UNL     1       1.919   1.586  18.326  0.00  0.00    +0.000 OA
ATOM      2  C   UNL     1       1.680   2.740  18.652  0.00  0.00    +0.000 C 
ATOM      3  N   UNL     1       2.325   3.768  18.003  0.00  0.00    +0.000 N 
ATOM      4  C   UNL     1       2.200   5.163  18.419  0.00  0.00    +0.000 C 
ATOM      5  C   UNL     1       3.592   5.667  18.835  0.00  0.00    +0.000 C 
ATOM      6  C   UNL     1       4.603   5.499  17.675  0.00  0.00    +0.000 C 
ATOM      7  C   UNL     1       4.634   4.015  17.230  0.00  0.00    +0.000 C 
ATOM      8  C   UNL     1       3.227   3.515  16.879  0.00  0.00    +0.000 C 
ATOM      9  C   UNL     1       4.282   6.485  16.491  0.00  0.00    +0.000 C 
ATOM     10  N   UNL     1       5.420   7.368  16.407  0.00  0.00    +0.000 N 
ATOM     11  C   UNL     1       6.382   7.013  17.352  0.00  0.00    +0.000 A 
ATOM     12  C   UNL     1       7.615   7.628  17.549  0.00  0.00    +0.000 A 
ATOM     13  C   UNL     1       8.461   7.119  18.548  0.00  0.00    +0.000 A 
ATOM     14  C   UNL     1       8.056   6.015  19.324  0.00  0.00    +0.000 A 
ATOM     15  F   UNL     1       8.880   5.527  20.282  0.00  0.00    +0.000 F 
ATOM     16  C   UNL     1       6.802   5.422  19.106  0.00  0.00    +0.000 A 
ATOM     17  C   UNL     1       5.975   5.944  18.103  0.00  0.00    +0.000 A 
ATOM     18  H   UNL     1       5.515   8.141  15.733  0.00  0.00    +0.000 HD
ENDROOT
BRANCH   2  19
ATOM     19  C   UNL     1       0.676   2.983  19.771  0.00  0.00    +0.000 C 
ATOM     20  C   UNL     1       1.111   2.712  21.208  0.00  0.00    +0.000 C 
ATOM     21  C   UNL     1       1.094   4.135  20.668  0.00  0.00    +0.000 C 
ENDBRANCH   2  19
TORSDOF 1
ENDMDL
MODEL 5
REMARK VINA RESULT:      -6.6      3.542      6.918
REMARK  Name = 
REMARK  1 active torsions:
REMARK  status: ('A' for Active; 'I' for Inactive)
REMARK    1  A    between atoms: C_2  and  C_3
REMARK                            x       y       z     vdW  Elec       q    Type
REMARK                         _______ _______ _______ _____ _____    ______ ____
ROOT
ATOM      1  O   UNL     1       4.605   3.589  15.182  0.00  0.00    +0.000 OA
ATOM      2  C   UNL     1       5.224   3.968  16.166  0.00  0.00    +0.000 C 
ATOM      3  N   UNL     1       4.546   4.171  17.348  0.00  0.00    +0.000 N 
ATOM      4  C   UNL     1       5.180   4.750  18.530  0.00  0.00    +0.000 C 
ATOM      5  C   UNL     1       4.465   6.070  18.862  0.00  0.00    +0.000 C 
ATOM      6  C   UNL     1       2.950   5.831  19.078  0.00  0.00    +0.000 C 
ATOM      7  C   UNL     1       2.353   5.149  17.821  0.00  0.00    +0.000 C 
ATOM      8  C   UNL     1       3.120   3.868  17.472  0.00  0.00    +0.000 C 
ATOM      9  C   UNL     1       2.684   5.019  20.399  0.00  0.00    +0.000 C 
ATOM     10  N   UNL     1       1.939   5.910  21.254  0.00  0.00    +0.000 N 
ATOM     11  C   UNL     1       1.698   7.120  20.604  0.00  0.00    +0.000 A 
ATOM     12  C   UNL     1       0.994   8.208  21.113  0.00  0.00    +0.000 A 
ATOM     13  C   UNL     1       0.843   9.343  20.300  0.00  0.00    +0.000 A 
ATOM     14  C   UNL     1       1.398   9.365  19.006  0.00  0.00    +0.000 A 
ATOM     15  F   UNL     1       1.242  10.462  18.225  0.00  0.00    +0.000 F 
ATOM     16  C   UNL     1       2.108   8.255  18.524  0.00  0.00    +0.000 A 
ATOM     17  C   UNL     1       2.246   7.132  19.350  0.00  0.00    +0.000 A 
ATOM     18  H   UNL     1       1.617   5.679  22.204  0.00  0.00    +0.000 HD
ENDROOT
BRANCH   2  19
ATOM     19  C   UNL     1       6.723   4.201  16.035  0.00  0.00    +0.000 C 
ATOM     20  C   UNL     1       7.246   4.857  14.760  0.00  0.00    +0.000 C 
ATOM     21  C   UNL     1       7.069   5.680  16.029  0.00  0.00    +0.000 C 
ENDBRANCH   2  19
TORSDOF 1
ENDMDL
MODEL 6
REMARK VINA RESULT:      -6.5      3.703      5.151
REMARK  Name = 
REMARK  1 active torsions:
REMARK  status: ('A' for Active; 'I' for Inactive)
REMARK    1  A    between atoms: C_2  and  C_3
REMARK                            x       y       z     vdW  Elec       q    Type
REMARK                         _______ _______ _______ _____ _____    ______ ____
ROOT
ATOM      1  O   UNL     1       1.224   8.315  21.760  0.00  0.00    +0.000 OA
ATOM      2  C   UNL     1       1.290   8.523  20.557  0.00  0.00    +0.000 C 
ATOM      3  N   UNL     1       1.648   7.492  19.717  0.00  0.00    +0.000 N 
ATOM      4  C   UNL     1       1.882   7.686  18.288  0.00  0.00    +0.000 C 
ATOM      5  C   UNL     1       3.346   7.329  17.987  0.00  0.00    +0.000 C 
ATOM      6  C   UNL     1       3.658   5.879  18.431  0.00  0.00    +0.000 C 
ATOM      7  C   UNL     1       3.319   5.717  19.935  0.00  0.00    +0.000 C 
ATOM      8  C   UNL     1       1.872   6.138  20.223  0.00  0.00    +0.000 C 
ATOM      9  C   UNL     1       2.913   4.832  17.521  0.00  0.00    +0.000 C 
ATOM     10  N   UNL     1       3.957   4.093  16.853  0.00  0.00    +0.000 N 
ATOM     11  C   UNL     1       5.211   4.534  17.274  0.00  0.00    +0.000 A 
ATOM     12  C   UNL     1       6.444   4.040  16.859  0.00  0.00    +0.000 A 
ATOM     13  C   UNL     1       7.607   4.606  17.406  0.00  0.00    +0.000 A 
ATOM     14  C   UNL     1       7.510   5.650  18.348  0.00  0.00    +0.000 A 
ATOM     15  F   UNL     1       8.637   6.187  18.875  0.00  0.00    +0.000 F 
ATOM     16  C   UNL     1       6.252   6.131  18.740  0.00  0.00    +0.000 A 
ATOM     17  C   UNL     1       5.105   5.551  18.184  0.00  0.00    +0.000 A 
ATOM     18  H   UNL     1       3.797   3.335  16.175  0.00  0.00    +0.000 HD
ENDROOT
BRANCH   2  19
ATOM     19  C   UNL     1       0.974   9.921  20.044  0.00  0.00    +0.000 C 
ATOM     20  C   UNL     1      -0.467  10.243  19.657  0.00  0.00    +0.000 C 
ATOM     21  C   UNL     1       0.082  10.690  21.004  0.00  0.00    +0.000 C 
ENDBRANCH   2  19
TORSDOF 1
ENDMDL
MODEL 7
REMARK VINA RESULT:      -6.3      3.070      6.895
REMARK  Name = 
REMARK  1 active torsions:
REMARK  status: ('A' for Active; 'I' for Inactive)
REMARK    1  A    between atoms: C_2  and  C_3
REMARK                            x       y       z     vdW  Elec       q    Type
REMARK                         _______ _______ _______ _____ _____    ______ ____
ROOT
ATOM      1  O   UNL     1       7.638   5.968  16.117  0.00  0.00    +0.000 OA
ATOM      2  C   UNL     1       6.756   5.260  15.653  0.00  0.00    +0.000 C 
ATOM      3  N   UNL     1       5.486   5.338  16.179  0.00  0.00    +0.000 N 
ATOM      4  C   UNL     1       4.410   4.435  15.777  0.00  0.00    +0.000 C 
ATOM      5  C   UNL     1       3.971   3.631  17.012  0.00  0.00    +0.000 C 
ATOM      6  C   UNL     1       3.532   4.578  18.154  0.00  0.00    +0.000 C 
ATOM      7  C   UNL     1       4.688   5.558  18.483  0.00  0.00    +0.000 C 
ATOM      8  C   UNL     1       5.151   6.304  17.226  0.00  0.00    +0.000 C 
ATOM      9  C   UNL     1       2.188   5.316  17.799  0.00  0.00    +0.000 C 
ATOM     10  N   UNL     1       1.229   4.858  18.773  0.00  0.00    +0.000 N 
ATOM     11  C   UNL     1       1.832   3.982  19.676  0.00  0.00    +0.000 A 
ATOM     12  C   UNL     1       1.220   3.359  20.760  0.00  0.00    +0.000 A 
ATOM     13  C   UNL     1       1.998   2.514  21.568  0.00  0.00    +0.000 A 
ATOM     14  C   UNL     1       3.361   2.312  21.275  0.00  0.00    +0.000 A 
ATOM     15  F   UNL     1       4.106   1.500  22.064  0.00  0.00    +0.000 F 
ATOM     16  C   UNL     1       3.947   2.949  20.170  0.00  0.00    +0.000 A 
ATOM     17  C   UNL     1       3.154   3.789  19.378  0.00  0.00    +0.000 A 
ATOM     18  H   UNL     1       0.242   5.149  18.807  0.00  0.00    +0.000 HD
ENDROOT
BRANCH   2  19
ATOM     19  C   UNL     1       7.109   4.319  14.509  0.00  0.00    +0.000 C 
ATOM     20  C   UNL     1       6.350   4.461  13.192  0.00  0.00    +0.000 C 
ATOM     21  C   UNL     1       7.744   5.056  13.343  0.00  0.00    +0.000 C 
ENDBRANCH   2  19
TORSDOF 1
ENDMDL
MODEL 8
REMARK VINA RESULT:      -6.1     11.583     13.376
REMARK  Name = 
REMARK  1 active torsions:
REMARK  status: ('A' for Active; 'I' for Inactive)
REMARK    1  A    between atoms: C_2  and  C_3
REMARK                            x       y       z     vdW  Elec       q    Type
REMARK                         _______ _______ _______ _____ _____    ______ ____
ROOT
ATOM      1  O   UNL     1      -7.597  11.432  23.062  0.00  0.00    +0.000 OA
ATOM      2  C   UNL     1      -7.227  12.444  22.484  0.00  0.00    +0.000 C 
ATOM      3  N   UNL     1      -7.137  12.437  21.110  0.00  0.00    +0.000 N 
ATOM      4  C   UNL     1      -6.578  13.554  20.352  0.00  0.00    +0.000 C 
ATOM      5  C   UNL     1      -5.334  13.051  19.603  0.00  0.00    +0.000 C 
ATOM      6  C   UNL     1      -5.692  11.855  18.688  0.00  0.00    +0.000 C 
ATOM      7  C   UNL     1      -6.349  10.737  19.537  0.00  0.00    +0.000 C 
ATOM      8  C   UNL     1      -7.550  11.274  20.324  0.00  0.00    +0.000 C 
ATOM      9  C   UNL     1      -6.592  12.312  17.479  0.00  0.00    +0.000 C 
ATOM     10  N   UNL     1      -5.804  12.060  16.297  0.00  0.00    +0.000 N 
ATOM     11  C   UNL     1      -4.582  11.483  16.641  0.00  0.00    +0.000 A 
ATOM     12  C   UNL     1      -3.577  11.087  15.763  0.00  0.00    +0.000 A 
ATOM     13  C   UNL     1      -2.414  10.510  16.298  0.00  0.00    +0.000 A 
ATOM     14  C   UNL     1      -2.282  10.345  17.691  0.00  0.00    +0.000 A 
ATOM     15  F   UNL     1      -1.159   9.782  18.199  0.00  0.00    +0.000 F 
ATOM     16  C   UNL     1      -3.310  10.762  18.551  0.00  0.00    +0.000 A 
ATOM     17  C   UNL     1      -4.463  11.333  17.996  0.00  0.00    +0.000 A 
ATOM     18  H   UNL     1      -6.108  12.262  15.335  0.00  0.00    +0.000 HD
ENDROOT
BRANCH   2  19
ATOM     19  C   UNL     1      -6.879  13.669  23.319  0.00  0.00    +0.000 C 
ATOM     20  C   UNL     1      -7.916  14.783  23.439  0.00  0.00    +0.000 C 
ATOM     21  C   UNL     1      -7.743  13.771  24.564  0.00  0.00    +0.000 C 
ENDBRANCH   2  19
TORSDOF 1
ENDMDL
MODEL 9
REMARK VINA RESULT:      -6.1      6.027      8.390
REMARK  Name = 
REMARK  1 active torsions:
REMARK  status: ('A' for Active; 'I' for Inactive)
REMARK    1  A    between atoms: C_2  and  C_3
REMARK                            x       y       z     vdW  Elec       q    Type
REMARK                         _______ _______ _______ _____ _____    ______ ____
ROOT
ATOM      1  O   UNL     1       2.261   5.403  19.956  0.00  0.00    +0.000 OA
ATOM      2  C   UNL     1       2.578   6.144  19.036  0.00  0.00    +0.000 C 
ATOM      3  N   UNL     1       2.365   7.498  19.159  0.00  0.00    +0.000 N 
ATOM      4  C   UNL     1       2.588   8.435  18.061  0.00  0.00    +0.000 C 
ATOM      5  C   UNL     1       1.245   9.100  17.716  0.00  0.00    +0.000 C 
ATOM      6  C   UNL     1       0.648   9.802  18.959  0.00  0.00    +0.000 C 
ATOM      7  C   UNL     1       0.506   8.775  20.112  0.00  0.00    +0.000 C 
ATOM      8  C   UNL     1       1.842   8.079  20.397  0.00  0.00    +0.000 C 
ATOM      9  C   UNL     1       1.498  11.062  19.366  0.00  0.00    +0.000 C 
ATOM     10  N   UNL     1       0.618  12.192  19.190  0.00  0.00    +0.000 N 
ATOM     11  C   UNL     1      -0.643  11.766  18.774  0.00  0.00    +0.000 A 
ATOM     12  C   UNL     1      -1.748  12.575  18.523  0.00  0.00    +0.000 A 
ATOM     13  C   UNL     1      -2.945  11.960  18.120  0.00  0.00    +0.000 A 
ATOM     14  C   UNL     1      -3.008  10.560  17.975  0.00  0.00    +0.000 A 
ATOM     15  F   UNL     1      -4.168   9.975  17.592  0.00  0.00    +0.000 F 
ATOM     16  C   UNL     1      -1.873   9.774  18.228  0.00  0.00    +0.000 A 
ATOM     17  C   UNL     1      -0.690  10.407  18.631  0.00  0.00    +0.000 A 
ATOM     18  H   UNL     1       0.880  13.173  19.364  0.00  0.00    +0.000 HD
ENDROOT
BRANCH   2  19
ATOM     19  C   UNL     1       3.195   5.526  17.788  0.00  0.00    +0.000 C 
ATOM     20  C   UNL     1       4.716   5.446  17.694  0.00  0.00    +0.000 C 
ATOM     21  C   UNL     1       3.908   4.220  18.095  0.00  0.00    +0.000 C 
ENDBRANCH   2  19
TORSDOF 1
ENDMDL
