MODEL 1
REMARK VINA RESULT:      -7.1      0.000      0.000
REMARK  Name = 
REMARK  12 active torsions:
REMARK  status: ('A' for Active; 'I' for Inactive)
REMARK    1  A    between atoms: C_1  and  O_2
REMARK    2  A    between atoms: O_2  and  C_3
REMARK    3  A    between atoms: C_6  and  S_7
REMARK    4  A    between atoms: S_7  and  N_10
REMARK    5  A    between atoms: N_10  and  C_11
REMARK    6  A    between atoms: C_11  and  C_12
REMARK    7  A    between atoms: C_11  and  C_13
REMARK    8  A    between atoms: C_13  and  C_14
REMARK    9  A    between atoms: C_14  and  N_15
REMARK   10  A    between atoms: N_18  and  C_19
REMARK   11  A    between atoms: C_24  and  O_25
REMARK   12  A    between atoms: O_25  and  C_26
REMARK                            x       y       z     vdW  Elec       q    Type
REMARK                         _______ _______ _______ _____ _____    ______ ____
ROOT
ATOM      1  C   UNL     1       8.770   8.799  18.738  0.00  0.00    +0.000 C 
ENDROOT
BRANCH   1   2
ATOM      2  C   UNL     1       8.023   7.904  17.740  0.00  0.00    +0.000 C 
ATOM      3  C   UNL     1       6.662   8.590  17.463  0.00  0.00    +0.000 C 
BRANCH   2   4
ATOM      4  N   UNL     1       7.691   6.560  18.247  0.00  0.00    +0.000 NA
ATOM      5  H   UNL     1       7.650   6.398  19.251  0.00  0.00    +0.000 HD
BRANCH   4   6
ATOM      6  S   UNL     1       7.368   5.195  17.343  0.00  0.00    +0.000 S 
ATOM      7  O   UNL     1       8.262   4.123  17.731  0.00  0.00    +0.000 OA
ATOM      8  O   UNL     1       7.270   5.647  15.982  0.00  0.00    +0.000 OA
BRANCH   6  12
ATOM      9  C   UNL     1       2.958   4.455  18.142  0.00  0.00    +0.000 A 
ATOM     10  C   UNL     1       3.606   3.794  17.103  0.00  0.00    +0.000 A 
ATOM     11  C   UNL     1       4.981   3.910  16.954  0.00  0.00    +0.000 A 
ATOM     12  C   UNL     1       5.699   4.775  17.793  0.00  0.00    +0.000 A 
ATOM     13  C   UNL     1       5.060   5.438  18.845  0.00  0.00    +0.000 A 
ATOM     14  C   UNL     1       3.681   5.269  19.021  0.00  0.00    +0.000 A 
BRANCH   9  16
ATOM     15  C   UNL     1       1.173   2.992  18.499  0.00  0.00    +0.000 C 
ATOM     16  O   UNL     1       1.600   4.308  18.168  0.00  0.00    +0.000 OA
ENDBRANCH   9  16
ENDBRANCH   6  12
ENDBRANCH   4   6
ENDBRANCH   2   4
ENDBRANCH   1   2
BRANCH   1  17
ATOM     17  C   UNL     1       8.917  10.273  18.363  0.00  0.00    +0.000 C 
BRANCH  17  18
ATOM     18  N   UNL     1      10.112  10.910  18.908  0.00  0.00    +0.000 NA
ATOM     19  C   UNL     1      10.772  11.758  17.907  0.00  0.00    +0.000 C 
ATOM     20  C   UNL     1       9.940  12.984  17.501  0.00  0.00    +0.000 C 
ATOM     21  N   UNL     1       9.539  13.764  18.681  0.00  0.00    +0.000 N 
ATOM     22  C   UNL     1       8.932  13.014  19.785  0.00  0.00    +0.000 C 
ATOM     23  C   UNL     1       9.785  11.758  20.091  0.00  0.00    +0.000 C 
BRANCH  21  24
ATOM     24  C   UNL     1       9.449  15.147  18.546  0.00  0.00    +0.000 A 
ATOM     25  C   UNL     1      10.521  15.932  19.009  0.00  0.00    +0.000 A 
ATOM     26  C   UNL     1      10.411  17.315  19.173  0.00  0.00    +0.000 A 
ATOM     27  C   UNL     1       9.230  17.944  18.838  0.00  0.00    +0.000 A 
ATOM     28  C   UNL     1       8.187  17.209  18.275  0.00  0.00    +0.000 A 
ATOM     29  C   UNL     1       8.292  15.818  18.093  0.00  0.00    +0.000 A 
BRANCH  29  30
ATOM     30  O   UNL     1       7.244  15.077  17.591  0.00  0.00    +0.000 OA
ATOM     31  C   UNL     1       6.017  15.172  18.309  0.00  0.00    +0.000 C 
ENDBRANCH  29  30
ENDBRANCH  21  24
ENDBRANCH  17  18
ENDBRANCH   1  17
TORSDOF 9
ENDMDL
MODEL 2
REMARK VINA RESULT:      -7.0      5.635      7.911
REMARK  Name = 
REMARK  12 active torsions:
REMARK  status: ('A' for Active; 'I' for Inactive)
REMARK    1  A    between atoms: C_1  and  O_2
REMARK    2  A    between atoms: O_2  and  C_3
REMARK    3  A    between atoms: C_6  and  S_7
REMARK    4  A    between atoms: S_7  and  N_10
REMARK    5  A    between atoms: N_10  and  C_11
REMARK    6  A    between atoms: C_11  and  C_12
REMARK    7  A    between atoms: C_11  and  C_13
REMARK    8  A    between atoms: C_13  and  C_14
REMARK    9  A    between atoms: C_14  and  N_15
REMARK   10  A    between atoms: N_18  and  C_19
REMARK   11  A    between atoms: C_24  and  O_25
REMARK   12  A    between atoms: O_25  and  C_26
REMARK                            x       y       z     vdW  Elec       q    Type
REMARK                         _______ _______ _______ _____ _____    ______ ____
ROOT
ATOM      1  C   UNL     1       1.226   4.822  20.561  0.00  0.00    +0.000 C 
ENDROOT
BRANCH   1   2
ATOM      2  C   UNL     1       2.113   4.239  19.453  0.00  0.00    +0.000 C 
ATOM      3  C   UNL     1       1.176   3.908  18.265  0.00  0.00    +0.000 C 
BRANCH   2   4
ATOM      4  N   UNL     1       2.773   2.967  19.799  0.00  0.00    +0.000 NA
ATOM      5  H   UNL     1       2.354   2.357  20.498  0.00  0.00    +0.000 HD
BRANCH   4   6
ATOM      6  S   UNL     1       4.200   2.369  19.171  0.00  0.00    +0.000 S 
ATOM      7  O   UNL     1       3.915   1.414  18.120  0.00  0.00    +0.000 OA
ATOM      8  O   UNL     1       5.009   2.027  20.309  0.00  0.00    +0.000 OA
BRANCH   6  12
ATOM      9  C   UNL     1       6.621   5.738  17.322  0.00  0.00    +0.000 A 
ATOM     10  C   UNL     1       5.919   4.850  16.513  0.00  0.00    +0.000 A 
ATOM     11  C   UNL     1       5.065   3.915  17.083  0.00  0.00    +0.000 A 
ATOM     12  C   UNL     1       4.991   3.804  18.479  0.00  0.00    +0.000 A 
ATOM     13  C   UNL     1       5.686   4.697  19.302  0.00  0.00    +0.000 A 
ATOM     14  C   UNL     1       6.501   5.673  18.715  0.00  0.00    +0.000 A 
BRANCH   9  16
ATOM     15  C   UNL     1       7.733   7.792  17.364  0.00  0.00    +0.000 C 
ATOM     16  O   UNL     1       7.466   6.584  16.660  0.00  0.00    +0.000 OA
ENDBRANCH   9  16
ENDBRANCH   6  12
ENDBRANCH   4   6
ENDBRANCH   2   4
ENDBRANCH   1   2
BRANCH   1  17
ATOM     17  C   UNL     1       0.810   6.285  20.410  0.00  0.00    +0.000 C 
BRANCH  17  18
ATOM     18  N   UNL     1       1.898   7.238  20.609  0.00  0.00    +0.000 NA
ATOM     19  C   UNL     1       2.358   7.801  19.334  0.00  0.00    +0.000 C 
ATOM     20  C   UNL     1       1.310   8.686  18.643  0.00  0.00    +0.000 C 
ATOM     21  N   UNL     1       0.828   9.739  19.549  0.00  0.00    +0.000 N 
ATOM     22  C   UNL     1       0.407   9.309  20.886  0.00  0.00    +0.000 C 
ATOM     23  C   UNL     1       1.477   8.367  21.490  0.00  0.00    +0.000 C 
BRANCH  21  24
ATOM     24  C   UNL     1       0.494  10.972  18.994  0.00  0.00    +0.000 A 
ATOM     25  C   UNL     1       1.458  11.995  19.015  0.00  0.00    +0.000 A 
ATOM     26  C   UNL     1       1.134  13.327  18.742  0.00  0.00    +0.000 A 
ATOM     27  C   UNL     1      -0.164  13.651  18.404  0.00  0.00    +0.000 A 
ATOM     28  C   UNL     1      -1.118  12.643  18.268  0.00  0.00    +0.000 A 
ATOM     29  C   UNL     1      -0.799  11.298  18.528  0.00  0.00    +0.000 A 
BRANCH  29  30
ATOM     30  O   UNL     1      -1.751  10.305  18.452  0.00  0.00    +0.000 OA
ATOM     31  C   UNL     1      -2.085   9.866  17.137  0.00  0.00    +0.000 C 
ENDBRANCH  29  30
ENDBRANCH  21  24
ENDBRANCH  17  18
ENDBRANCH   1  17
TORSDOF 9
ENDMDL
MODEL 3
REMARK VINA RESULT:      -6.9      6.283      8.680
REMARK  Name = 
REMARK  12 active torsions:
REMARK  status: ('A' for Active; 'I' for Inactive)
REMARK    1  A    between atoms: C_1  and  O_2
REMARK    2  A    between atoms: O_2  and  C_3
REMARK    3  A    between atoms: C_6  and  S_7
REMARK    4  A    between atoms: S_7  and  N_10
REMARK    5  A    between atoms: N_10  and  C_11
REMARK    6  A    between atoms: C_11  and  C_12
REMARK    7  A    between atoms: C_11  and  C_13
REMARK    8  A    between atoms: C_13  and  C_14
REMARK    9  A    between atoms: C_14  and  N_15
REMARK   10  A    between atoms: N_18  and  C_19
REMARK   11  A    between atoms: C_24  and  O_25
REMARK   12  A    between atoms: O_25  and  C_26
REMARK                            x       y       z     vdW  Elec       q    Type
REMARK                         _______ _______ _______ _____ _____    ______ ____
ROOT
ATOM      1  C   UNL     1       1.771   7.459  20.539  0.00  0.00    +0.000 C 
ENDROOT
BRANCH   1   2
ATOM      2  C   UNL     1       2.544   6.878  19.348  0.00  0.00    +0.000 C 
ATOM      3  C   UNL     1       2.252   7.801  18.138  0.00  0.00    +0.000 C 
BRANCH   2   4
ATOM      4  N   UNL     1       2.110   5.532  18.931  0.00  0.00    +0.000 NA
ATOM      5  H   UNL     1       1.122   5.353  18.761  0.00  0.00    +0.000 HD
BRANCH   4   6
ATOM      6  S   UNL     1       3.074   4.190  18.698  0.00  0.00    +0.000 S 
ATOM      7  O   UNL     1       2.452   3.294  17.745  0.00  0.00    +0.000 OA
ATOM      8  O   UNL     1       3.453   3.754  20.015  0.00  0.00    +0.000 OA
BRANCH   6  12
ATOM      9  C   UNL     1       6.753   6.339  17.124  0.00  0.00    +0.000 A 
ATOM     10  C   UNL     1       6.723   5.859  18.430  0.00  0.00    +0.000 A 
ATOM     11  C   UNL     1       5.659   5.078  18.861  0.00  0.00    +0.000 A 
ATOM     12  C   UNL     1       4.570   4.858  18.005  0.00  0.00    +0.000 A 
ATOM     13  C   UNL     1       4.593   5.329  16.688  0.00  0.00    +0.000 A 
ATOM     14  C   UNL     1       5.697   6.069  16.247  0.00  0.00    +0.000 A 
BRANCH   9  16
ATOM     15  C   UNL     1       7.919   8.298  17.635  0.00  0.00    +0.000 C 
ATOM     16  O   UNL     1       7.822   7.135  16.821  0.00  0.00    +0.000 OA
ENDBRANCH   9  16
ENDBRANCH   6  12
ENDBRANCH   4   6
ENDBRANCH   2   4
ENDBRANCH   1   2
BRANCH   1  17
ATOM     17  C   UNL     1       1.222   8.876  20.377  0.00  0.00    +0.000 C 
BRANCH  17  18
ATOM     18  N   UNL     1      -0.214   8.990  20.617  0.00  0.00    +0.000 NA
ATOM     19  C   UNL     1      -0.503   9.245  22.033  0.00  0.00    +0.000 C 
ATOM     20  C   UNL     1      -0.010  10.616  22.520  0.00  0.00    +0.000 C 
ATOM     21  N   UNL     1      -0.527  11.696  21.666  0.00  0.00    +0.000 N 
ATOM     22  C   UNL     1      -0.364  11.521  20.219  0.00  0.00    +0.000 C 
ATOM     23  C   UNL     1      -0.813  10.096  19.815  0.00  0.00    +0.000 C 
BRANCH  21  24
ATOM     24  C   UNL     1      -0.818  12.918  22.268  0.00  0.00    +0.000 A 
ATOM     25  C   UNL     1       0.048  14.001  22.030  0.00  0.00    +0.000 A 
ATOM     26  C   UNL     1       0.003  15.169  22.794  0.00  0.00    +0.000 A 
ATOM     27  C   UNL     1      -0.941  15.288  23.793  0.00  0.00    +0.000 A 
ATOM     28  C   UNL     1      -1.883  14.277  23.982  0.00  0.00    +0.000 A 
ATOM     29  C   UNL     1      -1.855  13.102  23.209  0.00  0.00    +0.000 A 
BRANCH  29  30
ATOM     30  O   UNL     1      -2.747  12.074  23.429  0.00  0.00    +0.000 OA
ATOM     31  C   UNL     1      -3.914  12.416  24.172  0.00  0.00    +0.000 C 
ENDBRANCH  29  30
ENDBRANCH  21  24
ENDBRANCH  17  18
ENDBRANCH   1  17
TORSDOF 9
ENDMDL
MODEL 4
REMARK VINA RESULT:      -6.8      5.712      7.916
REMARK  Name = 
REMARK  12 active torsions:
REMARK  status: ('A' for Active; 'I' for Inactive)
REMARK    1  A    between atoms: C_1  and  O_2
REMARK    2  A    between atoms: O_2  and  C_3
REMARK    3  A    between atoms: C_6  and  S_7
REMARK    4  A    between atoms: S_7  and  N_10
REMARK    5  A    between atoms: N_10  and  C_11
REMARK    6  A    between atoms: C_11  and  C_12
REMARK    7  A    between atoms: C_11  and  C_13
REMARK    8  A    between atoms: C_13  and  C_14
REMARK    9  A    between atoms: C_14  and  N_15
REMARK   10  A    between atoms: N_18  and  C_19
REMARK   11  A    between atoms: C_24  and  O_25
REMARK   12  A    between atoms: O_25  and  C_26
REMARK                            x       y       z     vdW  Elec       q    Type
REMARK                         _______ _______ _______ _____ _____    ______ ____
ROOT
ATOM      1  C   UNL     1       1.844   4.914  19.306  0.00  0.00    +0.000 C 
ENDROOT
BRANCH   1   2
ATOM      2  C   UNL     1       1.198   3.645  18.732  0.00  0.00    +0.000 C 
ATOM      3  C   UNL     1       0.513   2.922  19.918  0.00  0.00    +0.000 C 
BRANCH   2   4
ATOM      4  N   UNL     1       2.151   2.669  18.174  0.00  0.00    +0.000 NA
ATOM      5  H   UNL     1       1.882   2.109  17.367  0.00  0.00    +0.000 HD
BRANCH   4   6
ATOM      6  S   UNL     1       3.690   2.334  18.726  0.00  0.00    +0.000 S 
ATOM      7  O   UNL     1       4.108   1.027  18.263  0.00  0.00    +0.000 OA
ATOM      8  O   UNL     1       3.682   2.678  20.122  0.00  0.00    +0.000 OA
BRANCH   6  12
ATOM      9  C   UNL     1       5.920   5.873  16.956  0.00  0.00    +0.000 A 
ATOM     10  C   UNL     1       6.108   5.518  18.288  0.00  0.00    +0.000 A 
ATOM     11  C   UNL     1       5.540   4.352  18.785  0.00  0.00    +0.000 A 
ATOM     12  C   UNL     1       4.695   3.590  17.966  0.00  0.00    +0.000 A 
ATOM     13  C   UNL     1       4.505   3.933  16.623  0.00  0.00    +0.000 A 
ATOM     14  C   UNL     1       5.129   5.080  16.117  0.00  0.00    +0.000 A 
BRANCH   9  16
ATOM     15  C   UNL     1       7.406   7.578  17.539  0.00  0.00    +0.000 C 
ATOM     16  O   UNL     1       6.485   7.061  16.586  0.00  0.00    +0.000 OA
ENDBRANCH   9  16
ENDBRANCH   6  12
ENDBRANCH   4   6
ENDBRANCH   2   4
ENDBRANCH   1   2
BRANCH   1  17
ATOM     17  C   UNL     1       2.008   6.095  18.350  0.00  0.00    +0.000 C 
BRANCH  17  18
ATOM     18  N   UNL     1       2.878   7.153  18.854  0.00  0.00    +0.000 NA
ATOM     19  C   UNL     1       3.055   8.221  17.862  0.00  0.00    +0.000 C 
ATOM     20  C   UNL     1       1.768   9.006  17.573  0.00  0.00    +0.000 C 
ATOM     21  N   UNL     1       1.176   9.525  18.816  0.00  0.00    +0.000 N 
ATOM     22  C   UNL     1       1.015   8.566  19.913  0.00  0.00    +0.000 C 
ATOM     23  C   UNL     1       2.326   7.764  20.099  0.00  0.00    +0.000 C 
BRANCH  21  24
ATOM     24  C   UNL     1       0.520  10.752  18.760  0.00  0.00    +0.000 A 
ATOM     25  C   UNL     1       1.227  11.903  19.151  0.00  0.00    +0.000 A 
ATOM     26  C   UNL     1       0.587  13.121  19.394  0.00  0.00    +0.000 A 
ATOM     27  C   UNL     1      -0.777  13.216  19.212  0.00  0.00    +0.000 A 
ATOM     28  C   UNL     1      -1.490  12.122  18.721  0.00  0.00    +0.000 A 
ATOM     29  C   UNL     1      -0.852  10.895  18.461  0.00  0.00    +0.000 A 
BRANCH  29  30
ATOM     30  O   UNL     1      -1.561   9.794  18.030  0.00  0.00    +0.000 OA
ATOM     31  C   UNL     1      -2.176   9.915  16.750  0.00  0.00    +0.000 C 
ENDBRANCH  29  30
ENDBRANCH  21  24
ENDBRANCH  17  18
ENDBRANCH   1  17
TORSDOF 9
ENDMDL
MODEL 5
REMARK VINA RESULT:      -6.8      6.429      8.452
REMARK  Name = 
REMARK  12 active torsions:
REMARK  status: ('A' for Active; 'I' for Inactive)
REMARK    1  A    between atoms: C_1  and  O_2
REMARK    2  A    between atoms: O_2  and  C_3
REMARK    3  A    between atoms: C_6  and  S_7
REMARK    4  A    between atoms: S_7  and  N_10
REMARK    5  A    between atoms: N_10  and  C_11
REMARK    6  A    between atoms: C_11  and  C_12
REMARK    7  A    between atoms: C_11  and  C_13
REMARK    8  A    between atoms: C_13  and  C_14
REMARK    9  A    between atoms: C_14  and  N_15
REMARK   10  A    between atoms: N_18  and  C_19
REMARK   11  A    between atoms: C_24  and  O_25
REMARK   12  A    between atoms: O_25  and  C_26
REMARK                            x       y       z     vdW  Elec       q    Type
REMARK                         _______ _______ _______ _____ _____    ______ ____
ROOT
ATOM      1  C   UNL     1       1.849   7.698  17.987  0.00  0.00    +0.000 C 
ENDROOT
BRANCH   1   2
ATOM      2  C   UNL     1       3.060   6.792  18.245  0.00  0.00    +0.000 C 
ATOM      3  C   UNL     1       4.203   7.310  17.337  0.00  0.00    +0.000 C 
BRANCH   2   4
ATOM      4  N   UNL     1       2.865   5.381  17.866  0.00  0.00    +0.000 NA
ATOM      5  H   UNL     1       2.045   5.115  17.326  0.00  0.00    +0.000 HD
BRANCH   4   6
ATOM      6  S   UNL     1       3.859   4.092  18.237  0.00  0.00    +0.000 S 
ATOM      7  O   UNL     1       3.135   2.848  18.077  0.00  0.00    +0.000 OA
ATOM      8  O   UNL     1       4.502   4.443  19.474  0.00  0.00    +0.000 OA
BRANCH   6  12
ATOM      9  C   UNL     1       7.088   4.848  15.133  0.00  0.00    +0.000 A 
ATOM     10  C   UNL     1       7.371   4.981  16.489  0.00  0.00    +0.000 A 
ATOM     11  C   UNL     1       6.427   4.609  17.437  0.00  0.00    +0.000 A 
ATOM     12  C   UNL     1       5.154   4.193  17.020  0.00  0.00    +0.000 A 
ATOM     13  C   UNL     1       4.862   4.047  15.660  0.00  0.00    +0.000 A 
ATOM     14  C   UNL     1       5.841   4.372  14.714  0.00  0.00    +0.000 A 
BRANCH   9  16
ATOM     15  C   UNL     1       7.717   5.209  12.913  0.00  0.00    +0.000 C 
ATOM     16  O   UNL     1       8.070   5.286  14.289  0.00  0.00    +0.000 OA
ENDBRANCH   9  16
ENDBRANCH   6  12
ENDBRANCH   4   6
ENDBRANCH   2   4
ENDBRANCH   1   2
BRANCH   1  17
ATOM     17  C   UNL     1       1.762   8.982  18.812  0.00  0.00    +0.000 C 
BRANCH  17  18
ATOM     18  N   UNL     1       1.160  10.106  18.102  0.00  0.00    +0.000 NA
ATOM     19  C   UNL     1      -0.306  10.045  18.144  0.00  0.00    +0.000 C 
ATOM     20  C   UNL     1      -0.885  10.238  19.554  0.00  0.00    +0.000 C 
ATOM     21  N   UNL     1      -0.384  11.479  20.165  0.00  0.00    +0.000 N 
ATOM     22  C   UNL     1       1.066  11.691  20.119  0.00  0.00    +0.000 C 
ATOM     23  C   UNL     1       1.587  11.410  18.688  0.00  0.00    +0.000 C 
BRANCH  21  24
ATOM     24  C   UNL     1      -1.240  12.178  21.012  0.00  0.00    +0.000 A 
ATOM     25  C   UNL     1      -2.174  13.057  20.436  0.00  0.00    +0.000 A 
ATOM     26  C   UNL     1      -2.875  13.997  21.196  0.00  0.00    +0.000 A 
ATOM     27  C   UNL     1      -2.678  14.046  22.561  0.00  0.00    +0.000 A 
ATOM     28  C   UNL     1      -1.840  13.116  23.175  0.00  0.00    +0.000 A 
ATOM     29  C   UNL     1      -1.140  12.157  22.420  0.00  0.00    +0.000 A 
BRANCH  29  30
ATOM     30  O   UNL     1      -0.266  11.272  23.015  0.00  0.00    +0.000 OA
ATOM     31  C   UNL     1      -0.790   9.976  23.293  0.00  0.00    +0.000 C 
ENDBRANCH  29  30
ENDBRANCH  21  24
ENDBRANCH  17  18
ENDBRANCH   1  17
TORSDOF 9
ENDMDL
MODEL 6
REMARK VINA RESULT:      -6.7      6.789     10.036
REMARK  Name = 
REMARK  12 active torsions:
REMARK  status: ('A' for Active; 'I' for Inactive)
REMARK    1  A    between atoms: C_1  and  O_2
REMARK    2  A    between atoms: O_2  and  C_3
REMARK    3  A    between atoms: C_6  and  S_7
REMARK    4  A    between atoms: S_7  and  N_10
REMARK    5  A    between atoms: N_10  and  C_11
REMARK    6  A    between atoms: C_11  and  C_12
REMARK    7  A    between atoms: C_11  and  C_13
REMARK    8  A    between atoms: C_13  and  C_14
REMARK    9  A    between atoms: C_14  and  N_15
REMARK   10  A    between atoms: N_18  and  C_19
REMARK   11  A    between atoms: C_24  and  O_25
REMARK   12  A    between atoms: O_25  and  C_26
REMARK                            x       y       z     vdW  Elec       q    Type
REMARK                         _______ _______ _______ _____ _____    ______ ____
ROOT
ATOM      1  C   UNL     1       1.229   6.989  21.199  0.00  0.00    +0.000 C 
ENDROOT
BRANCH   1   2
ATOM      2  C   UNL     1       1.342   8.502  20.969  0.00  0.00    +0.000 C 
ATOM      3  C   UNL     1       1.513   9.150  22.366  0.00  0.00    +0.000 C 
BRANCH   2   4
ATOM      4  N   UNL     1       0.140   9.128  20.390  0.00  0.00    +0.000 NA
ATOM      5  H   UNL     1      -0.706   8.573  20.268  0.00  0.00    +0.000 HD
BRANCH   4   6
ATOM      6  S   UNL     1      -0.024  10.705  19.870  0.00  0.00    +0.000 S 
ATOM      7  O   UNL     1       1.183  11.128  19.189  0.00  0.00    +0.000 OA
ATOM      8  O   UNL     1      -0.556  11.429  20.992  0.00  0.00    +0.000 OA
BRANCH   6  12
ATOM      9  C   UNL     1      -3.191  10.821  16.616  0.00  0.00    +0.000 A 
ATOM     10  C   UNL     1      -2.122   9.934  16.527  0.00  0.00    +0.000 A 
ATOM     11  C   UNL     1      -1.239   9.799  17.590  0.00  0.00    +0.000 A 
ATOM     12  C   UNL     1      -1.371  10.631  18.710  0.00  0.00    +0.000 A 
ATOM     13  C   UNL     1      -2.446  11.521  18.814  0.00  0.00    +0.000 A 
ATOM     14  C   UNL     1      -3.363  11.608  17.760  0.00  0.00    +0.000 A 
BRANCH   9  16
ATOM     15  C   UNL     1      -3.479  10.148  14.398  0.00  0.00    +0.000 C 
ATOM     16  O   UNL     1      -3.969  10.908  15.496  0.00  0.00    +0.000 OA
ENDBRANCH   9  16
ENDBRANCH   6  12
ENDBRANCH   4   6
ENDBRANCH   2   4
ENDBRANCH   1   2
BRANCH   1  17
ATOM     17  C   UNL     1       2.362   6.124  20.647  0.00  0.00    +0.000 C 
BRANCH  17  18
ATOM     18  N   UNL     1       1.944   5.188  19.608  0.00  0.00    +0.000 NA
ATOM     19  C   UNL     1       1.862   5.843  18.297  0.00  0.00    +0.000 C 
ATOM     20  C   UNL     1       3.224   6.301  17.756  0.00  0.00    +0.000 C 
ATOM     21  N   UNL     1       4.185   5.187  17.737  0.00  0.00    +0.000 N 
ATOM     22  C   UNL     1       4.305   4.406  18.972  0.00  0.00    +0.000 C 
ATOM     23  C   UNL     1       2.894   4.042  19.495  0.00  0.00    +0.000 C 
BRANCH  21  24
ATOM     24  C   UNL     1       5.126   5.159  16.710  0.00  0.00    +0.000 A 
ATOM     25  C   UNL     1       4.855   4.367  15.580  0.00  0.00    +0.000 A 
ATOM     26  C   UNL     1       5.839   4.055  14.639  0.00  0.00    +0.000 A 
ATOM     27  C   UNL     1       7.111   4.565  14.796  0.00  0.00    +0.000 A 
ATOM     28  C   UNL     1       7.384   5.440  15.847  0.00  0.00    +0.000 A 
ATOM     29  C   UNL     1       6.396   5.772  16.793  0.00  0.00    +0.000 A 
BRANCH  29  30
ATOM     30  O   UNL     1       6.674   6.591  17.866  0.00  0.00    +0.000 OA
ATOM     31  C   UNL     1       7.631   6.090  18.796  0.00  0.00    +0.000 C 
ENDBRANCH  29  30
ENDBRANCH  21  24
ENDBRANCH  17  18
ENDBRANCH   1  17
TORSDOF 9
ENDMDL
MODEL 7
REMARK VINA RESULT:      -6.7      5.808      7.843
REMARK  Name = 
REMARK  12 active torsions:
REMARK  status: ('A' for Active; 'I' for Inactive)
REMARK    1  A    between atoms: C_1  and  O_2
REMARK    2  A    between atoms: O_2  and  C_3
REMARK    3  A    between atoms: C_6  and  S_7
REMARK    4  A    between atoms: S_7  and  N_10
REMARK    5  A    between atoms: N_10  and  C_11
REMARK    6  A    between atoms: C_11  and  C_12
REMARK    7  A    between atoms: C_11  and  C_13
REMARK    8  A    between atoms: C_13  and  C_14
REMARK    9  A    between atoms: C_14  and  N_15
REMARK   10  A    between atoms: N_18  and  C_19
REMARK   11  A    between atoms: C_24  and  O_25
REMARK   12  A    between atoms: O_25  and  C_26
REMARK                            x       y       z     vdW  Elec       q    Type
REMARK                         _______ _______ _______ _____ _____    ______ ____
ROOT
ATOM      1  C   UNL     1       1.137   5.147  20.376  0.00  0.00    +0.000 C 
ENDROOT
BRANCH   1   2
ATOM      2  C   UNL     1       1.818   3.771  20.383  0.00  0.00    +0.000 C 
ATOM      3  C   UNL     1       1.655   3.205  21.816  0.00  0.00    +0.000 C 
BRANCH   2   4
ATOM      4  N   UNL     1       3.270   3.802  20.134  0.00  0.00    +0.000 NA
ATOM      5  H   UNL     1       3.834   4.546  20.541  0.00  0.00    +0.000 HD
BRANCH   4   6
ATOM      6  S   UNL     1       4.157   2.727  19.215  0.00  0.00    +0.000 S 
ATOM      7  O   UNL     1       3.266   1.854  18.480  0.00  0.00    +0.000 OA
ATOM      8  O   UNL     1       5.170   2.212  20.095  0.00  0.00    +0.000 OA
BRANCH   6  12
ATOM      9  C   UNL     1       6.697   4.988  16.204  0.00  0.00    +0.000 A 
ATOM     10  C   UNL     1       5.597   4.247  15.782  0.00  0.00    +0.000 A 
ATOM     11  C   UNL     1       4.740   3.679  16.715  0.00  0.00    +0.000 A 
ATOM     12  C   UNL     1       5.044   3.772  18.081  0.00  0.00    +0.000 A 
ATOM     13  C   UNL     1       6.142   4.521  18.517  0.00  0.00    +0.000 A 
ATOM     14  C   UNL     1       6.968   5.137  17.569  0.00  0.00    +0.000 A 
BRANCH   9  16
ATOM     15  C   UNL     1       7.197   4.918  13.924  0.00  0.00    +0.000 C 
ATOM     16  O   UNL     1       7.498   5.463  15.203  0.00  0.00    +0.000 OA
ENDBRANCH   9  16
ENDBRANCH   6  12
ENDBRANCH   4   6
ENDBRANCH   2   4
ENDBRANCH   1   2
BRANCH   1  17
ATOM     17  C   UNL     1       1.525   6.100  19.245  0.00  0.00    +0.000 C 
BRANCH  17  18
ATOM     18  N   UNL     1       2.407   7.187  19.658  0.00  0.00    +0.000 NA
ATOM     19  C   UNL     1       2.613   8.153  18.571  0.00  0.00    +0.000 C 
ATOM     20  C   UNL     1       1.343   8.927  18.193  0.00  0.00    +0.000 C 
ATOM     21  N   UNL     1       0.746   9.571  19.373  0.00  0.00    +0.000 N 
ATOM     22  C   UNL     1       0.556   8.723  20.554  0.00  0.00    +0.000 C 
ATOM     23  C   UNL     1       1.852   7.922  20.831  0.00  0.00    +0.000 C 
BRANCH  21  24
ATOM     24  C   UNL     1       0.111  10.798  19.194  0.00  0.00    +0.000 A 
ATOM     25  C   UNL     1      -1.029  10.844  18.372  0.00  0.00    +0.000 A 
ATOM     26  C   UNL     1      -1.563  12.050  17.910  0.00  0.00    +0.000 A 
ATOM     27  C   UNL     1      -0.981  13.239  18.299  0.00  0.00    +0.000 A 
ATOM     28  C   UNL     1       0.083  13.231  19.200  0.00  0.00    +0.000 A 
ATOM     29  C   UNL     1       0.620  12.022  19.680  0.00  0.00    +0.000 A 
BRANCH  29  30
ATOM     30  O   UNL     1       1.708  12.005  20.526  0.00  0.00    +0.000 OA
ATOM     31  C   UNL     1       2.418  13.234  20.648  0.00  0.00    +0.000 C 
ENDBRANCH  29  30
ENDBRANCH  21  24
ENDBRANCH  17  18
ENDBRANCH   1  17
TORSDOF 9
ENDMDL
MODEL 8
REMARK VINA RESULT:      -6.7      3.502     10.285
REMARK  Name = 
REMARK  12 active torsions:
REMARK  status: ('A' for Active; 'I' for Inactive)
REMARK    1  A    between atoms: C_1  and  O_2
REMARK    2  A    between atoms: O_2  and  C_3
REMARK    3  A    between atoms: C_6  and  S_7
REMARK    4  A    between atoms: S_7  and  N_10
REMARK    5  A    between atoms: N_10  and  C_11
REMARK    6  A    between atoms: C_11  and  C_12
REMARK    7  A    between atoms: C_11  and  C_13
REMARK    8  A    between atoms: C_13  and  C_14
REMARK    9  A    between atoms: C_14  and  N_15
REMARK   10  A    between atoms: N_18  and  C_19
REMARK   11  A    between atoms: C_24  and  O_25
REMARK   12  A    between atoms: O_25  and  C_26
REMARK                            x       y       z     vdW  Elec       q    Type
REMARK                         _______ _______ _______ _____ _____    ______ ____
ROOT
ATOM      1  C   UNL     1       8.759   8.748  18.572  0.00  0.00    +0.000 C 
ENDROOT
BRANCH   1   2
ATOM      2  C   UNL     1       8.764  10.280  18.663  0.00  0.00    +0.000 C 
ATOM      3  C   UNL     1       9.959  10.769  17.808  0.00  0.00    +0.000 C 
BRANCH   2   4
ATOM      4  N   UNL     1       9.002  10.815  20.015  0.00  0.00    +0.000 NA
ATOM      5  H   UNL     1       8.890  10.206  20.824  0.00  0.00    +0.000 HD
BRANCH   4   6
ATOM      6  S   UNL     1       9.444  12.373  20.418  0.00  0.00    +0.000 S 
ATOM      7  O   UNL     1       8.840  13.312  19.495  0.00  0.00    +0.000 OA
ATOM      8  O   UNL     1      10.865  12.328  20.634  0.00  0.00    +0.000 OA
BRANCH   6  12
ATOM      9  C   UNL     1       8.159  12.936  24.738  0.00  0.00    +0.000 A 
ATOM     10  C   UNL     1       8.587  14.024  23.983  0.00  0.00    +0.000 A 
ATOM     11  C   UNL     1       8.838  13.875  22.626  0.00  0.00    +0.000 A 
ATOM     12  C   UNL     1       8.756  12.602  22.042  0.00  0.00    +0.000 A 
ATOM     13  C   UNL     1       8.319  11.503  22.789  0.00  0.00    +0.000 A 
ATOM     14  C   UNL     1       8.014  11.677  24.144  0.00  0.00    +0.000 A 
BRANCH   9  16
ATOM     15  C   UNL     1       8.858  14.183  26.585  0.00  0.00    +0.000 C 
ATOM     16  O   UNL     1       7.985  13.184  26.071  0.00  0.00    +0.000 OA
ENDBRANCH   9  16
ENDBRANCH   6  12
ENDBRANCH   4   6
ENDBRANCH   2   4
ENDBRANCH   1   2
BRANCH   1  17
ATOM     17  C   UNL     1       7.640   8.111  17.748  0.00  0.00    +0.000 C 
BRANCH  17  18
ATOM     18  N   UNL     1       7.871   6.710  17.411  0.00  0.00    +0.000 NA
ATOM     19  C   UNL     1       7.574   5.829  18.547  0.00  0.00    +0.000 C 
ATOM     20  C   UNL     1       6.086   5.802  18.927  0.00  0.00    +0.000 C 
ATOM     21  N   UNL     1       5.250   5.473  17.762  0.00  0.00    +0.000 N 
ATOM     22  C   UNL     1       5.504   6.239  16.538  0.00  0.00    +0.000 C 
ATOM     23  C   UNL     1       7.026   6.282  16.258  0.00  0.00    +0.000 C 
BRANCH  21  24
ATOM     24  C   UNL     1       4.093   4.729  17.982  0.00  0.00    +0.000 A 
ATOM     25  C   UNL     1       4.171   3.330  17.874  0.00  0.00    +0.000 A 
ATOM     26  C   UNL     1       3.031   2.526  17.801  0.00  0.00    +0.000 A 
ATOM     27  C   UNL     1       1.784   3.113  17.874  0.00  0.00    +0.000 A 
ATOM     28  C   UNL     1       1.675   4.487  18.089  0.00  0.00    +0.000 A 
ATOM     29  C   UNL     1       2.818   5.303  18.177  0.00  0.00    +0.000 A 
BRANCH  29  30
ATOM     30  O   UNL     1       2.716   6.669  18.333  0.00  0.00    +0.000 OA
ATOM     31  C   UNL     1       2.323   7.117  19.628  0.00  0.00    +0.000 C 
ENDBRANCH  29  30
ENDBRANCH  21  24
ENDBRANCH  17  18
ENDBRANCH   1  17
TORSDOF 9
ENDMDL
MODEL 9
REMARK VINA RESULT:      -6.7      0.926      1.289
REMARK  Name = 
REMARK  12 active torsions:
REMARK  status: ('A' for Active; 'I' for Inactive)
REMARK    1  A    between atoms: C_1  and  O_2
REMARK    2  A    between atoms: O_2  and  C_3
REMARK    3  A    between atoms: C_6  and  S_7
REMARK    4  A    between atoms: S_7  and  N_10
REMARK    5  A    between atoms: N_10  and  C_11
REMARK    6  A    between atoms: C_11  and  C_12
REMARK    7  A    between atoms: C_11  and  C_13
REMARK    8  A    between atoms: C_13  and  C_14
REMARK    9  A    between atoms: C_14  and  N_15
REMARK   10  A    between atoms: N_18  and  C_19
REMARK   11  A    between atoms: C_24  and  O_25
REMARK   12  A    between atoms: O_25  and  C_26
REMARK                            x       y       z     vdW  Elec       q    Type
REMARK                         _______ _______ _______ _____ _____    ______ ____
ROOT
ATOM      1  C   UNL     1       8.546   8.981  17.793  0.00  0.00    +0.000 C 
ENDROOT
BRANCH   1   2
ATOM      2  C   UNL     1       7.533   7.836  17.935  0.00  0.00    +0.000 C 
ATOM      3  C   UNL     1       8.199   6.766  18.835  0.00  0.00    +0.000 C 
BRANCH   2   4
ATOM      4  N   UNL     1       7.206   7.144  16.675  0.00  0.00    +0.000 NA
ATOM      5  H   UNL     1       7.050   7.688  15.829  0.00  0.00    +0.000 HD
BRANCH   4   6
ATOM      6  S   UNL     1       7.038   5.500  16.444  0.00  0.00    +0.000 S 
ATOM      7  O   UNL     1       7.846   4.781  17.408  0.00  0.00    +0.000 OA
ATOM      8  O   UNL     1       7.180   5.292  15.029  0.00  0.00    +0.000 OA
BRANCH   6  12
ATOM      9  C   UNL     1       2.764   4.684  17.748  0.00  0.00    +0.000 A 
ATOM     10  C   UNL     1       3.298   5.966  17.847  0.00  0.00    +0.000 A 
ATOM     11  C   UNL     1       4.550   6.242  17.314  0.00  0.00    +0.000 A 
ATOM     12  C   UNL     1       5.314   5.201  16.765  0.00  0.00    +0.000 A 
ATOM     13  C   UNL     1       4.784   3.911  16.654  0.00  0.00    +0.000 A 
ATOM     14  C   UNL     1       3.498   3.657  17.144  0.00  0.00    +0.000 A 
BRANCH   9  16
ATOM     15  C   UNL     1       1.478   3.366  19.185  0.00  0.00    +0.000 C 
ATOM     16  O   UNL     1       1.547   4.513  18.347  0.00  0.00    +0.000 OA
ENDBRANCH   9  16
ENDBRANCH   6  12
ENDBRANCH   4   6
ENDBRANCH   2   4
ENDBRANCH   1   2
BRANCH   1  17
ATOM     17  C   UNL     1       8.665   9.944  18.974  0.00  0.00    +0.000 C 
BRANCH  17  18
ATOM     18  N   UNL     1       9.942  10.646  19.043  0.00  0.00    +0.000 NA
ATOM     19  C   UNL     1      10.202  11.411  17.817  0.00  0.00    +0.000 C 
ATOM     20  C   UNL     1       9.229  12.581  17.608  0.00  0.00    +0.000 C 
ATOM     21  N   UNL     1       9.199  13.458  18.789  0.00  0.00    +0.000 N 
ATOM     22  C   UNL     1       9.019  12.802  20.087  0.00  0.00    +0.000 C 
ATOM     23  C   UNL     1       9.980  11.593  20.196  0.00  0.00    +0.000 C 
BRANCH  21  24
ATOM     24  C   UNL     1       9.009  14.822  18.580  0.00  0.00    +0.000 A 
ATOM     25  C   UNL     1      10.141  15.626  18.354  0.00  0.00    +0.000 A 
ATOM     26  C   UNL     1      10.084  17.020  18.411  0.00  0.00    +0.000 A 
ATOM     27  C   UNL     1       8.876  17.638  18.660  0.00  0.00    +0.000 A 
ATOM     28  C   UNL     1       7.716  16.873  18.780  0.00  0.00    +0.000 A 
ATOM     29  C   UNL     1       7.760  15.469  18.711  0.00  0.00    +0.000 A 
BRANCH  29  30
ATOM     30  O   UNL     1       6.627  14.704  18.885  0.00  0.00    +0.000 OA
ATOM     31  C   UNL     1       5.654  14.791  17.847  0.00  0.00    +0.000 C 
ENDBRANCH  29  30
ENDBRANCH  21  24
ENDBRANCH  17  18
ENDBRANCH   1  17
TORSDOF 9
ENDMDL
