MODEL 1
REMARK VINA RESULT:      -8.3      0.000      0.000
REMARK  Name = 
REMARK  9 active torsions:
REMARK  status: ('A' for Active; 'I' for Inactive)
REMARK    1  A    between atoms: C_1  and  C_2
REMARK    2  A    between atoms: C_2  and  O_3
REMARK    3  A    between atoms: C_2  and  C_4
REMARK    4  A    between atoms: C_4  and  N_5
REMARK    5  A    between atoms: N_8  and  C_9
REMARK    6  A    between atoms: N_8  and  C_10
REMARK    7  A    between atoms: C_10  and  C_11
REMARK    8  A    between atoms: C_13  and  C_14
REMARK    9  A    between atoms: C_15  and  C_16
REMARK                            x       y       z     vdW  Elec       q    Type
REMARK                         _______ _______ _______ _____ _____    ______ ____
ROOT
ATOM      1  C   UNL     1       3.636   4.741  18.121  0.00  0.00    +0.000 A 
ATOM      2  C   UNL     1       4.805   4.176  17.600  0.00  0.00    +0.000 A 
ATOM      3  N   UNL     1       5.154   3.170  18.478  0.00  0.00    +0.000 N 
ATOM      4  C   UNL     1       4.246   3.053  19.498  0.00  0.00    +0.000 A 
ATOM      5  C   UNL     1       4.223   2.149  20.565  0.00  0.00    +0.000 A 
ATOM      6  F   UNL     1       5.194   1.240  20.712  0.00  0.00    +0.000 F 
ATOM      7  C   UNL     1       3.172   2.190  21.469  0.00  0.00    +0.000 A 
ATOM      8  C   UNL     1       2.177   3.132  21.297  0.00  0.00    +0.000 A 
ATOM      9  F   UNL     1       1.147   3.164  22.154  0.00  0.00    +0.000 F 
ATOM     10  C   UNL     1       2.208   4.054  20.245  0.00  0.00    +0.000 A 
ATOM     11  C   UNL     1       3.264   4.025  19.307  0.00  0.00    +0.000 A 
ATOM     12  H   UNL     1       5.955   2.563  18.373  0.00  0.00    +0.000 HD
ENDROOT
BRANCH   2  13
ATOM     13  C   UNL     1       5.631   4.459  16.409  0.00  0.00    +0.000 A 
ATOM     14  C   UNL     1       5.310   3.902  15.157  0.00  0.00    +0.000 A 
ATOM     15  C   UNL     1       6.078   4.187  14.021  0.00  0.00    +0.000 A 
ATOM     16  C   UNL     1       7.187   5.016  14.132  0.00  0.00    +0.000 A 
ATOM     17  F   UNL     1       7.929   5.283  13.049  0.00  0.00    +0.000 F 
ATOM     18  C   UNL     1       7.527   5.579  15.350  0.00  0.00    +0.000 A 
ATOM     19  C   UNL     1       6.737   5.319  16.474  0.00  0.00    +0.000 A 
ENDBRANCH   2  13
BRANCH   1  22
ATOM     20  C   UNL     1       2.396   7.587  18.776  0.00  0.00    +0.000 C 
ATOM     21  C   UNL     1       1.595   6.492  18.025  0.00  0.00    +0.000 C 
ATOM     22  C   UNL     1       2.905   5.924  17.478  0.00  0.00    +0.000 C 
ATOM     23  C   UNL     1       3.556   7.299  17.781  0.00  0.00    +0.000 C 
BRANCH  20  24
ATOM     24  C   UNL     1       1.661   8.915  18.716  0.00  0.00    +0.000 C 
BRANCH  24  28
ATOM     25  N   UNL     1       0.406  11.184  21.220  0.00  0.00    +0.000 N 
ATOM     26  C   UNL     1       0.621  10.645  19.989  0.00  0.00    +0.000 C 
ATOM     27  O   UNL     1       0.579  11.340  18.972  0.00  0.00    +0.000 OA
ATOM     28  N   UNL     1       0.984   9.293  19.960  0.00  0.00    +0.000 N 
ATOM     29  C   UNL     1       1.232   8.518  21.174  0.00  0.00    +0.000 C 
ATOM     30  H   UNL     1       0.156  10.590  21.993  0.00  0.00    +0.000 HD
BRANCH  25  31
ATOM     31  C   UNL     1       0.135  12.597  21.417  0.00  0.00    +0.000 C 
BRANCH  31  33
ATOM     32  C   UNL     1      -2.278  13.105  21.972  0.00  0.00    +0.000 C 
ATOM     33  C   UNL     1      -0.902  12.776  22.531  0.00  0.00    +0.000 C 
BRANCH  33  34
ATOM     34  O   UNL     1      -0.985  11.577  23.312  0.00  0.00    +0.000 OA
ATOM     35  H   UNL     1      -1.060  11.837  24.246  0.00  0.00    +0.000 HD
ENDBRANCH  33  34
ENDBRANCH  31  33
ENDBRANCH  25  31
ENDBRANCH  24  28
ENDBRANCH  20  24
ENDBRANCH   1  22
TORSDOF 7
ENDMDL
MODEL 2
REMARK VINA RESULT:      -8.2      0.891      1.266
REMARK  Name = 
REMARK  9 active torsions:
REMARK  status: ('A' for Active; 'I' for Inactive)
REMARK    1  A    between atoms: C_1  and  C_2
REMARK    2  A    between atoms: C_2  and  O_3
REMARK    3  A    between atoms: C_2  and  C_4
REMARK    4  A    between atoms: C_4  and  N_5
REMARK    5  A    between atoms: N_8  and  C_9
REMARK    6  A    between atoms: N_8  and  C_10
REMARK    7  A    between atoms: C_10  and  C_11
REMARK    8  A    between atoms: C_13  and  C_14
REMARK    9  A    between atoms: C_15  and  C_16
REMARK                            x       y       z     vdW  Elec       q    Type
REMARK                         _______ _______ _______ _____ _____    ______ ____
ROOT
ATOM      1  C   UNL     1       3.578   4.692  18.201  0.00  0.00    +0.000 A 
ATOM      2  C   UNL     1       4.765   4.151  17.697  0.00  0.00    +0.000 A 
ATOM      3  N   UNL     1       5.126   3.158  18.585  0.00  0.00    +0.000 N 
ATOM      4  C   UNL     1       4.210   3.026  19.595  0.00  0.00    +0.000 A 
ATOM      5  C   UNL     1       4.194   2.128  20.668  0.00  0.00    +0.000 A 
ATOM      6  F   UNL     1       5.184   1.241  20.830  0.00  0.00    +0.000 F 
ATOM      7  C   UNL     1       3.133   2.151  21.559  0.00  0.00    +0.000 A 
ATOM      8  C   UNL     1       2.119   3.069  21.371  0.00  0.00    +0.000 A 
ATOM      9  F   UNL     1       1.079   3.084  22.216  0.00  0.00    +0.000 F 
ATOM     10  C   UNL     1       2.142   3.986  20.314  0.00  0.00    +0.000 A 
ATOM     11  C   UNL     1       3.209   3.975  19.388  0.00  0.00    +0.000 A 
ATOM     12  H   UNL     1       5.941   2.567  18.493  0.00  0.00    +0.000 HD
ENDROOT
BRANCH   2  13
ATOM     13  C   UNL     1       5.598   4.445  16.514  0.00  0.00    +0.000 A 
ATOM     14  C   UNL     1       6.781   5.199  16.632  0.00  0.00    +0.000 A 
ATOM     15  C   UNL     1       7.586   5.459  15.515  0.00  0.00    +0.000 A 
ATOM     16  C   UNL     1       7.202   4.987  14.266  0.00  0.00    +0.000 A 
ATOM     17  F   UNL     1       7.964   5.242  13.196  0.00  0.00    +0.000 F 
ATOM     18  C   UNL     1       6.044   4.242  14.120  0.00  0.00    +0.000 A 
ATOM     19  C   UNL     1       5.263   3.955  15.243  0.00  0.00    +0.000 A 
ENDBRANCH   2  13
BRANCH   1  22
ATOM     20  C   UNL     1       2.448   7.601  18.776  0.00  0.00    +0.000 C 
ATOM     21  C   UNL     1       1.572   6.486  18.147  0.00  0.00    +0.000 C 
ATOM     22  C   UNL     1       2.829   5.856  17.544  0.00  0.00    +0.000 C 
ATOM     23  C   UNL     1       3.528   7.228  17.721  0.00  0.00    +0.000 C 
BRANCH  20  24
ATOM     24  C   UNL     1       1.738   8.942  18.691  0.00  0.00    +0.000 C 
BRANCH  24  28
ATOM     25  N   UNL     1      -0.124  11.089  20.907  0.00  0.00    +0.000 N 
ATOM     26  C   UNL     1       0.286  10.516  19.743  0.00  0.00    +0.000 C 
ATOM     27  O   UNL     1       0.188  11.112  18.668  0.00  0.00    +0.000 OA
ATOM     28  N   UNL     1       0.907   9.266  19.854  0.00  0.00    +0.000 N 
ATOM     29  C   UNL     1       1.207   8.647  21.143  0.00  0.00    +0.000 C 
ATOM     30  H   UNL     1      -0.313  10.515  21.712  0.00  0.00    +0.000 HD
BRANCH  25  31
ATOM     31  C   UNL     1      -0.680  12.429  20.963  0.00  0.00    +0.000 C 
BRANCH  31  33
ATOM     32  C   UNL     1      -2.985  13.308  21.511  0.00  0.00    +0.000 C 
ATOM     33  C   UNL     1      -2.173  12.387  20.615  0.00  0.00    +0.000 C 
BRANCH  33  34
ATOM     34  O   UNL     1      -2.361  12.773  19.248  0.00  0.00    +0.000 OA
ATOM     35  H   UNL     1      -1.678  13.430  19.029  0.00  0.00    +0.000 HD
ENDBRANCH  33  34
ENDBRANCH  31  33
ENDBRANCH  25  31
ENDBRANCH  24  28
ENDBRANCH  20  24
ENDBRANCH   1  22
TORSDOF 7
ENDMDL
MODEL 3
REMARK VINA RESULT:      -8.0      4.883     11.085
REMARK  Name = 
REMARK  9 active torsions:
REMARK  status: ('A' for Active; 'I' for Inactive)
REMARK    1  A    between atoms: C_1  and  C_2
REMARK    2  A    between atoms: C_2  and  O_3
REMARK    3  A    between atoms: C_2  and  C_4
REMARK    4  A    between atoms: C_4  and  N_5
REMARK    5  A    between atoms: N_8  and  C_9
REMARK    6  A    between atoms: N_8  and  C_10
REMARK    7  A    between atoms: C_10  and  C_11
REMARK    8  A    between atoms: C_13  and  C_14
REMARK    9  A    between atoms: C_15  and  C_16
REMARK                            x       y       z     vdW  Elec       q    Type
REMARK                         _______ _______ _______ _____ _____    ______ ____
ROOT
ATOM      1  C   UNL     1      -1.866  11.680  19.572  0.00  0.00    +0.000 A 
ATOM      2  C   UNL     1      -2.858  12.443  20.196  0.00  0.00    +0.000 A 
ATOM      3  N   UNL     1      -3.908  12.488  19.302  0.00  0.00    +0.000 N 
ATOM      4  C   UNL     1      -3.639  11.764  18.169  0.00  0.00    +0.000 A 
ATOM      5  C   UNL     1      -4.443  11.540  17.047  0.00  0.00    +0.000 A 
ATOM      6  F   UNL     1      -5.664  12.083  16.962  0.00  0.00    +0.000 F 
ATOM      7  C   UNL     1      -3.973  10.732  16.023  0.00  0.00    +0.000 A 
ATOM      8  C   UNL     1      -2.714  10.177  16.132  0.00  0.00    +0.000 A 
ATOM      9  F   UNL     1      -2.260   9.379  15.157  0.00  0.00    +0.000 F 
ATOM     10  C   UNL     1      -1.895  10.418  17.241  0.00  0.00    +0.000 A 
ATOM     11  C   UNL     1      -2.357  11.230  18.301  0.00  0.00    +0.000 A 
ATOM     12  H   UNL     1      -4.787  12.959  19.464  0.00  0.00    +0.000 HD
ENDROOT
BRANCH   2  13
ATOM     13  C   UNL     1      -2.945  13.133  21.498  0.00  0.00    +0.000 A 
ATOM     14  C   UNL     1      -2.673  14.510  21.607  0.00  0.00    +0.000 A 
ATOM     15  C   UNL     1      -2.778  15.172  22.837  0.00  0.00    +0.000 A 
ATOM     16  C   UNL     1      -3.136  14.458  23.973  0.00  0.00    +0.000 A 
ATOM     17  F   UNL     1      -3.228  15.086  25.152  0.00  0.00    +0.000 F 
ATOM     18  C   UNL     1      -3.410  13.103  23.897  0.00  0.00    +0.000 A 
ATOM     19  C   UNL     1      -3.338  12.454  22.661  0.00  0.00    +0.000 A 
ENDBRANCH   2  13
BRANCH   1  22
ATOM     20  C   UNL     1       0.393   9.461  19.769  0.00  0.00    +0.000 C 
ATOM     21  C   UNL     1      -0.205  10.142  21.027  0.00  0.00    +0.000 C 
ATOM     22  C   UNL     1      -0.496  11.393  20.197  0.00  0.00    +0.000 C 
ATOM     23  C   UNL     1       0.561  10.890  19.180  0.00  0.00    +0.000 C 
BRANCH  20  24
ATOM     24  C   UNL     1       1.621   8.647  20.141  0.00  0.00    +0.000 C 
BRANCH  24  28
ATOM     25  N   UNL     1       3.020   5.558  18.919  0.00  0.00    +0.000 N 
ATOM     26  C   UNL     1       2.229   6.393  19.646  0.00  0.00    +0.000 C 
ATOM     27  O   UNL     1       1.778   6.053  20.742  0.00  0.00    +0.000 OA
ATOM     28  N   UNL     1       2.042   7.679  19.124  0.00  0.00    +0.000 N 
ATOM     29  C   UNL     1       2.738   8.152  17.930  0.00  0.00    +0.000 C 
ATOM     30  H   UNL     1       3.141   5.711  17.932  0.00  0.00    +0.000 HD
BRANCH  25  31
ATOM     31  C   UNL     1       3.396   4.236  19.388  0.00  0.00    +0.000 C 
BRANCH  31  33
ATOM     32  C   UNL     1       4.273   4.241  17.018  0.00  0.00    +0.000 C 
ATOM     33  C   UNL     1       4.357   3.585  18.387  0.00  0.00    +0.000 C 
BRANCH  33  34
ATOM     34  O   UNL     1       5.702   3.682  18.875  0.00  0.00    +0.000 OA
ATOM     35  H   UNL     1       6.121   4.443  18.437  0.00  0.00    +0.000 HD
ENDBRANCH  33  34
ENDBRANCH  31  33
ENDBRANCH  25  31
ENDBRANCH  24  28
ENDBRANCH  20  24
ENDBRANCH   1  22
TORSDOF 7
ENDMDL
MODEL 4
REMARK VINA RESULT:      -7.8      4.735     10.759
REMARK  Name = 
REMARK  9 active torsions:
REMARK  status: ('A' for Active; 'I' for Inactive)
REMARK    1  A    between atoms: C_1  and  C_2
REMARK    2  A    between atoms: C_2  and  O_3
REMARK    3  A    between atoms: C_2  and  C_4
REMARK    4  A    between atoms: C_4  and  N_5
REMARK    5  A    between atoms: N_8  and  C_9
REMARK    6  A    between atoms: N_8  and  C_10
REMARK    7  A    between atoms: C_10  and  C_11
REMARK    8  A    between atoms: C_13  and  C_14
REMARK    9  A    between atoms: C_15  and  C_16
REMARK                            x       y       z     vdW  Elec       q    Type
REMARK                         _______ _______ _______ _____ _____    ______ ____
ROOT
ATOM      1  C   UNL     1      -1.413  11.511  19.524  0.00  0.00    +0.000 A 
ATOM      2  C   UNL     1      -2.310  12.306  20.245  0.00  0.00    +0.000 A 
ATOM      3  N   UNL     1      -3.443  12.390  19.461  0.00  0.00    +0.000 N 
ATOM      4  C   UNL     1      -3.315  11.661  18.308  0.00  0.00    +0.000 A 
ATOM      5  C   UNL     1      -4.236  11.467  17.274  0.00  0.00    +0.000 A 
ATOM      6  F   UNL     1      -5.440  12.052  17.312  0.00  0.00    +0.000 F 
ATOM      7  C   UNL     1      -3.900  10.646  16.208  0.00  0.00    +0.000 A 
ATOM      8  C   UNL     1      -2.656  10.047  16.190  0.00  0.00    +0.000 A 
ATOM      9  F   UNL     1      -2.331   9.236  15.174  0.00  0.00    +0.000 F 
ATOM     10  C   UNL     1      -1.721  10.257  17.210  0.00  0.00    +0.000 A 
ATOM     11  C   UNL     1      -2.046  11.082  18.310  0.00  0.00    +0.000 A 
ATOM     12  H   UNL     1      -4.284  12.891  19.712  0.00  0.00    +0.000 HD
ENDROOT
BRANCH   2  13
ATOM     13  C   UNL     1      -2.242  12.996  21.549  0.00  0.00    +0.000 A 
ATOM     14  C   UNL     1      -3.104  12.638  22.602  0.00  0.00    +0.000 A 
ATOM     15  C   UNL     1      -3.025  13.275  23.848  0.00  0.00    +0.000 A 
ATOM     16  C   UNL     1      -2.097  14.289  24.044  0.00  0.00    +0.000 A 
ATOM     17  F   UNL     1      -2.026  14.905  25.230  0.00  0.00    +0.000 F 
ATOM     18  C   UNL     1      -1.235  14.662  23.026  0.00  0.00    +0.000 A 
ATOM     19  C   UNL     1      -1.294  14.000  21.796  0.00  0.00    +0.000 A 
ENDBRANCH   2  13
BRANCH   1  22
ATOM     20  C   UNL     1       0.661   9.123  19.766  0.00  0.00    +0.000 C 
ATOM     21  C   UNL     1       0.302  10.028  20.973  0.00  0.00    +0.000 C 
ATOM     22  C   UNL     1       0.001  11.175  20.008  0.00  0.00    +0.000 C 
ATOM     23  C   UNL     1       0.862  10.433  18.953  0.00  0.00    +0.000 C 
BRANCH  20  24
ATOM     24  C   UNL     1       1.858   8.248  20.098  0.00  0.00    +0.000 C 
BRANCH  24  28
ATOM     25  N   UNL     1       2.890   5.032  18.837  0.00  0.00    +0.000 N 
ATOM     26  C   UNL     1       2.183   5.947  19.555  0.00  0.00    +0.000 C 
ATOM     27  O   UNL     1       1.638   5.640  20.618  0.00  0.00    +0.000 OA
ATOM     28  N   UNL     1       2.195   7.259  19.069  0.00  0.00    +0.000 N 
ATOM     29  C   UNL     1       3.004   7.667  17.923  0.00  0.00    +0.000 C 
ATOM     30  H   UNL     1       3.078   5.195  17.862  0.00  0.00    +0.000 HD
BRANCH  25  31
ATOM     31  C   UNL     1       3.064   3.660  19.277  0.00  0.00    +0.000 C 
BRANCH  31  33
ATOM     32  C   UNL     1       0.870   2.450  18.946  0.00  0.00    +0.000 C 
ATOM     33  C   UNL     1       2.254   2.719  18.377  0.00  0.00    +0.000 C 
BRANCH  33  34
ATOM     34  O   UNL     1       2.124   3.295  17.071  0.00  0.00    +0.000 OA
ATOM     35  H   UNL     1       2.887   3.006  16.543  0.00  0.00    +0.000 HD
ENDBRANCH  33  34
ENDBRANCH  31  33
ENDBRANCH  25  31
ENDBRANCH  24  28
ENDBRANCH  20  24
ENDBRANCH   1  22
TORSDOF 7
ENDMDL
MODEL 5
REMARK VINA RESULT:      -7.7      4.880     10.688
REMARK  Name = 
REMARK  9 active torsions:
REMARK  status: ('A' for Active; 'I' for Inactive)
REMARK    1  A    between atoms: C_1  and  C_2
REMARK    2  A    between atoms: C_2  and  O_3
REMARK    3  A    between atoms: C_2  and  C_4
REMARK    4  A    between atoms: C_4  and  N_5
REMARK    5  A    between atoms: N_8  and  C_9
REMARK    6  A    between atoms: N_8  and  C_10
REMARK    7  A    between atoms: C_10  and  C_11
REMARK    8  A    between atoms: C_13  and  C_14
REMARK    9  A    between atoms: C_15  and  C_16
REMARK                            x       y       z     vdW  Elec       q    Type
REMARK                         _______ _______ _______ _____ _____    ______ ____
ROOT
ATOM      1  C   UNL     1      -1.236  11.494  19.077  0.00  0.00    +0.000 A 
ATOM      2  C   UNL     1      -2.041  12.255  19.930  0.00  0.00    +0.000 A 
ATOM      3  N   UNL     1      -3.261  12.360  19.292  0.00  0.00    +0.000 N 
ATOM      4  C   UNL     1      -3.271  11.675  18.105  0.00  0.00    +0.000 A 
ATOM      5  C   UNL     1      -4.310  11.512  17.183  0.00  0.00    +0.000 A 
ATOM      6  F   UNL     1      -5.501  12.087  17.388  0.00  0.00    +0.000 F 
ATOM      7  C   UNL     1      -4.102  10.734  16.054  0.00  0.00    +0.000 A 
ATOM      8  C   UNL     1      -2.868  10.146  15.864  0.00  0.00    +0.000 A 
ATOM      9  F   UNL     1      -2.666   9.375  14.786  0.00  0.00    +0.000 F 
ATOM     10  C   UNL     1      -1.817  10.324  16.771  0.00  0.00    +0.000 A 
ATOM     11  C   UNL     1      -2.009  11.106  17.933  0.00  0.00    +0.000 A 
ATOM     12  H   UNL     1      -4.067  12.845  19.661  0.00  0.00    +0.000 HD
ENDROOT
BRANCH   2  13
ATOM     13  C   UNL     1      -1.818  12.897  21.241  0.00  0.00    +0.000 A 
ATOM     14  C   UNL     1      -0.959  14.005  21.367  0.00  0.00    +0.000 A 
ATOM     15  C   UNL     1      -0.764  14.630  22.606  0.00  0.00    +0.000 A 
ATOM     16  C   UNL     1      -1.408  14.138  23.733  0.00  0.00    +0.000 A 
ATOM     17  F   UNL     1      -1.216  14.727  24.920  0.00  0.00    +0.000 F 
ATOM     18  C   UNL     1      -2.260  13.050  23.639  0.00  0.00    +0.000 A 
ATOM     19  C   UNL     1      -2.479  12.452  22.395  0.00  0.00    +0.000 A 
ENDBRANCH   2  13
BRANCH   1  22
ATOM     20  C   UNL     1       0.682   9.072  19.800  0.00  0.00    +0.000 C 
ATOM     21  C   UNL     1       0.668  10.387  20.624  0.00  0.00    +0.000 C 
ATOM     22  C   UNL     1       0.228  11.151  19.374  0.00  0.00    +0.000 C 
ATOM     23  C   UNL     1       0.774   9.968  18.533  0.00  0.00    +0.000 C 
BRANCH  20  24
ATOM     24  C   UNL     1       1.865   8.208  20.203  0.00  0.00    +0.000 C 
BRANCH  24  28
ATOM     25  N   UNL     1       3.048   4.987  19.099  0.00  0.00    +0.000 N 
ATOM     26  C   UNL     1       2.307   5.902  19.784  0.00  0.00    +0.000 C 
ATOM     27  O   UNL     1       1.807   5.628  20.877  0.00  0.00    +0.000 OA
ATOM     28  N   UNL     1       2.233   7.182  19.223  0.00  0.00    +0.000 N 
ATOM     29  C   UNL     1       2.990   7.567  18.034  0.00  0.00    +0.000 C 
ATOM     30  H   UNL     1       3.202   5.103  18.111  0.00  0.00    +0.000 HD
BRANCH  25  31
ATOM     31  C   UNL     1       3.310   3.655  19.611  0.00  0.00    +0.000 C 
BRANCH  31  33
ATOM     32  C   UNL     1       2.603   3.244  17.220  0.00  0.00    +0.000 C 
ATOM     33  C   UNL     1       2.902   2.608  18.568  0.00  0.00    +0.000 C 
BRANCH  33  34
ATOM     34  O   UNL     1       3.954   1.646  18.413  0.00  0.00    +0.000 OA
ATOM     35  H   UNL     1       3.780   0.916  19.031  0.00  0.00    +0.000 HD
ENDBRANCH  33  34
ENDBRANCH  31  33
ENDBRANCH  25  31
ENDBRANCH  24  28
ENDBRANCH  20  24
ENDBRANCH   1  22
TORSDOF 7
ENDMDL
MODEL 6
REMARK VINA RESULT:      -7.6      4.834     10.967
REMARK  Name = 
REMARK  9 active torsions:
REMARK  status: ('A' for Active; 'I' for Inactive)
REMARK    1  A    between atoms: C_1  and  C_2
REMARK    2  A    between atoms: C_2  and  O_3
REMARK    3  A    between atoms: C_2  and  C_4
REMARK    4  A    between atoms: C_4  and  N_5
REMARK    5  A    between atoms: N_8  and  C_9
REMARK    6  A    between atoms: N_8  and  C_10
REMARK    7  A    between atoms: C_10  and  C_11
REMARK    8  A    between atoms: C_13  and  C_14
REMARK    9  A    between atoms: C_15  and  C_16
REMARK                            x       y       z     vdW  Elec       q    Type
REMARK                         _______ _______ _______ _____ _____    ______ ____
ROOT
ATOM      1  C   UNL     1      -1.812  11.541  19.657  0.00  0.00    +0.000 A 
ATOM      2  C   UNL     1      -2.751  12.408  20.225  0.00  0.00    +0.000 A 
ATOM      3  N   UNL     1      -3.754  12.535  19.285  0.00  0.00    +0.000 N 
ATOM      4  C   UNL     1      -3.509  11.766  18.178  0.00  0.00    +0.000 A 
ATOM      5  C   UNL     1      -4.284  11.597  17.026  0.00  0.00    +0.000 A 
ATOM      6  F   UNL     1      -5.442  12.252  16.879  0.00  0.00    +0.000 F 
ATOM      7  C   UNL     1      -3.851  10.727  16.036  0.00  0.00    +0.000 A 
ATOM      8  C   UNL     1      -2.657  10.057  16.209  0.00  0.00    +0.000 A 
ATOM      9  F   UNL     1      -2.242   9.199  15.267  0.00  0.00    +0.000 F 
ATOM     10  C   UNL     1      -1.865  10.241  17.348  0.00  0.00    +0.000 A 
ATOM     11  C   UNL     1      -2.291  11.115  18.374  0.00  0.00    +0.000 A 
ATOM     12  H   UNL     1      -4.589  13.092  19.402  0.00  0.00    +0.000 HD
ENDROOT
BRANCH   2  13
ATOM     13  C   UNL     1      -2.826  13.130  21.511  0.00  0.00    +0.000 A 
ATOM     14  C   UNL     1      -3.221  12.469  22.689  0.00  0.00    +0.000 A 
ATOM     15  C   UNL     1      -3.270  13.146  23.915  0.00  0.00    +0.000 A 
ATOM     16  C   UNL     1      -2.945  14.495  23.969  0.00  0.00    +0.000 A 
ATOM     17  F   UNL     1      -3.000  15.146  25.137  0.00  0.00    +0.000 F 
ATOM     18  C   UNL     1      -2.552  15.171  22.826  0.00  0.00    +0.000 A 
ATOM     19  C   UNL     1      -2.471  14.483  21.612  0.00  0.00    +0.000 A 
ENDBRANCH   2  13
BRANCH   1  22
ATOM     20  C   UNL     1       0.456   9.322  19.644  0.00  0.00    +0.000 C 
ATOM     21  C   UNL     1      -0.272   9.750  20.946  0.00  0.00    +0.000 C 
ATOM     22  C   UNL     1      -0.504  11.137  20.346  0.00  0.00    +0.000 C 
ATOM     23  C   UNL     1       0.654  10.838  19.360  0.00  0.00    +0.000 C 
BRANCH  20  24
ATOM     24  C   UNL     1       1.656   8.450  19.972  0.00  0.00    +0.000 C 
BRANCH  24  28
ATOM     25  N   UNL     1       3.662   5.946  18.330  0.00  0.00    +0.000 N 
ATOM     26  C   UNL     1       2.765   6.483  19.201  0.00  0.00    +0.000 C 
ATOM     27  O   UNL     1       2.536   5.952  20.290  0.00  0.00    +0.000 OA
ATOM     28  N   UNL     1       2.200   7.709  18.830  0.00  0.00    +0.000 N 
ATOM     29  C   UNL     1       2.620   8.441  17.637  0.00  0.00    +0.000 C 
ATOM     30  H   UNL     1       3.634   6.201  17.357  0.00  0.00    +0.000 HD
BRANCH  25  31
ATOM     31  C   UNL     1       4.412   4.739  18.628  0.00  0.00    +0.000 C 
BRANCH  31  33
ATOM     32  C   UNL     1       6.188   6.239  17.636  0.00  0.00    +0.000 C 
ATOM     33  C   UNL     1       5.914   5.016  18.496  0.00  0.00    +0.000 C 
BRANCH  33  34
ATOM     34  O   UNL     1       6.484   5.216  19.796  0.00  0.00    +0.000 OA
ATOM     35  H   UNL     1       7.424   5.434  19.676  0.00  0.00    +0.000 HD
ENDBRANCH  33  34
ENDBRANCH  31  33
ENDBRANCH  25  31
ENDBRANCH  24  28
ENDBRANCH  20  24
ENDBRANCH   1  22
TORSDOF 7
ENDMDL
MODEL 7
REMARK VINA RESULT:      -7.6      1.699      1.921
REMARK  Name = 
REMARK  9 active torsions:
REMARK  status: ('A' for Active; 'I' for Inactive)
REMARK    1  A    between atoms: C_1  and  C_2
REMARK    2  A    between atoms: C_2  and  O_3
REMARK    3  A    between atoms: C_2  and  C_4
REMARK    4  A    between atoms: C_4  and  N_5
REMARK    5  A    between atoms: N_8  and  C_9
REMARK    6  A    between atoms: N_8  and  C_10
REMARK    7  A    between atoms: C_10  and  C_11
REMARK    8  A    between atoms: C_13  and  C_14
REMARK    9  A    between atoms: C_15  and  C_16
REMARK                            x       y       z     vdW  Elec       q    Type
REMARK                         _______ _______ _______ _____ _____    ______ ____
ROOT
ATOM      1  C   UNL     1       3.605   4.724  18.177  0.00  0.00    +0.000 A 
ATOM      2  C   UNL     1       4.787   4.161  17.683  0.00  0.00    +0.000 A 
ATOM      3  N   UNL     1       5.127   3.168  18.579  0.00  0.00    +0.000 N 
ATOM      4  C   UNL     1       4.202   3.056  19.584  0.00  0.00    +0.000 A 
ATOM      5  C   UNL     1       4.166   2.165  20.662  0.00  0.00    +0.000 A 
ATOM      6  F   UNL     1       5.141   1.264  20.836  0.00  0.00    +0.000 F 
ATOM      7  C   UNL     1       3.099   2.209  21.546  0.00  0.00    +0.000 A 
ATOM      8  C   UNL     1       2.101   3.142  21.346  0.00  0.00    +0.000 A 
ATOM      9  F   UNL     1       1.056   3.177  22.184  0.00  0.00    +0.000 F 
ATOM     10  C   UNL     1       2.144   4.052  20.284  0.00  0.00    +0.000 A 
ATOM     11  C   UNL     1       3.217   4.019  19.365  0.00  0.00    +0.000 A 
ATOM     12  H   UNL     1       5.933   2.565  18.496  0.00  0.00    +0.000 HD
ENDROOT
BRANCH   2  13
ATOM     13  C   UNL     1       5.632   4.436  16.504  0.00  0.00    +0.000 A 
ATOM     14  C   UNL     1       5.289   3.932  15.235  0.00  0.00    +0.000 A 
ATOM     15  C   UNL     1       6.076   4.211  14.110  0.00  0.00    +0.000 A 
ATOM     16  C   UNL     1       7.225   4.978  14.249  0.00  0.00    +0.000 A 
ATOM     17  F   UNL     1       7.984   5.238  13.177  0.00  0.00    +0.000 F 
ATOM     18  C   UNL     1       7.587   5.488  15.485  0.00  0.00    +0.000 A 
ATOM     19  C   UNL     1       6.780   5.237  16.597  0.00  0.00    +0.000 A 
ENDBRANCH   2  13
BRANCH   1  22
ATOM     20  C   UNL     1       2.699   7.726  18.657  0.00  0.00    +0.000 C 
ATOM     21  C   UNL     1       1.712   6.636  18.163  0.00  0.00    +0.000 C 
ATOM     22  C   UNL     1       2.878   5.895  17.508  0.00  0.00    +0.000 C 
ATOM     23  C   UNL     1       3.669   7.227  17.549  0.00  0.00    +0.000 C 
BRANCH  20  24
ATOM     24  C   UNL     1       2.066   9.103  18.544  0.00  0.00    +0.000 C 
BRANCH  24  28
ATOM     25  N   UNL     1      -1.087  10.605  19.434  0.00  0.00    +0.000 N 
ATOM     26  C   UNL     1      -0.133  10.021  18.659  0.00  0.00    +0.000 C 
ATOM     27  O   UNL     1      -0.094  10.213  17.442  0.00  0.00    +0.000 OA
ATOM     28  N   UNL     1       0.843   9.279  19.333  0.00  0.00    +0.000 N 
ATOM     29  C   UNL     1       0.918   9.215  20.791  0.00  0.00    +0.000 C 
ATOM     30  H   UNL     1      -1.294  10.230  20.345  0.00  0.00    +0.000 HD
BRANCH  25  31
ATOM     31  C   UNL     1      -2.097  11.495  18.891  0.00  0.00    +0.000 C 
BRANCH  31  33
ATOM     32  C   UNL     1      -4.337  11.543  17.722  0.00  0.00    +0.000 C 
ATOM     33  C   UNL     1      -3.335  10.689  18.483  0.00  0.00    +0.000 C 
BRANCH  33  34
ATOM     34  O   UNL     1      -2.942   9.580  17.665  0.00  0.00    +0.000 OA
ATOM     35  H   UNL     1      -3.476   9.608  16.852  0.00  0.00    +0.000 HD
ENDBRANCH  33  34
ENDBRANCH  31  33
ENDBRANCH  25  31
ENDBRANCH  24  28
ENDBRANCH  20  24
ENDBRANCH   1  22
TORSDOF 7
ENDMDL
MODEL 8
REMARK VINA RESULT:      -7.4      1.117      1.409
REMARK  Name = 
REMARK  9 active torsions:
REMARK  status: ('A' for Active; 'I' for Inactive)
REMARK    1  A    between atoms: C_1  and  C_2
REMARK    2  A    between atoms: C_2  and  O_3
REMARK    3  A    between atoms: C_2  and  C_4
REMARK    4  A    between atoms: C_4  and  N_5
REMARK    5  A    between atoms: N_8  and  C_9
REMARK    6  A    between atoms: N_8  and  C_10
REMARK    7  A    between atoms: C_10  and  C_11
REMARK    8  A    between atoms: C_13  and  C_14
REMARK    9  A    between atoms: C_15  and  C_16
REMARK                            x       y       z     vdW  Elec       q    Type
REMARK                         _______ _______ _______ _____ _____    ______ ____
ROOT
ATOM      1  C   UNL     1       3.799   5.007  17.381  0.00  0.00    +0.000 A 
ATOM      2  C   UNL     1       4.643   4.189  16.623  0.00  0.00    +0.000 A 
ATOM      3  N   UNL     1       4.483   2.917  17.134  0.00  0.00    +0.000 N 
ATOM      4  C   UNL     1       3.558   2.892  18.145  0.00  0.00    +0.000 A 
ATOM      5  C   UNL     1       3.096   1.807  18.898  0.00  0.00    +0.000 A 
ATOM      6  F   UNL     1       3.579   0.576  18.690  0.00  0.00    +0.000 F 
ATOM      7  C   UNL     1       2.115   2.012  19.857  0.00  0.00    +0.000 A 
ATOM      8  C   UNL     1       1.626   3.289  20.051  0.00  0.00    +0.000 A 
ATOM      9  F   UNL     1       0.664   3.493  20.961  0.00  0.00    +0.000 F 
ATOM     10  C   UNL     1       2.103   4.382  19.319  0.00  0.00    +0.000 A 
ATOM     11  C   UNL     1       3.095   4.194  18.330  0.00  0.00    +0.000 A 
ATOM     12  H   UNL     1       4.954   2.092  16.790  0.00  0.00    +0.000 HD
ENDROOT
BRANCH   2  13
ATOM     13  C   UNL     1       5.573   4.442  15.504  0.00  0.00    +0.000 A 
ATOM     14  C   UNL     1       6.716   5.244  15.681  0.00  0.00    +0.000 A 
ATOM     15  C   UNL     1       7.613   5.466  14.628  0.00  0.00    +0.000 A 
ATOM     16  C   UNL     1       7.363   4.905  13.383  0.00  0.00    +0.000 A 
ATOM     17  F   UNL     1       8.213   5.123  12.372  0.00  0.00    +0.000 F 
ATOM     18  C   UNL     1       6.247   4.111  13.179  0.00  0.00    +0.000 A 
ATOM     19  C   UNL     1       5.374   3.863  14.242  0.00  0.00    +0.000 A 
ENDBRANCH   2  13
BRANCH   1  22
ATOM     20  C   UNL     1       2.483   7.614  18.622  0.00  0.00    +0.000 C 
ATOM     21  C   UNL     1       2.333   7.249  17.122  0.00  0.00    +0.000 C 
ATOM     22  C   UNL     1       3.677   6.521  17.177  0.00  0.00    +0.000 C 
ATOM     23  C   UNL     1       4.005   7.350  18.445  0.00  0.00    +0.000 C 
BRANCH  20  24
ATOM     24  C   UNL     1       1.984   9.027  18.875  0.00  0.00    +0.000 C 
BRANCH  24  28
ATOM     25  N   UNL     1      -0.220  10.749  21.149  0.00  0.00    +0.000 N 
ATOM     26  C   UNL     1       0.355  10.382  19.971  0.00  0.00    +0.000 C 
ATOM     27  O   UNL     1       0.370  11.147  19.004  0.00  0.00    +0.000 OA
ATOM     28  N   UNL     1       1.002   9.141  19.957  0.00  0.00    +0.000 N 
ATOM     29  C   UNL     1       1.160   8.322  21.157  0.00  0.00    +0.000 C 
ATOM     30  H   UNL     1      -0.487  10.046  21.819  0.00  0.00    +0.000 HD
BRANCH  25  31
ATOM     31  C   UNL     1      -0.827  12.052  21.349  0.00  0.00    +0.000 C 
BRANCH  31  33
ATOM     32  C   UNL     1      -2.743  12.276  22.982  0.00  0.00    +0.000 C 
ATOM     33  C   UNL     1      -1.232  12.216  22.818  0.00  0.00    +0.000 C 
BRANCH  33  34
ATOM     34  O   UNL     1      -0.717  11.121  23.587  0.00  0.00    +0.000 OA
ATOM     35  H   UNL     1      -0.154  10.588  23.000  0.00  0.00    +0.000 HD
ENDBRANCH  33  34
ENDBRANCH  31  33
ENDBRANCH  25  31
ENDBRANCH  24  28
ENDBRANCH  20  24
ENDBRANCH   1  22
TORSDOF 7
ENDMDL
MODEL 9
REMARK VINA RESULT:      -7.3      1.111      1.199
REMARK  Name = 
REMARK  9 active torsions:
REMARK  status: ('A' for Active; 'I' for Inactive)
REMARK    1  A    between atoms: C_1  and  C_2
REMARK    2  A    between atoms: C_2  and  O_3
REMARK    3  A    between atoms: C_2  and  C_4
REMARK    4  A    between atoms: C_4  and  N_5
REMARK    5  A    between atoms: N_8  and  C_9
REMARK    6  A    between atoms: N_8  and  C_10
REMARK    7  A    between atoms: C_10  and  C_11
REMARK    8  A    between atoms: C_13  and  C_14
REMARK    9  A    between atoms: C_15  and  C_16
REMARK                            x       y       z     vdW  Elec       q    Type
REMARK                         _______ _______ _______ _____ _____    ______ ____
ROOT
ATOM      1  C   UNL     1       4.029   5.023  17.705  0.00  0.00    +0.000 A 
ATOM      2  C   UNL     1       4.740   4.194  16.832  0.00  0.00    +0.000 A 
ATOM      3  N   UNL     1       4.456   2.904  17.231  0.00  0.00    +0.000 N 
ATOM      4  C   UNL     1       3.577   2.883  18.283  0.00  0.00    +0.000 A 
ATOM      5  C   UNL     1       3.025   1.788  18.956  0.00  0.00    +0.000 A 
ATOM      6  F   UNL     1       3.353   0.537  18.610  0.00  0.00    +0.000 F 
ATOM      7  C   UNL     1       2.115   2.006  19.979  0.00  0.00    +0.000 A 
ATOM      8  C   UNL     1       1.785   3.304  20.317  0.00  0.00    +0.000 A 
ATOM      9  F   UNL     1       0.892   3.523  21.291  0.00  0.00    +0.000 F 
ATOM     10  C   UNL     1       2.354   4.403  19.664  0.00  0.00    +0.000 A 
ATOM     11  C   UNL     1       3.276   4.204  18.611  0.00  0.00    +0.000 A 
ATOM     12  H   UNL     1       4.813   2.069  16.789  0.00  0.00    +0.000 HD
ENDROOT
BRANCH   2  13
ATOM     13  C   UNL     1       5.646   4.450  15.694  0.00  0.00    +0.000 A 
ATOM     14  C   UNL     1       5.365   3.934  14.416  0.00  0.00    +0.000 A 
ATOM     15  C   UNL     1       6.210   4.194  13.329  0.00  0.00    +0.000 A 
ATOM     16  C   UNL     1       7.356   4.956  13.518  0.00  0.00    +0.000 A 
ATOM     17  F   UNL     1       8.171   5.198  12.483  0.00  0.00    +0.000 F 
ATOM     18  C   UNL     1       7.658   5.477  14.764  0.00  0.00    +0.000 A 
ATOM     19  C   UNL     1       6.794   5.244  15.837  0.00  0.00    +0.000 A 
ENDBRANCH   2  13
BRANCH   1  22
ATOM     20  C   UNL     1       2.339   7.616  18.403  0.00  0.00    +0.000 C 
ATOM     21  C   UNL     1       2.973   7.397  17.005  0.00  0.00    +0.000 C 
ATOM     22  C   UNL     1       4.074   6.554  17.649  0.00  0.00    +0.000 C 
ATOM     23  C   UNL     1       3.726   7.238  18.996  0.00  0.00    +0.000 C 
BRANCH  20  24
ATOM     24  C   UNL     1       1.823   9.040  18.533  0.00  0.00    +0.000 C 
BRANCH  24  28
ATOM     25  N   UNL     1      -0.179  10.980  20.817  0.00  0.00    +0.000 N 
ATOM     26  C   UNL     1       0.310  10.520  19.633  0.00  0.00    +0.000 C 
ATOM     27  O   UNL     1       0.291  11.222  18.620  0.00  0.00    +0.000 OA
ATOM     28  N   UNL     1       0.913   9.257  19.661  0.00  0.00    +0.000 N 
ATOM     29  C   UNL     1       1.118   8.510  20.900  0.00  0.00    +0.000 C 
ATOM     30  H   UNL     1      -0.427  10.331  21.545  0.00  0.00    +0.000 HD
BRANCH  25  31
ATOM     31  C   UNL     1      -0.729  12.315  20.968  0.00  0.00    +0.000 C 
BRANCH  31  33
ATOM     32  C   UNL     1      -1.433  11.185  23.116  0.00  0.00    +0.000 C 
ATOM     33  C   UNL     1      -1.225  12.513  22.405  0.00  0.00    +0.000 C 
BRANCH  33  34
ATOM     34  O   UNL     1      -0.277  13.298  23.140  0.00  0.00    +0.000 OA
ATOM     35  H   UNL     1      -0.531  14.232  23.045  0.00  0.00    +0.000 HD
ENDBRANCH  33  34
ENDBRANCH  31  33
ENDBRANCH  25  31
ENDBRANCH  24  28
ENDBRANCH  20  24
ENDBRANCH   1  22
TORSDOF 7
ENDMDL
