MODEL 1
REMARK VINA RESULT:      -6.8      0.000      0.000
REMARK  Name = 
REMARK  9 active torsions:
REMARK  status: ('A' for Active; 'I' for Inactive)
REMARK    1  A    between atoms: C_1  and  C_2
REMARK    2  A    between atoms: C_2  and  O_3
REMARK    3  A    between atoms: O_3  and  C_4
REMARK    4  A    between atoms: C_8  and  C_9
REMARK    5  A    between atoms: C_9  and  N_10
REMARK    6  A    between atoms: N_10  and  C_11
REMARK    7  A    between atoms: C_11  and  C_12
REMARK    8  A    between atoms: C_12  and  N_13
REMARK    9  A    between atoms: N_13  and  C_14
REMARK                            x       y       z     vdW  Elec       q    Type
REMARK                         _______ _______ _______ _____ _____    ______ ____
ROOT
ATOM      1  N   UNL     1       4.543   5.734  18.568  0.00  0.00    +0.000 NA
ATOM      2  H   UNL     1       4.285   5.502  19.527  0.00  0.00    +0.000 HD
ENDROOT
BRANCH   1   3
ATOM      3  C   UNL     1       3.333   6.083  17.827  0.00  0.00    +0.000 C 
BRANCH   3   8
ATOM      4  C   UNL     1       1.529   8.286  20.353  0.00  0.00    +0.000 A 
ATOM      5  C   UNL     1       1.164   9.371  19.555  0.00  0.00    +0.000 A 
ATOM      6  C   UNL     1       1.521   9.412  18.205  0.00  0.00    +0.000 A 
ATOM      7  C   UNL     1       2.245   8.361  17.648  0.00  0.00    +0.000 A 
ATOM      8  C   UNL     1       2.621   7.265  18.436  0.00  0.00    +0.000 A 
ATOM      9  C   UNL     1       2.261   7.240  19.791  0.00  0.00    +0.000 A 
BRANCH   4  10
ATOM     10  O   UNL     1       1.104   8.347  21.654  0.00  0.00    +0.000 OA
BRANCH  10  12
ATOM     11  C   UNL     1      -0.286   9.638  23.107  0.00  0.00    +0.000 C 
ATOM     12  C   UNL     1      -0.242   8.775  21.862  0.00  0.00    +0.000 C 
ENDBRANCH  10  12
ENDBRANCH   4  10
ENDBRANCH   3   8
ENDBRANCH   1   3
BRANCH   1  13
ATOM     13  C   UNL     1       5.258   4.597  17.966  0.00  0.00    +0.000 C 
BRANCH  13  14
ATOM     14  C   UNL     1       4.316   3.598  17.268  0.00  0.00    +0.000 C 
BRANCH  14  15
ATOM     15  N   UNL     1       4.078   2.401  18.080  0.00  0.00    +0.000 N 
ATOM     16  H   UNL     1       4.943   2.024  18.468  0.00  0.00    +0.000 HD
BRANCH  15  17
ATOM     17  C   UNL     1       3.123   2.580  19.106  0.00  0.00    +0.000 A 
ATOM     18  C   UNL     1       3.459   2.548  20.467  0.00  0.00    +0.000 A 
ATOM     19  C   UNL     1       2.495   2.738  21.459  0.00  0.00    +0.000 A 
ATOM     20  C   UNL     1       1.178   3.003  21.104  0.00  0.00    +0.000 A 
ATOM     21  C   UNL     1       0.835   3.102  19.757  0.00  0.00    +0.000 A 
ATOM     22  C   UNL     1       1.805   2.910  18.768  0.00  0.00    +0.000 A 
ENDBRANCH  15  17
ENDBRANCH  14  15
ENDBRANCH  13  14
ENDBRANCH   1  13
TORSDOF 8
ENDMDL
MODEL 2
REMARK VINA RESULT:      -6.8      2.927      5.858
REMARK  Name = 
REMARK  9 active torsions:
REMARK  status: ('A' for Active; 'I' for Inactive)
REMARK    1  A    between atoms: C_1  and  C_2
REMARK    2  A    between atoms: C_2  and  O_3
REMARK    3  A    between atoms: O_3  and  C_4
REMARK    4  A    between atoms: C_8  and  C_9
REMARK    5  A    between atoms: C_9  and  N_10
REMARK    6  A    between atoms: N_10  and  C_11
REMARK    7  A    between atoms: C_11  and  C_12
REMARK    8  A    between atoms: C_12  and  N_13
REMARK    9  A    between atoms: N_13  and  C_14
REMARK                            x       y       z     vdW  Elec       q    Type
REMARK                         _______ _______ _______ _____ _____    ______ ____
ROOT
ATOM      1  N   UNL     1       4.856   2.512  19.076  0.00  0.00    +0.000 NA
ATOM      2  H   UNL     1       5.481   1.942  19.647  0.00  0.00    +0.000 HD
ENDROOT
BRANCH   1   3
ATOM      3  C   UNL     1       4.890   3.887  19.573  0.00  0.00    +0.000 C 
BRANCH   3   8
ATOM      4  C   UNL     1       6.399   5.515  16.481  0.00  0.00    +0.000 A 
ATOM      5  C   UNL     1       7.399   6.303  17.051  0.00  0.00    +0.000 A 
ATOM      6  C   UNL     1       7.575   6.337  18.436  0.00  0.00    +0.000 A 
ATOM      7  C   UNL     1       6.748   5.575  19.258  0.00  0.00    +0.000 A 
ATOM      8  C   UNL     1       5.737   4.780  18.702  0.00  0.00    +0.000 A 
ATOM      9  C   UNL     1       5.569   4.760  17.309  0.00  0.00    +0.000 A 
BRANCH   4  10
ATOM     10  O   UNL     1       6.338   5.545  15.113  0.00  0.00    +0.000 OA
BRANCH  10  12
ATOM     11  C   UNL     1       6.347   3.875  13.404  0.00  0.00    +0.000 C 
ATOM     12  C   UNL     1       5.531   4.547  14.490  0.00  0.00    +0.000 C 
ENDBRANCH  10  12
ENDBRANCH   4  10
ENDBRANCH   3   8
ENDBRANCH   1   3
BRANCH   1  13
ATOM     13  C   UNL     1       3.501   1.939  19.112  0.00  0.00    +0.000 C 
BRANCH  13  14
ATOM     14  C   UNL     1       2.630   2.384  17.923  0.00  0.00    +0.000 C 
BRANCH  14  15
ATOM     15  N   UNL     1       1.425   3.098  18.356  0.00  0.00    +0.000 N 
ATOM     16  H   UNL     1       0.893   2.566  19.046  0.00  0.00    +0.000 HD
BRANCH  15  17
ATOM     17  C   UNL     1       1.667   4.406  18.832  0.00  0.00    +0.000 A 
ATOM     18  C   UNL     1       1.526   4.758  20.183  0.00  0.00    +0.000 A 
ATOM     19  C   UNL     1       1.783   6.057  20.626  0.00  0.00    +0.000 A 
ATOM     20  C   UNL     1       2.223   7.021  19.728  0.00  0.00    +0.000 A 
ATOM     21  C   UNL     1       2.431   6.677  18.395  0.00  0.00    +0.000 A 
ATOM     22  C   UNL     1       2.172   5.374  17.956  0.00  0.00    +0.000 A 
ENDBRANCH  15  17
ENDBRANCH  14  15
ENDBRANCH  13  14
ENDBRANCH   1  13
TORSDOF 8
ENDMDL
MODEL 3
REMARK VINA RESULT:      -6.5      3.121      6.039
REMARK  Name = 
REMARK  9 active torsions:
REMARK  status: ('A' for Active; 'I' for Inactive)
REMARK    1  A    between atoms: C_1  and  C_2
REMARK    2  A    between atoms: C_2  and  O_3
REMARK    3  A    between atoms: O_3  and  C_4
REMARK    4  A    between atoms: C_8  and  C_9
REMARK    5  A    between atoms: C_9  and  N_10
REMARK    6  A    between atoms: N_10  and  C_11
REMARK    7  A    between atoms: C_11  and  C_12
REMARK    8  A    between atoms: C_12  and  N_13
REMARK    9  A    between atoms: N_13  and  C_14
REMARK                            x       y       z     vdW  Elec       q    Type
REMARK                         _______ _______ _______ _____ _____    ______ ____
ROOT
ATOM      1  N   UNL     1       3.411   6.357  19.708  0.00  0.00    +0.000 NA
ATOM      2  H   UNL     1       3.972   7.031  20.229  0.00  0.00    +0.000 HD
ENDROOT
BRANCH   1   3
ATOM      3  C   UNL     1       3.572   6.617  18.279  0.00  0.00    +0.000 C 
BRANCH   3   8
ATOM      4  C   UNL     1       6.117   5.250  15.799  0.00  0.00    +0.000 A 
ATOM      5  C   UNL     1       7.016   4.614  16.657  0.00  0.00    +0.000 A 
ATOM      6  C   UNL     1       6.822   4.646  18.040  0.00  0.00    +0.000 A 
ATOM      7  C   UNL     1       5.722   5.315  18.570  0.00  0.00    +0.000 A 
ATOM      8  C   UNL     1       4.811   5.960  17.723  0.00  0.00    +0.000 A 
ATOM      9  C   UNL     1       5.021   5.925  16.337  0.00  0.00    +0.000 A 
BRANCH   4  10
ATOM     10  O   UNL     1       6.398   5.131  14.464  0.00  0.00    +0.000 OA
BRANCH  10  12
ATOM     11  C   UNL     1       6.561   3.753  12.519  0.00  0.00    +0.000 C 
ATOM     12  C   UNL     1       5.769   4.051  13.776  0.00  0.00    +0.000 C 
ENDBRANCH  10  12
ENDBRANCH   4  10
ENDBRANCH   3   8
ENDBRANCH   1   3
BRANCH   1  13
ATOM     13  C   UNL     1       2.007   6.452  20.138  0.00  0.00    +0.000 C 
BRANCH  13  14
ATOM     14  C   UNL     1       1.565   5.266  21.014  0.00  0.00    +0.000 C 
BRANCH  14  15
ATOM     15  N   UNL     1       0.979   4.180  20.223  0.00  0.00    +0.000 N 
ATOM     16  H   UNL     1       0.188   4.499  19.662  0.00  0.00    +0.000 HD
BRANCH  15  17
ATOM     17  C   UNL     1       1.906   3.493  19.407  0.00  0.00    +0.000 A 
ATOM     18  C   UNL     1       2.938   2.702  19.934  0.00  0.00    +0.000 A 
ATOM     19  C   UNL     1       3.833   2.027  19.102  0.00  0.00    +0.000 A 
ATOM     20  C   UNL     1       3.687   2.100  17.722  0.00  0.00    +0.000 A 
ATOM     21  C   UNL     1       2.631   2.828  17.179  0.00  0.00    +0.000 A 
ATOM     22  C   UNL     1       1.737   3.503  18.018  0.00  0.00    +0.000 A 
ENDBRANCH  15  17
ENDBRANCH  14  15
ENDBRANCH  13  14
ENDBRANCH   1  13
TORSDOF 8
ENDMDL
MODEL 4
REMARK VINA RESULT:      -6.4      3.120      5.674
REMARK  Name = 
REMARK  9 active torsions:
REMARK  status: ('A' for Active; 'I' for Inactive)
REMARK    1  A    between atoms: C_1  and  C_2
REMARK    2  A    between atoms: C_2  and  O_3
REMARK    3  A    between atoms: O_3  and  C_4
REMARK    4  A    between atoms: C_8  and  C_9
REMARK    5  A    between atoms: C_9  and  N_10
REMARK    6  A    between atoms: N_10  and  C_11
REMARK    7  A    between atoms: C_11  and  C_12
REMARK    8  A    between atoms: C_12  and  N_13
REMARK    9  A    between atoms: N_13  and  C_14
REMARK                            x       y       z     vdW  Elec       q    Type
REMARK                         _______ _______ _______ _____ _____    ______ ____
ROOT
ATOM      1  N   UNL     1       6.193   4.142  18.623  0.00  0.00    +0.000 NA
ATOM      2  H   UNL     1       6.690   3.256  18.535  0.00  0.00    +0.000 HD
ENDROOT
BRANCH   1   3
ATOM      3  C   UNL     1       4.871   4.001  18.015  0.00  0.00    +0.000 C 
BRANCH   3   8
ATOM      4  C   UNL     1       2.534   6.629  19.470  0.00  0.00    +0.000 A 
ATOM      5  C   UNL     1       1.918   5.907  20.494  0.00  0.00    +0.000 A 
ATOM      6  C   UNL     1       2.231   4.563  20.703  0.00  0.00    +0.000 A 
ATOM      7  C   UNL     1       3.169   3.934  19.886  0.00  0.00    +0.000 A 
ATOM      8  C   UNL     1       3.795   4.644  18.853  0.00  0.00    +0.000 A 
ATOM      9  C   UNL     1       3.466   5.993  18.651  0.00  0.00    +0.000 A 
BRANCH   4  10
ATOM     10  O   UNL     1       2.163   7.944  19.377  0.00  0.00    +0.000 OA
BRANCH  10  12
ATOM     11  C   UNL     1       1.157   9.485  17.853  0.00  0.00    +0.000 C 
ATOM     12  C   UNL     1       2.334   8.564  18.103  0.00  0.00    +0.000 C 
ENDBRANCH  10  12
ENDBRANCH   4  10
ENDBRANCH   3   8
ENDBRANCH   1   3
BRANCH   1  13
ATOM     13  C   UNL     1       6.984   5.212  17.995  0.00  0.00    +0.000 C 
BRANCH  13  14
ATOM     14  C   UNL     1       6.469   5.597  16.595  0.00  0.00    +0.000 C 
BRANCH  14  15
ATOM     15  N   UNL     1       7.512   5.490  15.572  0.00  0.00    +0.000 N 
ATOM     16  H   UNL     1       8.346   5.018  15.924  0.00  0.00    +0.000 HD
BRANCH  15  17
ATOM     17  C   UNL     1       7.083   4.884  14.370  0.00  0.00    +0.000 A 
ATOM     18  C   UNL     1       7.779   5.024  13.160  0.00  0.00    +0.000 A 
ATOM     19  C   UNL     1       7.336   4.404  11.990  0.00  0.00    +0.000 A 
ATOM     20  C   UNL     1       6.204   3.599  12.018  0.00  0.00    +0.000 A 
ATOM     21  C   UNL     1       5.535   3.394  13.222  0.00  0.00    +0.000 A 
ATOM     22  C   UNL     1       5.983   4.018  14.391  0.00  0.00    +0.000 A 
ENDBRANCH  15  17
ENDBRANCH  14  15
ENDBRANCH  13  14
ENDBRANCH   1  13
TORSDOF 8
ENDMDL
MODEL 5
REMARK VINA RESULT:      -6.3      1.338      2.356
REMARK  Name = 
REMARK  9 active torsions:
REMARK  status: ('A' for Active; 'I' for Inactive)
REMARK    1  A    between atoms: C_1  and  C_2
REMARK    2  A    between atoms: C_2  and  O_3
REMARK    3  A    between atoms: O_3  and  C_4
REMARK    4  A    between atoms: C_8  and  C_9
REMARK    5  A    between atoms: C_9  and  N_10
REMARK    6  A    between atoms: N_10  and  C_11
REMARK    7  A    between atoms: C_11  and  C_12
REMARK    8  A    between atoms: C_12  and  N_13
REMARK    9  A    between atoms: N_13  and  C_14
REMARK                            x       y       z     vdW  Elec       q    Type
REMARK                         _______ _______ _______ _____ _____    ______ ____
ROOT
ATOM      1  N   UNL     1       4.907   6.226  17.906  0.00  0.00    +0.000 NA
ATOM      2  H   UNL     1       4.990   6.736  18.786  0.00  0.00    +0.000 HD
ENDROOT
BRANCH   1   3
ATOM      3  C   UNL     1       3.506   6.232  17.490  0.00  0.00    +0.000 C 
BRANCH   3   8
ATOM      4  C   UNL     1       1.425   9.163  18.743  0.00  0.00    +0.000 A 
ATOM      5  C   UNL     1       1.212   8.795  20.072  0.00  0.00    +0.000 A 
ATOM      6  C   UNL     1       1.713   7.588  20.564  0.00  0.00    +0.000 A 
ATOM      7  C   UNL     1       2.435   6.743  19.725  0.00  0.00    +0.000 A 
ATOM      8  C   UNL     1       2.656   7.097  18.387  0.00  0.00    +0.000 A 
ATOM      9  C   UNL     1       2.142   8.309  17.904  0.00  0.00    +0.000 A 
BRANCH   4  10
ATOM     10  O   UNL     1       0.906  10.378  18.381  0.00  0.00    +0.000 OA
BRANCH  10  12
ATOM     11  C   UNL     1       0.529  12.710  18.738  0.00  0.00    +0.000 C 
ATOM     12  C   UNL     1       1.382  11.512  19.104  0.00  0.00    +0.000 C 
ENDBRANCH  10  12
ENDBRANCH   4  10
ENDBRANCH   3   8
ENDBRANCH   1   3
BRANCH   1  13
ATOM     13  C   UNL     1       5.433   4.863  18.078  0.00  0.00    +0.000 C 
BRANCH  13  14
ATOM     14  C   UNL     1       4.546   3.790  17.419  0.00  0.00    +0.000 C 
BRANCH  14  15
ATOM     15  N   UNL     1       4.301   2.651  18.307  0.00  0.00    +0.000 N 
ATOM     16  H   UNL     1       5.141   2.374  18.816  0.00  0.00    +0.000 HD
BRANCH  15  17
ATOM     17  C   UNL     1       3.229   2.841  19.209  0.00  0.00    +0.000 A 
ATOM     18  C   UNL     1       1.931   3.162  18.785  0.00  0.00    +0.000 A 
ATOM     19  C   UNL     1       0.890   3.334  19.699  0.00  0.00    +0.000 A 
ATOM     20  C   UNL     1       1.122   3.149  21.057  0.00  0.00    +0.000 A 
ATOM     21  C   UNL     1       2.388   2.767  21.493  0.00  0.00    +0.000 A 
ATOM     22  C   UNL     1       3.428   2.597  20.573  0.00  0.00    +0.000 A 
ENDBRANCH  15  17
ENDBRANCH  14  15
ENDBRANCH  13  14
ENDBRANCH   1  13
TORSDOF 8
ENDMDL
MODEL 6
REMARK VINA RESULT:      -6.2      2.762      6.634
REMARK  Name = 
REMARK  9 active torsions:
REMARK  status: ('A' for Active; 'I' for Inactive)
REMARK    1  A    between atoms: C_1  and  C_2
REMARK    2  A    between atoms: C_2  and  O_3
REMARK    3  A    between atoms: O_3  and  C_4
REMARK    4  A    between atoms: C_8  and  C_9
REMARK    5  A    between atoms: C_9  and  N_10
REMARK    6  A    between atoms: N_10  and  C_11
REMARK    7  A    between atoms: C_11  and  C_12
REMARK    8  A    between atoms: C_12  and  N_13
REMARK    9  A    between atoms: N_13  and  C_14
REMARK                            x       y       z     vdW  Elec       q    Type
REMARK                         _______ _______ _______ _____ _____    ______ ____
ROOT
ATOM      1  N   UNL     1       2.920   4.079  18.911  0.00  0.00    +0.000 NA
ATOM      2  H   UNL     1       2.612   3.422  18.195  0.00  0.00    +0.000 HD
ENDROOT
BRANCH   1   3
ATOM      3  C   UNL     1       4.304   3.771  19.268  0.00  0.00    +0.000 C 
BRANCH   3   8
ATOM      4  C   UNL     1       6.141   5.565  16.457  0.00  0.00    +0.000 A 
ATOM      5  C   UNL     1       7.177   6.181  17.161  0.00  0.00    +0.000 A 
ATOM      6  C   UNL     1       7.274   6.045  18.547  0.00  0.00    +0.000 A 
ATOM      7  C   UNL     1       6.331   5.286  19.237  0.00  0.00    +0.000 A 
ATOM      8  C   UNL     1       5.283   4.663  18.546  0.00  0.00    +0.000 A 
ATOM      9  C   UNL     1       5.195   4.813  17.154  0.00  0.00    +0.000 A 
BRANCH   4  10
ATOM     10  O   UNL     1       6.163   5.751  15.101  0.00  0.00    +0.000 OA
BRANCH  10  12
ATOM     11  C   UNL     1       6.002   3.849  13.663  0.00  0.00    +0.000 C 
ATOM     12  C   UNL     1       6.941   4.824  14.345  0.00  0.00    +0.000 C 
ENDBRANCH  10  12
ENDBRANCH   4  10
ENDBRANCH   3   8
ENDBRANCH   1   3
BRANCH   1  13
ATOM     13  C   UNL     1       2.016   4.002  20.069  0.00  0.00    +0.000 C 
BRANCH  13  14
ATOM     14  C   UNL     1       1.762   5.371  20.726  0.00  0.00    +0.000 C 
BRANCH  14  15
ATOM     15  N   UNL     1       2.729   6.383  20.290  0.00  0.00    +0.000 N 
ATOM     16  H   UNL     1       3.401   6.006  19.621  0.00  0.00    +0.000 HD
BRANCH  15  17
ATOM     17  C   UNL     1       2.141   7.561  19.776  0.00  0.00    +0.000 A 
ATOM     18  C   UNL     1       2.295   7.963  18.441  0.00  0.00    +0.000 A 
ATOM     19  C   UNL     1       1.693   9.127  17.960  0.00  0.00    +0.000 A 
ATOM     20  C   UNL     1       0.892   9.892  18.798  0.00  0.00    +0.000 A 
ATOM     21  C   UNL     1       0.674   9.476  20.110  0.00  0.00    +0.000 A 
ATOM     22  C   UNL     1       1.280   8.309  20.587  0.00  0.00    +0.000 A 
ENDBRANCH  15  17
ENDBRANCH  14  15
ENDBRANCH  13  14
ENDBRANCH   1  13
TORSDOF 8
ENDMDL
MODEL 7
REMARK VINA RESULT:      -6.2      1.490      3.536
REMARK  Name = 
REMARK  9 active torsions:
REMARK  status: ('A' for Active; 'I' for Inactive)
REMARK    1  A    between atoms: C_1  and  C_2
REMARK    2  A    between atoms: C_2  and  O_3
REMARK    3  A    between atoms: O_3  and  C_4
REMARK    4  A    between atoms: C_8  and  C_9
REMARK    5  A    between atoms: C_9  and  N_10
REMARK    6  A    between atoms: N_10  and  C_11
REMARK    7  A    between atoms: C_11  and  C_12
REMARK    8  A    between atoms: C_12  and  N_13
REMARK    9  A    between atoms: N_13  and  C_14
REMARK                            x       y       z     vdW  Elec       q    Type
REMARK                         _______ _______ _______ _____ _____    ______ ____
ROOT
ATOM      1  N   UNL     1       2.015   4.437  19.088  0.00  0.00    +0.000 NA
ATOM      2  H   UNL     1       1.800   4.829  18.171  0.00  0.00    +0.000 HD
ENDROOT
BRANCH   1   3
ATOM      3  C   UNL     1       2.749   5.434  19.865  0.00  0.00    +0.000 C 
BRANCH   3   8
ATOM      4  C   UNL     1       1.278   8.935  20.139  0.00  0.00    +0.000 A 
ATOM      5  C   UNL     1       1.424   9.393  18.829  0.00  0.00    +0.000 A 
ATOM      6  C   UNL     1       2.021   8.588  17.857  0.00  0.00    +0.000 A 
ATOM      7  C   UNL     1       2.475   7.315  18.194  0.00  0.00    +0.000 A 
ATOM      8  C   UNL     1       2.338   6.840  19.506  0.00  0.00    +0.000 A 
ATOM      9  C   UNL     1       1.741   7.662  20.473  0.00  0.00    +0.000 A 
BRANCH   4  10
ATOM     10  O   UNL     1       0.658   9.803  20.997  0.00  0.00    +0.000 OA
BRANCH  10  12
ATOM     11  C   UNL     1      -0.618  10.160  22.986  0.00  0.00    +0.000 C 
ATOM     12  C   UNL     1       0.498   9.360  22.344  0.00  0.00    +0.000 C 
ENDBRANCH  10  12
ENDBRANCH   4  10
ENDBRANCH   3   8
ENDBRANCH   1   3
BRANCH   1  13
ATOM     13  C   UNL     1       2.778   3.189  18.920  0.00  0.00    +0.000 C 
BRANCH  13  14
ATOM     14  C   UNL     1       3.314   3.001  17.489  0.00  0.00    +0.000 C 
BRANCH  14  15
ATOM     15  N   UNL     1       4.778   3.033  17.437  0.00  0.00    +0.000 N 
ATOM     16  H   UNL     1       5.148   2.438  16.694  0.00  0.00    +0.000 HD
BRANCH  15  17
ATOM     17  C   UNL     1       5.325   4.332  17.334  0.00  0.00    +0.000 A 
ATOM     18  C   UNL     1       4.967   5.225  16.314  0.00  0.00    +0.000 A 
ATOM     19  C   UNL     1       5.517   6.507  16.244  0.00  0.00    +0.000 A 
ATOM     20  C   UNL     1       6.409   6.933  17.220  0.00  0.00    +0.000 A 
ATOM     21  C   UNL     1       6.728   6.085  18.278  0.00  0.00    +0.000 A 
ATOM     22  C   UNL     1       6.175   4.801  18.342  0.00  0.00    +0.000 A 
ENDBRANCH  15  17
ENDBRANCH  14  15
ENDBRANCH  13  14
ENDBRANCH   1  13
TORSDOF 8
ENDMDL
MODEL 8
REMARK VINA RESULT:      -6.2      0.737      1.336
REMARK  Name = 
REMARK  9 active torsions:
REMARK  status: ('A' for Active; 'I' for Inactive)
REMARK    1  A    between atoms: C_1  and  C_2
REMARK    2  A    between atoms: C_2  and  O_3
REMARK    3  A    between atoms: O_3  and  C_4
REMARK    4  A    between atoms: C_8  and  C_9
REMARK    5  A    between atoms: C_9  and  N_10
REMARK    6  A    between atoms: N_10  and  C_11
REMARK    7  A    between atoms: C_11  and  C_12
REMARK    8  A    between atoms: C_12  and  N_13
REMARK    9  A    between atoms: N_13  and  C_14
REMARK                            x       y       z     vdW  Elec       q    Type
REMARK                         _______ _______ _______ _____ _____    ______ ____
ROOT
ATOM      1  N   UNL     1       4.198   6.353  17.829  0.00  0.00    +0.000 NA
ATOM      2  H   UNL     1       5.125   6.657  18.128  0.00  0.00    +0.000 HD
ENDROOT
BRANCH   1   3
ATOM      3  C   UNL     1       3.358   6.173  19.012  0.00  0.00    +0.000 C 
BRANCH   3   8
ATOM      4  C   UNL     1       0.785   8.476  20.613  0.00  0.00    +0.000 A 
ATOM      5  C   UNL     1       0.631   9.442  19.618  0.00  0.00    +0.000 A 
ATOM      6  C   UNL     1       1.374   9.373  18.439  0.00  0.00    +0.000 A 
ATOM      7  C   UNL     1       2.277   8.330  18.249  0.00  0.00    +0.000 A 
ATOM      8  C   UNL     1       2.446   7.352  19.239  0.00  0.00    +0.000 A 
ATOM      9  C   UNL     1       1.697   7.438  20.421  0.00  0.00    +0.000 A 
BRANCH   4  10
ATOM     10  O   UNL     1      -0.013   8.636  21.714  0.00  0.00    +0.000 OA
BRANCH  10  12
ATOM     11  C   UNL     1      -0.808  10.434  23.073  0.00  0.00    +0.000 C 
ATOM     12  C   UNL     1       0.402   9.618  22.663  0.00  0.00    +0.000 C 
ENDBRANCH  10  12
ENDBRANCH   4  10
ENDBRANCH   3   8
ENDBRANCH   1   3
BRANCH   1  13
ATOM     13  C   UNL     1       4.320   5.118  17.038  0.00  0.00    +0.000 C 
BRANCH  13  14
ATOM     14  C   UNL     1       4.989   3.970  17.816  0.00  0.00    +0.000 C 
BRANCH  14  15
ATOM     15  N   UNL     1       4.136   2.781  17.893  0.00  0.00    +0.000 N 
ATOM     16  H   UNL     1       4.682   1.923  17.978  0.00  0.00    +0.000 HD
BRANCH  15  17
ATOM     17  C   UNL     1       3.158   2.835  18.911  0.00  0.00    +0.000 A 
ATOM     18  C   UNL     1       1.783   2.904  18.638  0.00  0.00    +0.000 A 
ATOM     19  C   UNL     1       0.840   2.947  19.666  0.00  0.00    +0.000 A 
ATOM     20  C   UNL     1       1.254   2.883  20.991  0.00  0.00    +0.000 A 
ATOM     21  C   UNL     1       2.609   2.749  21.283  0.00  0.00    +0.000 A 
ATOM     22  C   UNL     1       3.550   2.707  20.249  0.00  0.00    +0.000 A 
ENDBRANCH  15  17
ENDBRANCH  14  15
ENDBRANCH  13  14
ENDBRANCH   1  13
TORSDOF 8
ENDMDL
MODEL 9
REMARK VINA RESULT:      -6.2      2.821      6.235
REMARK  Name = 
REMARK  9 active torsions:
REMARK  status: ('A' for Active; 'I' for Inactive)
REMARK    1  A    between atoms: C_1  and  C_2
REMARK    2  A    between atoms: C_2  and  O_3
REMARK    3  A    between atoms: O_3  and  C_4
REMARK    4  A    between atoms: C_8  and  C_9
REMARK    5  A    between atoms: C_9  and  N_10
REMARK    6  A    between atoms: N_10  and  C_11
REMARK    7  A    between atoms: C_11  and  C_12
REMARK    8  A    between atoms: C_12  and  N_13
REMARK    9  A    between atoms: N_13  and  C_14
REMARK                            x       y       z     vdW  Elec       q    Type
REMARK                         _______ _______ _______ _____ _____    ______ ____
ROOT
ATOM      1  N   UNL     1       3.147   4.060  18.780  0.00  0.00    +0.000 NA
ATOM      2  H   UNL     1       3.909   4.440  19.342  0.00  0.00    +0.000 HD
ENDROOT
BRANCH   1   3
ATOM      3  C   UNL     1       3.166   4.704  17.467  0.00  0.00    +0.000 C 
BRANCH   3   8
ATOM      4  C   UNL     1       6.690   5.861  16.615  0.00  0.00    +0.000 A 
ATOM      5  C   UNL     1       7.069   4.904  15.673  0.00  0.00    +0.000 A 
ATOM      6  C   UNL     1       6.203   3.865  15.327  0.00  0.00    +0.000 A 
ATOM      7  C   UNL     1       4.947   3.782  15.925  0.00  0.00    +0.000 A 
ATOM      8  C   UNL     1       4.552   4.734  16.874  0.00  0.00    +0.000 A 
ATOM      9  C   UNL     1       5.435   5.768  17.216  0.00  0.00    +0.000 A 
BRANCH   4  10
ATOM     10  O   UNL     1       7.614   6.843  16.855  0.00  0.00    +0.000 OA
BRANCH  10  12
ATOM     11  C   UNL     1       8.315   8.814  18.011  0.00  0.00    +0.000 C 
ATOM     12  C   UNL     1       7.130   8.031  17.482  0.00  0.00    +0.000 C 
ENDBRANCH  10  12
ENDBRANCH   4  10
ENDBRANCH   3   8
ENDBRANCH   1   3
BRANCH   1  13
ATOM     13  C   UNL     1       1.871   4.262  19.482  0.00  0.00    +0.000 C 
BRANCH  13  14
ATOM     14  C   UNL     1       1.970   5.292  20.623  0.00  0.00    +0.000 C 
BRANCH  14  15
ATOM     15  N   UNL     1       2.839   6.420  20.278  0.00  0.00    +0.000 N 
ATOM     16  H   UNL     1       3.585   6.147  19.638  0.00  0.00    +0.000 HD
BRANCH  15  17
ATOM     17  C   UNL     1       2.151   7.545  19.768  0.00  0.00    +0.000 A 
ATOM     18  C   UNL     1       1.375   8.388  20.576  0.00  0.00    +0.000 A 
ATOM     19  C   UNL     1       0.715   9.498  20.045  0.00  0.00    +0.000 A 
ATOM     20  C   UNL     1       0.851   9.807  18.697  0.00  0.00    +0.000 A 
ATOM     21  C   UNL     1       1.669   9.019  17.890  0.00  0.00    +0.000 A 
ATOM     22  C   UNL     1       2.327   7.908  18.427  0.00  0.00    +0.000 A 
ENDBRANCH  15  17
ENDBRANCH  14  15
ENDBRANCH  13  14
ENDBRANCH   1  13
TORSDOF 8
ENDMDL
