MODEL 1
REMARK VINA RESULT:      -8.8      0.000      0.000
REMARK  Name = 
REMARK  8 active torsions:
REMARK  status: ('A' for Active; 'I' for Inactive)
REMARK    1  A    between atoms: C_2  and  C_3
REMARK    2  A    between atoms: C_7  and  C_8
REMARK    3  A    between atoms: C_11  and  N_12
REMARK    4  A    between atoms: N_12  and  C_13
REMARK    5  A    between atoms: C_13  and  C_14
REMARK    6  A    between atoms: C_14  and  N_15
REMARK    7  A    between atoms: C_18  and  O_19
REMARK    8  A    between atoms: N_23  and  C_24
REMARK                            x       y       z     vdW  Elec       q    Type
REMARK                         _______ _______ _______ _____ _____    ______ ____
ROOT
ATOM      1  N   UNL     1       2.947   6.488  18.807  0.00  0.00    +0.000 N 
ATOM      2  C   UNL     1       3.983   6.475  17.854  0.00  0.00    +0.000 C 
ATOM      3  O   UNL     1       4.419   7.524  17.388  0.00  0.00    +0.000 OA
ATOM      4  N   UNL     1       4.431   5.229  17.459  0.00  0.00    +0.000 N 
ATOM      5  H   UNL     1       3.962   4.419  17.829  0.00  0.00    +0.000 HD
ENDROOT
BRANCH   1   9
ATOM      6  C   UNL     1       0.462  10.092  19.634  0.00  0.00    +0.000 C 
ATOM      7  C   UNL     1       1.253   9.950  18.345  0.00  0.00    +0.000 C 
ATOM      8  C   UNL     1       1.578   8.486  18.022  0.00  0.00    +0.000 C 
ATOM      9  C   UNL     1       2.382   7.832  19.165  0.00  0.00    +0.000 C 
ATOM     10  C   UNL     1       1.563   7.806  20.479  0.00  0.00    +0.000 C 
ATOM     11  C   UNL     1       0.616   8.966  20.655  0.00  0.00    +0.000 C 
ATOM     12  C   UNL     1       1.212  10.301  20.954  0.00  0.00    +0.000 C 
BRANCH   6  17
ATOM     13  C   UNL     1      -2.939  11.525  18.469  0.00  0.00    +0.000 A 
ATOM     14  C   UNL     1      -3.313  12.280  19.581  0.00  0.00    +0.000 A 
ATOM     15  C   UNL     1      -2.440  12.408  20.658  0.00  0.00    +0.000 A 
ATOM     16  C   UNL     1      -1.209  11.745  20.633  0.00  0.00    +0.000 A 
ATOM     17  C   UNL     1      -0.823  10.928  19.551  0.00  0.00    +0.000 A 
ATOM     18  C   UNL     1      -1.696  10.865  18.452  0.00  0.00    +0.000 A 
BRANCH  13  20
ATOM     19  N   UNL     1      -4.565  11.281  16.459  0.00  0.00    +0.000 NA
ATOM     20  C   UNL     1      -3.841  11.395  17.355  0.00  0.00    +0.000 C 
ENDBRANCH  13  20
ENDBRANCH   6  17
ENDBRANCH   1   9
BRANCH   4  21
ATOM     21  C   UNL     1       5.362   4.966  16.420  0.00  0.00    +0.000 A 
ATOM     22  C   UNL     1       6.727   5.263  16.504  0.00  0.00    +0.000 A 
ATOM     23  C   UNL     1       7.581   5.055  15.416  0.00  0.00    +0.000 A 
ATOM     24  C   UNL     1       7.082   4.533  14.229  0.00  0.00    +0.000 A 
ATOM     25  C   UNL     1       5.733   4.203  14.146  0.00  0.00    +0.000 A 
ATOM     26 CL   UNL     1       5.110   3.558  12.675  0.00  0.00    +0.000 Cl
ATOM     27  C   UNL     1       4.875   4.405  15.232  0.00  0.00    +0.000 A 
ENDBRANCH   4  21
BRANCH   1  28
ATOM     28  C   UNL     1       2.469   5.248  19.482  0.00  0.00    +0.000 C 
BRANCH  28  29
ATOM     29  C   UNL     1       1.638   4.237  18.662  0.00  0.00    +0.000 C 
BRANCH  29  30
ATOM     30  N   UNL     1       1.823   2.809  19.001  0.00  0.00    +0.000 NA
ATOM     31  C   UNL     1       2.533   2.020  17.976  0.00  0.00    +0.000 C 
ATOM     32  C   UNL     1       3.726   1.346  18.654  0.00  0.00    +0.000 C 
ATOM     33  C   UNL     1       4.003   2.229  19.851  0.00  0.00    +0.000 C 
ATOM     34  C   UNL     1       2.602   2.672  20.259  0.00  0.00    +0.000 C 
BRANCH  33  35
ATOM     35  O   UNL     1       4.822   3.338  19.484  0.00  0.00    +0.000 OA
ATOM     36  H   UNL     1       4.939   3.323  18.520  0.00  0.00    +0.000 HD
ENDBRANCH  33  35
ENDBRANCH  29  30
ENDBRANCH  28  29
ENDBRANCH   1  28
TORSDOF 8
ENDMDL
MODEL 2
REMARK VINA RESULT:      -8.8      0.829      1.115
REMARK  Name = 
REMARK  8 active torsions:
REMARK  status: ('A' for Active; 'I' for Inactive)
REMARK    1  A    between atoms: C_2  and  C_3
REMARK    2  A    between atoms: C_7  and  C_8
REMARK    3  A    between atoms: C_11  and  N_12
REMARK    4  A    between atoms: N_12  and  C_13
REMARK    5  A    between atoms: C_13  and  C_14
REMARK    6  A    between atoms: C_14  and  N_15
REMARK    7  A    between atoms: C_18  and  O_19
REMARK    8  A    between atoms: N_23  and  C_24
REMARK                            x       y       z     vdW  Elec       q    Type
REMARK                         _______ _______ _______ _____ _____    ______ ____
ROOT
ATOM      1  N   UNL     1       2.735   6.634  18.765  0.00  0.00    +0.000 N 
ATOM      2  C   UNL     1       3.832   6.598  17.885  0.00  0.00    +0.000 C 
ATOM      3  O   UNL     1       4.337   7.638  17.471  0.00  0.00    +0.000 OA
ATOM      4  N   UNL     1       4.261   5.343  17.496  0.00  0.00    +0.000 N 
ATOM      5  H   UNL     1       3.738   4.546  17.817  0.00  0.00    +0.000 HD
ENDROOT
BRANCH   1   9
ATOM      6  C   UNL     1       0.314  10.273  19.630  0.00  0.00    +0.000 C 
ATOM      7  C   UNL     1       1.013  10.081  18.295  0.00  0.00    +0.000 C 
ATOM      8  C   UNL     1       1.315   8.605  18.004  0.00  0.00    +0.000 C 
ATOM      9  C   UNL     1       2.197   7.992  19.112  0.00  0.00    +0.000 C 
ATOM     10  C   UNL     1       1.471   8.017  20.480  0.00  0.00    +0.000 C 
ATOM     11  C   UNL     1       0.539   9.185  20.678  0.00  0.00    +0.000 C 
ATOM     12  C   UNL     1       1.154  10.528  20.885  0.00  0.00    +0.000 C 
BRANCH   6  17
ATOM     13  C   UNL     1      -3.151  11.683  18.640  0.00  0.00    +0.000 A 
ATOM     14  C   UNL     1      -3.456  12.465  19.755  0.00  0.00    +0.000 A 
ATOM     15  C   UNL     1      -2.519  12.618  20.773  0.00  0.00    +0.000 A 
ATOM     16  C   UNL     1      -1.292  11.952  20.689  0.00  0.00    +0.000 A 
ATOM     17  C   UNL     1      -0.973  11.109  19.605  0.00  0.00    +0.000 A 
ATOM     18  C   UNL     1      -1.912  11.021  18.563  0.00  0.00    +0.000 A 
BRANCH  13  20
ATOM     19  N   UNL     1      -4.894  11.395  16.737  0.00  0.00    +0.000 NA
ATOM     20  C   UNL     1      -4.120  11.528  17.588  0.00  0.00    +0.000 C 
ENDBRANCH  13  20
ENDBRANCH   6  17
ENDBRANCH   1   9
BRANCH   4  21
ATOM     21  C   UNL     1       5.250   5.063  16.517  0.00  0.00    +0.000 A 
ATOM     22  C   UNL     1       6.610   5.355  16.679  0.00  0.00    +0.000 A 
ATOM     23  C   UNL     1       7.526   5.130  15.647  0.00  0.00    +0.000 A 
ATOM     24  C   UNL     1       7.095   4.597  14.437  0.00  0.00    +0.000 A 
ATOM     25  C   UNL     1       5.751   4.272  14.278  0.00  0.00    +0.000 A 
ATOM     26 CL   UNL     1       5.213   3.613  12.780  0.00  0.00    +0.000 Cl
ATOM     27  C   UNL     1       4.831   4.491  15.309  0.00  0.00    +0.000 A 
ENDBRANCH   4  21
BRANCH   1  28
ATOM     28  C   UNL     1       2.167   5.401  19.381  0.00  0.00    +0.000 C 
BRANCH  28  29
ATOM     29  C   UNL     1       3.120   4.450  20.137  0.00  0.00    +0.000 C 
BRANCH  29  30
ATOM     30  N   UNL     1       2.727   3.025  20.179  0.00  0.00    +0.000 NA
ATOM     31  C   UNL     1       1.282   2.780  20.008  0.00  0.00    +0.000 C 
ATOM     32  C   UNL     1       1.112   1.801  18.845  0.00  0.00    +0.000 C 
ATOM     33  C   UNL     1       2.372   1.994  18.030  0.00  0.00    +0.000 C 
ATOM     34  C   UNL     1       3.418   2.265  19.106  0.00  0.00    +0.000 C 
BRANCH  33  35
ATOM     35  O   UNL     1       2.234   3.097  17.136  0.00  0.00    +0.000 OA
ATOM     36  H   UNL     1       2.662   2.862  16.296  0.00  0.00    +0.000 HD
ENDBRANCH  33  35
ENDBRANCH  29  30
ENDBRANCH  28  29
ENDBRANCH   1  28
TORSDOF 8
ENDMDL
MODEL 3
REMARK VINA RESULT:      -8.7      1.545      2.000
REMARK  Name = 
REMARK  8 active torsions:
REMARK  status: ('A' for Active; 'I' for Inactive)
REMARK    1  A    between atoms: C_2  and  C_3
REMARK    2  A    between atoms: C_7  and  C_8
REMARK    3  A    between atoms: C_11  and  N_12
REMARK    4  A    between atoms: N_12  and  C_13
REMARK    5  A    between atoms: C_13  and  C_14
REMARK    6  A    between atoms: C_14  and  N_15
REMARK    7  A    between atoms: C_18  and  O_19
REMARK    8  A    between atoms: N_23  and  C_24
REMARK                            x       y       z     vdW  Elec       q    Type
REMARK                         _______ _______ _______ _____ _____    ______ ____
ROOT
ATOM      1  N   UNL     1       2.627   6.336  18.657  0.00  0.00    +0.000 N 
ATOM      2  C   UNL     1       3.806   6.332  17.889  0.00  0.00    +0.000 C 
ATOM      3  O   UNL     1       4.464   7.359  17.747  0.00  0.00    +0.000 OA
ATOM      4  N   UNL     1       4.137   5.133  17.287  0.00  0.00    +0.000 N 
ATOM      5  H   UNL     1       3.498   4.362  17.388  0.00  0.00    +0.000 HD
ENDROOT
BRANCH   1   9
ATOM      6  C   UNL     1       0.517   9.968  20.145  0.00  0.00    +0.000 C 
ATOM      7  C   UNL     1       1.193   9.941  18.785  0.00  0.00    +0.000 C 
ATOM      8  C   UNL     1       1.372   8.513  18.252  0.00  0.00    +0.000 C 
ATOM      9  C   UNL     1       2.204   7.658  19.230  0.00  0.00    +0.000 C 
ATOM     10  C   UNL     1       1.487   7.517  20.596  0.00  0.00    +0.000 C 
ATOM     11  C   UNL     1       0.656   8.708  20.998  0.00  0.00    +0.000 C 
ATOM     12  C   UNL     1       1.380   9.945  21.410  0.00  0.00    +0.000 C 
BRANCH   6  17
ATOM     13  C   UNL     1      -2.039  12.522  21.528  0.00  0.00    +0.000 A 
ATOM     14  C   UNL     1      -2.782  12.813  20.383  0.00  0.00    +0.000 A 
ATOM     15  C   UNL     1      -2.529  12.126  19.199  0.00  0.00    +0.000 A 
ATOM     16  C   UNL     1      -1.504  11.175  19.157  0.00  0.00    +0.000 A 
ATOM     17  C   UNL     1      -0.697  10.897  20.279  0.00  0.00    +0.000 A 
ATOM     18  C   UNL     1      -1.013  11.562  21.476  0.00  0.00    +0.000 A 
BRANCH  13  20
ATOM     19  N   UNL     1      -2.508  13.797  23.742  0.00  0.00    +0.000 NA
ATOM     20  C   UNL     1      -2.303  13.232  22.752  0.00  0.00    +0.000 C 
ENDBRANCH  13  20
ENDBRANCH   6  17
ENDBRANCH   1   9
BRANCH   4  21
ATOM     21  C   UNL     1       5.194   4.925  16.362  0.00  0.00    +0.000 A 
ATOM     22  C   UNL     1       6.525   5.282  16.608  0.00  0.00    +0.000 A 
ATOM     23  C   UNL     1       7.509   5.127  15.627  0.00  0.00    +0.000 A 
ATOM     24  C   UNL     1       7.177   4.598  14.386  0.00  0.00    +0.000 A 
ATOM     25  C   UNL     1       5.863   4.207  14.143  0.00  0.00    +0.000 A 
ATOM     26 CL   UNL     1       5.447   3.553  12.605  0.00  0.00    +0.000 Cl
ATOM     27  C   UNL     1       4.876   4.357  15.122  0.00  0.00    +0.000 A 
ENDBRANCH   4  21
BRANCH   1  28
ATOM     28  C   UNL     1       1.863   5.091  18.952  0.00  0.00    +0.000 C 
BRANCH  28  29
ATOM     29  C   UNL     1       2.182   4.322  20.253  0.00  0.00    +0.000 C 
BRANCH  29  30
ATOM     30  N   UNL     1       2.278   2.851  20.138  0.00  0.00    +0.000 NA
ATOM     31  C   UNL     1       2.335   2.343  18.754  0.00  0.00    +0.000 C 
ATOM     32  C   UNL     1       3.587   1.476  18.628  0.00  0.00    +0.000 C 
ATOM     33  C   UNL     1       4.494   1.996  19.721  0.00  0.00    +0.000 C 
ATOM     34  C   UNL     1       3.501   2.357  20.822  0.00  0.00    +0.000 C 
BRANCH  33  35
ATOM     35  O   UNL     1       5.225   3.137  19.274  0.00  0.00    +0.000 OA
ATOM     36  H   UNL     1       6.172   2.925  19.317  0.00  0.00    +0.000 HD
ENDBRANCH  33  35
ENDBRANCH  29  30
ENDBRANCH  28  29
ENDBRANCH   1  28
TORSDOF 8
ENDMDL
MODEL 4
REMARK VINA RESULT:      -8.5      4.433      9.823
REMARK  Name = 
REMARK  8 active torsions:
REMARK  status: ('A' for Active; 'I' for Inactive)
REMARK    1  A    between atoms: C_2  and  C_3
REMARK    2  A    between atoms: C_7  and  C_8
REMARK    3  A    between atoms: C_11  and  N_12
REMARK    4  A    between atoms: N_12  and  C_13
REMARK    5  A    between atoms: C_13  and  C_14
REMARK    6  A    between atoms: C_14  and  N_15
REMARK    7  A    between atoms: C_18  and  O_19
REMARK    8  A    between atoms: N_23  and  C_24
REMARK                            x       y       z     vdW  Elec       q    Type
REMARK                         _______ _______ _______ _____ _____    ______ ____
ROOT
ATOM      1  N   UNL     1       0.276  11.352  19.190  0.00  0.00    +0.000 N 
ATOM      2  C   UNL     1       0.895  12.615  19.259  0.00  0.00    +0.000 C 
ATOM      3  O   UNL     1       2.119  12.712  19.274  0.00  0.00    +0.000 OA
ATOM      4  N   UNL     1       0.048  13.703  19.349  0.00  0.00    +0.000 N 
ATOM      5  H   UNL     1      -0.940  13.528  19.414  0.00  0.00    +0.000 HD
ENDROOT
BRANCH   1   9
ATOM      6  C   UNL     1       2.199   7.335  19.041  0.00  0.00    +0.000 C 
ATOM      7  C   UNL     1       1.869   8.011  20.361  0.00  0.00    +0.000 C 
ATOM      8  C   UNL     1       0.772   9.073  20.211  0.00  0.00    +0.000 C 
ATOM      9  C   UNL     1       1.187  10.158  19.196  0.00  0.00    +0.000 C 
ATOM     10  C   UNL     1       1.389   9.553  17.785  0.00  0.00    +0.000 C 
ATOM     11  C   UNL     1       1.897   8.134  17.774  0.00  0.00    +0.000 C 
ATOM     12  C   UNL     1       3.318   7.909  18.166  0.00  0.00    +0.000 C 
BRANCH   6  17
ATOM     13  C   UNL     1       1.856   3.651  20.174  0.00  0.00    +0.000 A 
ATOM     14  C   UNL     1       1.886   2.985  18.948  0.00  0.00    +0.000 A 
ATOM     15  C   UNL     1       2.110   3.699  17.775  0.00  0.00    +0.000 A 
ATOM     16  C   UNL     1       2.265   5.088  17.830  0.00  0.00    +0.000 A 
ATOM     17  C   UNL     1       2.185   5.801  19.044  0.00  0.00    +0.000 A 
ATOM     18  C   UNL     1       2.018   5.048  20.219  0.00  0.00    +0.000 A 
BRANCH  13  20
ATOM     19  N   UNL     1       1.446   2.307  22.358  0.00  0.00    +0.000 NA
ATOM     20  C   UNL     1       1.627   2.911  21.387  0.00  0.00    +0.000 C 
ENDBRANCH  13  20
ENDBRANCH   6  17
ENDBRANCH   1   9
BRANCH   4  21
ATOM     21  C   UNL     1       0.440  15.051  19.566  0.00  0.00    +0.000 A 
ATOM     22  C   UNL     1       0.910  15.537  20.791  0.00  0.00    +0.000 A 
ATOM     23  C   UNL     1       1.204  16.892  20.967  0.00  0.00    +0.000 A 
ATOM     24  C   UNL     1       1.043  17.782  19.912  0.00  0.00    +0.000 A 
ATOM     25  C   UNL     1       0.608  17.303  18.679  0.00  0.00    +0.000 A 
ATOM     26 CL   UNL     1       0.405  18.404  17.370  0.00  0.00    +0.000 Cl
ATOM     27  C   UNL     1       0.317  15.947  18.497  0.00  0.00    +0.000 A 
ENDBRANCH   4  21
BRANCH   1  28
ATOM     28  C   UNL     1      -1.199  11.193  19.053  0.00  0.00    +0.000 C 
BRANCH  28  29
ATOM     29  C   UNL     1      -1.737  10.030  18.190  0.00  0.00    +0.000 C 
BRANCH  29  30
ATOM     30  N   UNL     1      -3.186  10.048  17.895  0.00  0.00    +0.000 NA
ATOM     31  C   UNL     1      -3.840  11.355  18.102  0.00  0.00    +0.000 C 
ATOM     32  C   UNL     1      -4.544  11.733  16.799  0.00  0.00    +0.000 C 
ATOM     33  C   UNL     1      -3.784  10.958  15.745  0.00  0.00    +0.000 C 
ATOM     34  C   UNL     1      -3.431   9.669  16.480  0.00  0.00    +0.000 C 
BRANCH  33  35
ATOM     35  O   UNL     1      -2.618  11.670  15.334  0.00  0.00    +0.000 OA
ATOM     36  H   UNL     1      -2.228  11.202  14.578  0.00  0.00    +0.000 HD
ENDBRANCH  33  35
ENDBRANCH  29  30
ENDBRANCH  28  29
ENDBRANCH   1  28
TORSDOF 8
ENDMDL
MODEL 5
REMARK VINA RESULT:      -8.5      4.243      9.573
REMARK  Name = 
REMARK  8 active torsions:
REMARK  status: ('A' for Active; 'I' for Inactive)
REMARK    1  A    between atoms: C_2  and  C_3
REMARK    2  A    between atoms: C_7  and  C_8
REMARK    3  A    between atoms: C_11  and  N_12
REMARK    4  A    between atoms: N_12  and  C_13
REMARK    5  A    between atoms: C_13  and  C_14
REMARK    6  A    between atoms: C_14  and  N_15
REMARK    7  A    between atoms: C_18  and  O_19
REMARK    8  A    between atoms: N_23  and  C_24
REMARK                            x       y       z     vdW  Elec       q    Type
REMARK                         _______ _______ _______ _____ _____    ______ ____
ROOT
ATOM      1  N   UNL     1       0.425  11.326  19.357  0.00  0.00    +0.000 N 
ATOM      2  C   UNL     1       1.013  12.524  18.909  0.00  0.00    +0.000 C 
ATOM      3  O   UNL     1       2.147  12.526  18.435  0.00  0.00    +0.000 OA
ATOM      4  N   UNL     1       0.261  13.671  19.075  0.00  0.00    +0.000 N 
ATOM      5  H   UNL     1      -0.623  13.591  19.547  0.00  0.00    +0.000 HD
ENDROOT
BRANCH   1   9
ATOM      6  C   UNL     1       2.133   7.225  19.020  0.00  0.00    +0.000 C 
ATOM      7  C   UNL     1       1.958   7.905  20.366  0.00  0.00    +0.000 C 
ATOM      8  C   UNL     1       0.903   9.020  20.321  0.00  0.00    +0.000 C 
ATOM      9  C   UNL     1       1.275  10.091  19.276  0.00  0.00    +0.000 C 
ATOM     10  C   UNL     1       1.317   9.487  17.849  0.00  0.00    +0.000 C 
ATOM     11  C   UNL     1       1.753   8.046  17.788  0.00  0.00    +0.000 C 
ATOM     12  C   UNL     1       3.193   7.751  18.047  0.00  0.00    +0.000 C 
BRANCH   6  17
ATOM     13  C   UNL     1       1.708   3.554  20.167  0.00  0.00    +0.000 A 
ATOM     14  C   UNL     1       1.606   2.894  18.941  0.00  0.00    +0.000 A 
ATOM     15  C   UNL     1       1.768   3.605  17.756  0.00  0.00    +0.000 A 
ATOM     16  C   UNL     1       1.993   4.985  17.802  0.00  0.00    +0.000 A 
ATOM     17  C   UNL     1       2.046   5.692  19.020  0.00  0.00    +0.000 A 
ATOM     18  C   UNL     1       1.939   4.941  20.203  0.00  0.00    +0.000 A 
BRANCH  13  20
ATOM     19  N   UNL     1       1.415   2.216  22.374  0.00  0.00    +0.000 NA
ATOM     20  C   UNL     1       1.543   2.817  21.392  0.00  0.00    +0.000 C 
ENDBRANCH  13  20
ENDBRANCH   6  17
ENDBRANCH   1   9
BRANCH   4  21
ATOM     21  C   UNL     1       0.697  15.000  18.828  0.00  0.00    +0.000 A 
ATOM     22  C   UNL     1      -0.169  16.063  18.546  0.00  0.00    +0.000 A 
ATOM     23  C   UNL     1       0.324  17.333  18.232  0.00  0.00    +0.000 A 
ATOM     24  C   UNL     1       1.695  17.562  18.207  0.00  0.00    +0.000 A 
ATOM     25  C   UNL     1       2.563  16.520  18.520  0.00  0.00    +0.000 A 
ATOM     26 CL   UNL     1       4.263  16.798  18.488  0.00  0.00    +0.000 Cl
ATOM     27  C   UNL     1       2.075  15.248  18.839  0.00  0.00    +0.000 A 
ENDBRANCH   4  21
BRANCH   1  28
ATOM     28  C   UNL     1      -0.987  11.259  19.828  0.00  0.00    +0.000 C 
BRANCH  28  29
ATOM     29  C   UNL     1      -2.091  11.870  18.936  0.00  0.00    +0.000 C 
BRANCH  29  30
ATOM     30  N   UNL     1      -3.146  10.944  18.473  0.00  0.00    +0.000 NA
ATOM     31  C   UNL     1      -4.299  11.599  17.825  0.00  0.00    +0.000 C 
ATOM     32  C   UNL     1      -4.476  10.967  16.445  0.00  0.00    +0.000 C 
ATOM     33  C   UNL     1      -3.100  10.430  16.118  0.00  0.00    +0.000 C 
ATOM     34  C   UNL     1      -2.594   9.982  17.485  0.00  0.00    +0.000 C 
BRANCH  33  35
ATOM     35  O   UNL     1      -2.276  11.452  15.558  0.00  0.00    +0.000 OA
ATOM     36  H   UNL     1      -2.340  12.237  16.126  0.00  0.00    +0.000 HD
ENDBRANCH  33  35
ENDBRANCH  29  30
ENDBRANCH  28  29
ENDBRANCH   1  28
TORSDOF 8
ENDMDL
MODEL 6
REMARK VINA RESULT:      -8.5      4.320      9.990
REMARK  Name = 
REMARK  8 active torsions:
REMARK  status: ('A' for Active; 'I' for Inactive)
REMARK    1  A    between atoms: C_2  and  C_3
REMARK    2  A    between atoms: C_7  and  C_8
REMARK    3  A    between atoms: C_11  and  N_12
REMARK    4  A    between atoms: N_12  and  C_13
REMARK    5  A    between atoms: C_13  and  C_14
REMARK    6  A    between atoms: C_14  and  N_15
REMARK    7  A    between atoms: C_18  and  O_19
REMARK    8  A    between atoms: N_23  and  C_24
REMARK                            x       y       z     vdW  Elec       q    Type
REMARK                         _______ _______ _______ _____ _____    ______ ____
ROOT
ATOM      1  N   UNL     1       0.423  10.805  19.530  0.00  0.00    +0.000 N 
ATOM      2  C   UNL     1       0.934  12.110  19.391  0.00  0.00    +0.000 C 
ATOM      3  O   UNL     1       2.106  12.292  19.071  0.00  0.00    +0.000 OA
ATOM      4  N   UNL     1       0.059  13.140  19.676  0.00  0.00    +0.000 N 
ATOM      5  H   UNL     1      -0.859  12.901  20.011  0.00  0.00    +0.000 HD
ENDROOT
BRANCH   1   9
ATOM      6  C   UNL     1       2.541   6.961  18.766  0.00  0.00    +0.000 C 
ATOM      7  C   UNL     1       2.298   7.468  20.177  0.00  0.00    +0.000 C 
ATOM      8  C   UNL     1       1.135   8.468  20.242  0.00  0.00    +0.000 C 
ATOM      9  C   UNL     1       1.394   9.679  19.323  0.00  0.00    +0.000 C 
ATOM     10  C   UNL     1       1.497   9.242  17.840  0.00  0.00    +0.000 C 
ATOM     11  C   UNL     1       2.079   7.868  17.627  0.00  0.00    +0.000 C 
ATOM     12  C   UNL     1       3.541   7.695  17.867  0.00  0.00    +0.000 C 
BRANCH   6  17
ATOM     13  C   UNL     1       3.470   3.235  19.245  0.00  0.00    +0.000 A 
ATOM     14  C   UNL     1       2.503   2.609  18.458  0.00  0.00    +0.000 A 
ATOM     15  C   UNL     1       1.620   3.375  17.703  0.00  0.00    +0.000 A 
ATOM     16  C   UNL     1       1.684   4.771  17.770  0.00  0.00    +0.000 A 
ATOM     17  C   UNL     1       2.611   5.436  18.598  0.00  0.00    +0.000 A 
ATOM     18  C   UNL     1       3.529   4.639  19.303  0.00  0.00    +0.000 A 
BRANCH  13  20
ATOM     19  N   UNL     1       5.127   1.806  20.644  0.00  0.00    +0.000 NA
ATOM     20  C   UNL     1       4.384   2.441  20.023  0.00  0.00    +0.000 C 
ENDBRANCH  13  20
ENDBRANCH   6  17
ENDBRANCH   1   9
BRANCH   4  21
ATOM     21  C   UNL     1       0.385  14.521  19.739  0.00  0.00    +0.000 A 
ATOM     22  C   UNL     1       1.081  15.107  20.802  0.00  0.00    +0.000 A 
ATOM     23  C   UNL     1       1.303  16.487  20.848  0.00  0.00    +0.000 A 
ATOM     24  C   UNL     1       0.841  17.301  19.821  0.00  0.00    +0.000 A 
ATOM     25  C   UNL     1       0.177  16.723  18.742  0.00  0.00    +0.000 A 
ATOM     26 CL   UNL     1      -0.399  17.729  17.468  0.00  0.00    +0.000 Cl
ATOM     27  C   UNL     1      -0.043  15.343  18.690  0.00  0.00    +0.000 A 
ENDBRANCH   4  21
BRANCH   1  28
ATOM     28  C   UNL     1      -1.018  10.539  19.801  0.00  0.00    +0.000 C 
BRANCH  28  29
ATOM     29  C   UNL     1      -1.941  10.199  18.610  0.00  0.00    +0.000 C 
BRANCH  29  30
ATOM     30  N   UNL     1      -2.490  11.348  17.858  0.00  0.00    +0.000 NA
ATOM     31  C   UNL     1      -3.109  10.999  16.565  0.00  0.00    +0.000 C 
ATOM     32  C   UNL     1      -4.535  11.549  16.570  0.00  0.00    +0.000 C 
ATOM     33  C   UNL     1      -4.874  11.651  18.040  0.00  0.00    +0.000 C 
ATOM     34  C   UNL     1      -3.534  12.039  18.657  0.00  0.00    +0.000 C 
BRANCH  33  35
ATOM     35  O   UNL     1      -5.343  10.399  18.540  0.00  0.00    +0.000 OA
ATOM     36  H   UNL     1      -4.574   9.881  18.829  0.00  0.00    +0.000 HD
ENDBRANCH  33  35
ENDBRANCH  29  30
ENDBRANCH  28  29
ENDBRANCH   1  28
TORSDOF 8
ENDMDL
MODEL 7
REMARK VINA RESULT:      -8.5      4.666     10.162
REMARK  Name = 
REMARK  8 active torsions:
REMARK  status: ('A' for Active; 'I' for Inactive)
REMARK    1  A    between atoms: C_2  and  C_3
REMARK    2  A    between atoms: C_7  and  C_8
REMARK    3  A    between atoms: C_11  and  N_12
REMARK    4  A    between atoms: N_12  and  C_13
REMARK    5  A    between atoms: C_13  and  C_14
REMARK    6  A    between atoms: C_14  and  N_15
REMARK    7  A    between atoms: C_18  and  O_19
REMARK    8  A    between atoms: N_23  and  C_24
REMARK                            x       y       z     vdW  Elec       q    Type
REMARK                         _______ _______ _______ _____ _____    ______ ____
ROOT
ATOM      1  N   UNL     1       0.265  11.385  19.552  0.00  0.00    +0.000 N 
ATOM      2  C   UNL     1       0.470  12.199  20.682  0.00  0.00    +0.000 C 
ATOM      3  O   UNL     1       1.361  11.941  21.487  0.00  0.00    +0.000 OA
ATOM      4  N   UNL     1      -0.407  13.256  20.838  0.00  0.00    +0.000 N 
ATOM      5  H   UNL     1      -1.159  13.347  20.177  0.00  0.00    +0.000 HD
ENDROOT
BRANCH   1   9
ATOM      6  C   UNL     1       2.077   7.342  19.081  0.00  0.00    +0.000 C 
ATOM      7  C   UNL     1       1.892   7.977  20.449  0.00  0.00    +0.000 C 
ATOM      8  C   UNL     1       0.809   9.064  20.443  0.00  0.00    +0.000 C 
ATOM      9  C   UNL     1       1.146  10.175  19.429  0.00  0.00    +0.000 C 
ATOM     10  C   UNL     1       1.195   9.617  17.985  0.00  0.00    +0.000 C 
ATOM     11  C   UNL     1       1.669   8.190  17.877  0.00  0.00    +0.000 C 
ATOM     12  C   UNL     1       3.117   7.925  18.119  0.00  0.00    +0.000 C 
BRANCH   6  17
ATOM     13  C   UNL     1       1.719   3.629  20.111  0.00  0.00    +0.000 A 
ATOM     14  C   UNL     1       1.666   3.004  18.864  0.00  0.00    +0.000 A 
ATOM     15  C   UNL     1       1.840   3.753  17.704  0.00  0.00    +0.000 A 
ATOM     16  C   UNL     1       2.028   5.136  17.796  0.00  0.00    +0.000 A 
ATOM     17  C   UNL     1       2.030   5.809  19.035  0.00  0.00    +0.000 A 
ATOM     18  C   UNL     1       1.912   5.020  20.192  0.00  0.00    +0.000 A 
BRANCH  13  20
ATOM     19  N   UNL     1       1.408   2.227  22.274  0.00  0.00    +0.000 NA
ATOM     20  C   UNL     1       1.541   2.853  21.309  0.00  0.00    +0.000 C 
ENDBRANCH  13  20
ENDBRANCH   6  17
ENDBRANCH   1   9
BRANCH   4  21
ATOM     21  C   UNL     1      -0.481  14.121  21.961  0.00  0.00    +0.000 A 
ATOM     22  C   UNL     1      -1.245  13.851  23.103  0.00  0.00    +0.000 A 
ATOM     23  C   UNL     1      -1.343  14.778  24.144  0.00  0.00    +0.000 A 
ATOM     24  C   UNL     1      -0.667  15.990  24.064  0.00  0.00    +0.000 A 
ATOM     25  C   UNL     1       0.122  16.255  22.948  0.00  0.00    +0.000 A 
ATOM     26 CL   UNL     1       0.960  17.756  22.843  0.00  0.00    +0.000 Cl
ATOM     27  C   UNL     1       0.228  15.328  21.905  0.00  0.00    +0.000 A 
ENDBRANCH   4  21
BRANCH   1  28
ATOM     28  C   UNL     1      -0.725  11.727  18.492  0.00  0.00    +0.000 C 
BRANCH  28  29
ATOM     29  C   UNL     1      -2.218  11.814  18.879  0.00  0.00    +0.000 C 
BRANCH  29  30
ATOM     30  N   UNL     1      -3.104  10.777  18.310  0.00  0.00    +0.000 NA
ATOM     31  C   UNL     1      -4.349  11.292  17.708  0.00  0.00    +0.000 C 
ATOM     32  C   UNL     1      -4.416  10.778  16.270  0.00  0.00    +0.000 C 
ATOM     33  C   UNL     1      -2.970  10.510  15.918  0.00  0.00    +0.000 C 
ATOM     34  C   UNL     1      -2.398  10.020  17.245  0.00  0.00    +0.000 C 
BRANCH  33  35
ATOM     35  O   UNL     1      -2.326  11.703  15.474  0.00  0.00    +0.000 OA
ATOM     36  H   UNL     1      -2.835  12.061  14.728  0.00  0.00    +0.000 HD
ENDBRANCH  33  35
ENDBRANCH  29  30
ENDBRANCH  28  29
ENDBRANCH   1  28
TORSDOF 8
ENDMDL
MODEL 8
REMARK VINA RESULT:      -8.5      4.363      9.681
REMARK  Name = 
REMARK  8 active torsions:
REMARK  status: ('A' for Active; 'I' for Inactive)
REMARK    1  A    between atoms: C_2  and  C_3
REMARK    2  A    between atoms: C_7  and  C_8
REMARK    3  A    between atoms: C_11  and  N_12
REMARK    4  A    between atoms: N_12  and  C_13
REMARK    5  A    between atoms: C_13  and  C_14
REMARK    6  A    between atoms: C_14  and  N_15
REMARK    7  A    between atoms: C_18  and  O_19
REMARK    8  A    between atoms: N_23  and  C_24
REMARK                            x       y       z     vdW  Elec       q    Type
REMARK                         _______ _______ _______ _____ _____    ______ ____
ROOT
ATOM      1  N   UNL     1       0.666  10.784  19.275  0.00  0.00    +0.000 N 
ATOM      2  C   UNL     1       1.177  12.016  18.824  0.00  0.00    +0.000 C 
ATOM      3  O   UNL     1       2.289  12.081  18.306  0.00  0.00    +0.000 OA
ATOM      4  N   UNL     1       0.378  13.122  19.039  0.00  0.00    +0.000 N 
ATOM      5  H   UNL     1      -0.482  12.992  19.545  0.00  0.00    +0.000 HD
ENDROOT
BRANCH   1   9
ATOM      6  C   UNL     1       2.556   6.781  18.766  0.00  0.00    +0.000 C 
ATOM      7  C   UNL     1       2.363   7.401  20.139  0.00  0.00    +0.000 C 
ATOM      8  C   UNL     1       1.258   8.466  20.145  0.00  0.00    +0.000 C 
ATOM      9  C   UNL     1       1.570   9.593  19.140  0.00  0.00    +0.000 C 
ATOM     10  C   UNL     1       1.627   9.047  17.691  0.00  0.00    +0.000 C 
ATOM     11  C   UNL     1       2.128   7.631  17.570  0.00  0.00    +0.000 C 
ATOM     12  C   UNL     1       3.582   7.393  17.806  0.00  0.00    +0.000 C 
BRANCH   6  17
ATOM     13  C   UNL     1       3.391   3.055  19.394  0.00  0.00    +0.000 A 
ATOM     14  C   UNL     1       2.296   2.426  18.798  0.00  0.00    +0.000 A 
ATOM     15  C   UNL     1       1.348   3.183  18.117  0.00  0.00    +0.000 A 
ATOM     16  C   UNL     1       1.478   4.575  18.068  0.00  0.00    +0.000 A 
ATOM     17  C   UNL     1       2.539   5.248  18.707  0.00  0.00    +0.000 A 
ATOM     18  C   UNL     1       3.514   4.455  19.336  0.00  0.00    +0.000 A 
BRANCH  13  20
ATOM     19  N   UNL     1       5.167   1.640  20.653  0.00  0.00    +0.000 NA
ATOM     20  C   UNL     1       4.372   2.272  20.096  0.00  0.00    +0.000 C 
ENDBRANCH  13  20
ENDBRANCH   6  17
ENDBRANCH   1   9
BRANCH   4  21
ATOM     21  C   UNL     1       0.738  14.474  18.797  0.00  0.00    +0.000 A 
ATOM     22  C   UNL     1       2.061  14.924  18.719  0.00  0.00    +0.000 A 
ATOM     23  C   UNL     1       2.355  16.282  18.559  0.00  0.00    +0.000 A 
ATOM     24  C   UNL     1       1.326  17.211  18.463  0.00  0.00    +0.000 A 
ATOM     25  C   UNL     1       0.006  16.769  18.505  0.00  0.00    +0.000 A 
ATOM     26 CL   UNL     1      -1.272  17.917  18.389  0.00  0.00    +0.000 Cl
ATOM     27  C   UNL     1      -0.293  15.411  18.661  0.00  0.00    +0.000 A 
ENDBRANCH   4  21
BRANCH   1  28
ATOM     28  C   UNL     1      -0.721  10.641  19.802  0.00  0.00    +0.000 C 
BRANCH  28  29
ATOM     29  C   UNL     1      -1.893  11.158  18.938  0.00  0.00    +0.000 C 
BRANCH  29  30
ATOM     30  N   UNL     1      -2.668  10.134  18.206  0.00  0.00    +0.000 NA
ATOM     31  C   UNL     1      -4.016  10.565  17.786  0.00  0.00    +0.000 C 
ATOM     32  C   UNL     1      -4.124  10.347  16.277  0.00  0.00    +0.000 C 
ATOM     33  C   UNL     1      -2.686  10.378  15.808  0.00  0.00    +0.000 C 
ATOM     34  C   UNL     1      -1.950   9.723  16.972  0.00  0.00    +0.000 C 
BRANCH  33  35
ATOM     35  O   UNL     1      -2.251  11.720  15.594  0.00  0.00    +0.000 OA
ATOM     36  H   UNL     1      -3.006  12.234  15.263  0.00  0.00    +0.000 HD
ENDBRANCH  33  35
ENDBRANCH  29  30
ENDBRANCH  28  29
ENDBRANCH   1  28
TORSDOF 8
ENDMDL
MODEL 9
REMARK VINA RESULT:      -8.4      2.924      8.343
REMARK  Name = 
REMARK  8 active torsions:
REMARK  status: ('A' for Active; 'I' for Inactive)
REMARK    1  A    between atoms: C_2  and  C_3
REMARK    2  A    between atoms: C_7  and  C_8
REMARK    3  A    between atoms: C_11  and  N_12
REMARK    4  A    between atoms: N_12  and  C_13
REMARK    5  A    between atoms: C_13  and  C_14
REMARK    6  A    between atoms: C_14  and  N_15
REMARK    7  A    between atoms: C_18  and  O_19
REMARK    8  A    between atoms: N_23  and  C_24
REMARK                            x       y       z     vdW  Elec       q    Type
REMARK                         _______ _______ _______ _____ _____    ______ ____
ROOT
ATOM      1  N   UNL     1       2.577   7.008  19.158  0.00  0.00    +0.000 N 
ATOM      2  C   UNL     1       2.107   8.177  18.530  0.00  0.00    +0.000 C 
ATOM      3  O   UNL     1       2.553   8.527  17.441  0.00  0.00    +0.000 OA
ATOM      4  N   UNL     1       1.163   8.906  19.229  0.00  0.00    +0.000 N 
ATOM      5  H   UNL     1       0.914   8.593  20.152  0.00  0.00    +0.000 HD
ENDROOT
BRANCH   1   9
ATOM      6  C   UNL     1       5.449   5.152  16.302  0.00  0.00    +0.000 C 
ATOM      7  C   UNL     1       4.297   4.362  16.897  0.00  0.00    +0.000 C 
ATOM      8  C   UNL     1       3.164   5.272  17.392  0.00  0.00    +0.000 C 
ATOM      9  C   UNL     1       3.676   6.266  18.454  0.00  0.00    +0.000 C 
ATOM     10  C   UNL     1       4.751   7.210  17.861  0.00  0.00    +0.000 C 
ATOM     11  C   UNL     1       5.608   6.593  16.784  0.00  0.00    +0.000 C 
ATOM     12  C   UNL     1       6.613   5.574  17.204  0.00  0.00    +0.000 C 
BRANCH   6  17
ATOM     13  C   UNL     1       5.473   3.853  12.657  0.00  0.00    +0.000 A 
ATOM     14  C   UNL     1       6.763   4.198  12.252  0.00  0.00    +0.000 A 
ATOM     15  C   UNL     1       7.652   4.754  13.167  0.00  0.00    +0.000 A 
ATOM     16  C   UNL     1       7.231   5.001  14.478  0.00  0.00    +0.000 A 
ATOM     17  C   UNL     1       5.917   4.718  14.906  0.00  0.00    +0.000 A 
ATOM     18  C   UNL     1       5.060   4.101  13.978  0.00  0.00    +0.000 A 
BRANCH  13  20
ATOM     19  N   UNL     1       3.812   2.808  10.956  0.00  0.00    +0.000 NA
ATOM     20  C   UNL     1       4.556   3.275  11.710  0.00  0.00    +0.000 C 
ENDBRANCH  13  20
ENDBRANCH   6  17
ENDBRANCH   1   9
BRANCH   4  21
ATOM     21  C   UNL     1       0.651  10.179  18.863  0.00  0.00    +0.000 A 
ATOM     22  C   UNL     1       1.381  11.369  18.960  0.00  0.00    +0.000 A 
ATOM     23  C   UNL     1       0.795  12.603  18.661  0.00  0.00    +0.000 A 
ATOM     24  C   UNL     1      -0.530  12.663  18.248  0.00  0.00    +0.000 A 
ATOM     25  C   UNL     1      -1.255  11.482  18.116  0.00  0.00    +0.000 A 
ATOM     26 CL   UNL     1      -2.899  11.552  17.606  0.00  0.00    +0.000 Cl
ATOM     27  C   UNL     1      -0.673  10.244  18.410  0.00  0.00    +0.000 A 
ENDBRANCH   4  21
BRANCH   1  28
ATOM     28  C   UNL     1       1.982   6.487  20.420  0.00  0.00    +0.000 C 
BRANCH  28  29
ATOM     29  C   UNL     1       2.345   5.053  20.867  0.00  0.00    +0.000 C 
BRANCH  29  30
ATOM     30  N   UNL     1       1.290   4.030  20.709  0.00  0.00    +0.000 NA
ATOM     31  C   UNL     1       0.818   3.841  19.324  0.00  0.00    +0.000 C 
ATOM     32  C   UNL     1       0.968   2.359  18.980  0.00  0.00    +0.000 C 
ATOM     33  C   UNL     1       2.050   1.882  19.923  0.00  0.00    +0.000 C 
ATOM     34  C   UNL     1       1.776   2.707  21.177  0.00  0.00    +0.000 C 
BRANCH  33  35
ATOM     35  O   UNL     1       3.345   2.150  19.387  0.00  0.00    +0.000 OA
ATOM     36  H   UNL     1       3.333   3.039  18.996  0.00  0.00    +0.000 HD
ENDBRANCH  33  35
ENDBRANCH  29  30
ENDBRANCH  28  29
ENDBRANCH   1  28
TORSDOF 8
ENDMDL
