MODEL 1
REMARK VINA RESULT:      -8.1      0.000      0.000
REMARK  Name = 
REMARK  5 active torsions:
REMARK  status: ('A' for Active; 'I' for Inactive)
REMARK    1  A    between atoms: C_1  and  S_2
REMARK    2  A    between atoms: S_2  and  N_5
REMARK    3  A    between atoms: C_8  and  C_9
REMARK    4  A    between atoms: C_11  and  N_12
REMARK    5  A    between atoms: C_18  and  C_19
REMARK                            x       y       z     vdW  Elec       q    Type
REMARK                         _______ _______ _______ _____ _____    ______ ____
ROOT
ATOM      1  N   UNL     1       1.153   9.315  20.262  0.00  0.00    +0.000 N 
ATOM      2  C   UNL     1       0.174  10.185  19.804  0.00  0.00    +0.000 A 
ATOM      3  N   UNL     1      -0.526   9.905  18.722  0.00  0.00    +0.000 NA
ATOM      4  C   UNL     1      -1.406  10.824  18.212  0.00  0.00    +0.000 A 
ATOM      5  C   UNL     1      -1.620  12.029  18.755  0.00  0.00    +0.000 A 
ATOM      6  N   UNL     1      -0.943  12.362  19.913  0.00  0.00    +0.000 N 
ATOM      7  C   UNL     1      -0.908  13.489  20.700  0.00  0.00    +0.000 A 
ATOM      8  C   UNL     1       0.005  13.187  21.697  0.00  0.00    +0.000 A 
ATOM      9  N   UNL     1       0.534  11.924  21.546  0.00  0.00    +0.000 NA
ATOM     10  C   UNL     1      -0.063  11.462  20.467  0.00  0.00    +0.000 A 
ATOM     11  H   UNL     1       1.640   9.668  21.083  0.00  0.00    +0.000 HD
ENDROOT
BRANCH   7  12
ATOM     12  C   UNL     1      -1.655  14.760  20.528  0.00  0.00    +0.000 A 
ATOM     13  C   UNL     1      -1.235  16.015  20.039  0.00  0.00    +0.000 A 
ATOM     14  N   UNL     1      -2.209  16.927  20.053  0.00  0.00    +0.000 NA
ATOM     15  N   UNL     1      -3.260  16.257  20.547  0.00  0.00    +0.000 N 
ATOM     16  C   UNL     1      -2.982  14.952  20.840  0.00  0.00    +0.000 A 
ATOM     17  H   UNL     1      -4.136  16.754  20.660  0.00  0.00    +0.000 HD
ENDBRANCH   7  12
BRANCH   1  20
ATOM     18  C   UNL     1       2.627   6.379  18.652  0.00  0.00    +0.000 A 
ATOM     19  C   UNL     1       2.128   7.083  19.788  0.00  0.00    +0.000 A 
ATOM     20  C   UNL     1       1.794   8.392  19.493  0.00  0.00    +0.000 A 
ATOM     21  S   UNL     1       2.287   8.676  17.875  0.00  0.00    +0.000 S 
ATOM     22  N   UNL     1       2.768   7.120  17.552  0.00  0.00    +0.000 NA
BRANCH  18  26
ATOM     23  N   UNL     1       5.812   4.697  17.898  0.00  0.00    +0.000 NA
ATOM     24  C   UNL     1       5.443   5.032  19.300  0.00  0.00    +0.000 C 
ATOM     25  C   UNL     1       4.063   4.512  19.683  0.00  0.00    +0.000 C 
ATOM     26  C   UNL     1       2.987   4.905  18.672  0.00  0.00    +0.000 C 
ATOM     27  C   UNL     1       3.417   4.375  17.297  0.00  0.00    +0.000 C 
ATOM     28  C   UNL     1       4.769   4.929  16.870  0.00  0.00    +0.000 C 
BRANCH  23  30
ATOM     29  C   UNL     1       7.796   6.393  18.729  0.00  0.00    +0.000 C 
ATOM     30  S   UNL     1       7.383   5.216  17.446  0.00  0.00    +0.000 S 
ATOM     31  O   UNL     1       7.271   5.946  16.200  0.00  0.00    +0.000 OA
ATOM     32  O   UNL     1       8.280   4.089  17.574  0.00  0.00    +0.000 OA
ENDBRANCH  23  30
ENDBRANCH  18  26
ENDBRANCH   1  20
TORSDOF 4
ENDMDL
MODEL 2
REMARK VINA RESULT:      -8.0      0.616      1.258
REMARK  Name = 
REMARK  5 active torsions:
REMARK  status: ('A' for Active; 'I' for Inactive)
REMARK    1  A    between atoms: C_1  and  S_2
REMARK    2  A    between atoms: S_2  and  N_5
REMARK    3  A    between atoms: C_8  and  C_9
REMARK    4  A    between atoms: C_11  and  N_12
REMARK    5  A    between atoms: C_18  and  C_19
REMARK                            x       y       z     vdW  Elec       q    Type
REMARK                         _______ _______ _______ _____ _____    ______ ____
ROOT
ATOM      1  N   UNL     1       1.059   9.121  20.422  0.00  0.00    +0.000 N 
ATOM      2  C   UNL     1       0.129  10.012  19.908  0.00  0.00    +0.000 A 
ATOM      3  N   UNL     1      -0.473   9.773  18.759  0.00  0.00    +0.000 NA
ATOM      4  C   UNL     1      -1.300  10.715  18.204  0.00  0.00    +0.000 A 
ATOM      5  C   UNL     1      -1.557  11.902  18.765  0.00  0.00    +0.000 A 
ATOM      6  N   UNL     1      -0.985  12.192  19.990  0.00  0.00    +0.000 N 
ATOM      7  C   UNL     1      -1.015  13.293  20.815  0.00  0.00    +0.000 A 
ATOM      8  C   UNL     1      -0.196  12.951  21.879  0.00  0.00    +0.000 A 
ATOM      9  N   UNL     1       0.338  11.690  21.733  0.00  0.00    +0.000 NA
ATOM     10  C   UNL     1      -0.161  11.268  20.590  0.00  0.00    +0.000 A 
ATOM     11  H   UNL     1       1.472   9.442  21.295  0.00  0.00    +0.000 HD
ENDROOT
BRANCH   7  12
ATOM     12  C   UNL     1      -1.738  14.574  20.619  0.00  0.00    +0.000 A 
ATOM     13  C   UNL     1      -3.018  14.982  21.050  0.00  0.00    +0.000 A 
ATOM     14  N   UNL     1      -3.324  16.220  20.657  0.00  0.00    +0.000 NA
ATOM     15  N   UNL     1      -2.238  16.611  19.975  0.00  0.00    +0.000 N 
ATOM     16  C   UNL     1      -1.255  15.663  19.930  0.00  0.00    +0.000 A 
ATOM     17  H   UNL     1      -2.236  17.539  19.565  0.00  0.00    +0.000 HD
ENDBRANCH   7  12
BRANCH   1  20
ATOM     18  C   UNL     1       2.668   6.229  18.860  0.00  0.00    +0.000 A 
ATOM     19  C   UNL     1       2.080   6.904  19.971  0.00  0.00    +0.000 A 
ATOM     20  C   UNL     1       1.762   8.219  19.683  0.00  0.00    +0.000 A 
ATOM     21  S   UNL     1       2.376   8.543  18.115  0.00  0.00    +0.000 S 
ATOM     22  N   UNL     1       2.890   6.998  17.793  0.00  0.00    +0.000 NA
BRANCH  18  26
ATOM     23  N   UNL     1       5.611   4.497  17.489  0.00  0.00    +0.000 NA
ATOM     24  C   UNL     1       5.567   4.904  18.919  0.00  0.00    +0.000 C 
ATOM     25  C   UNL     1       4.314   4.412  19.632  0.00  0.00    +0.000 C 
ATOM     26  C   UNL     1       3.034   4.757  18.873  0.00  0.00    +0.000 C 
ATOM     27  C   UNL     1       3.144   4.155  17.465  0.00  0.00    +0.000 C 
ATOM     28  C   UNL     1       4.360   4.680  16.714  0.00  0.00    +0.000 C 
BRANCH  23  30
ATOM     29  C   UNL     1       6.734   4.428  14.992  0.00  0.00    +0.000 C 
ATOM     30  S   UNL     1       7.034   4.984  16.666  0.00  0.00    +0.000 S 
ATOM     31  O   UNL     1       8.141   4.214  17.193  0.00  0.00    +0.000 OA
ATOM     32  O   UNL     1       7.069   6.430  16.652  0.00  0.00    +0.000 OA
ENDBRANCH  23  30
ENDBRANCH  18  26
ENDBRANCH   1  20
TORSDOF 4
ENDMDL
MODEL 3
REMARK VINA RESULT:      -7.9      2.316      3.676
REMARK  Name = 
REMARK  5 active torsions:
REMARK  status: ('A' for Active; 'I' for Inactive)
REMARK    1  A    between atoms: C_1  and  S_2
REMARK    2  A    between atoms: S_2  and  N_5
REMARK    3  A    between atoms: C_8  and  C_9
REMARK    4  A    between atoms: C_11  and  N_12
REMARK    5  A    between atoms: C_18  and  C_19
REMARK                            x       y       z     vdW  Elec       q    Type
REMARK                         _______ _______ _______ _____ _____    ______ ____
ROOT
ATOM      1  N   UNL     1       2.456   6.406  20.112  0.00  0.00    +0.000 N 
ATOM      2  C   UNL     1       1.993   7.565  19.505  0.00  0.00    +0.000 A 
ATOM      3  N   UNL     1       2.337   7.862  18.268  0.00  0.00    +0.000 NA
ATOM      4  C   UNL     1       1.971   9.065  17.720  0.00  0.00    +0.000 A 
ATOM      5  C   UNL     1       1.260   9.993  18.371  0.00  0.00    +0.000 A 
ATOM      6  N   UNL     1       0.838   9.719  19.658  0.00  0.00    +0.000 N 
ATOM      7  C   UNL     1       0.131  10.433  20.597  0.00  0.00    +0.000 A 
ATOM      8  C   UNL     1       0.078   9.597  21.701  0.00  0.00    +0.000 A 
ATOM      9  N   UNL     1       0.730   8.406  21.476  0.00  0.00    +0.000 NA
ATOM     10  C   UNL     1       1.168   8.516  20.240  0.00  0.00    +0.000 A 
ATOM     11  H   UNL     1       2.144   6.315  21.076  0.00  0.00    +0.000 HD
ENDROOT
BRANCH   7  12
ATOM     12  C   UNL     1      -0.439  11.799  20.482  0.00  0.00    +0.000 A 
ATOM     13  C   UNL     1      -0.064  13.007  21.107  0.00  0.00    +0.000 A 
ATOM     14  N   UNL     1      -0.840  14.033  20.754  0.00  0.00    +0.000 NA
ATOM     15  N   UNL     1      -1.714  13.486  19.896  0.00  0.00    +0.000 N 
ATOM     16  C   UNL     1      -1.510  12.151  19.694  0.00  0.00    +0.000 A 
ATOM     17  H   UNL     1      -2.424  14.084  19.488  0.00  0.00    +0.000 HD
ENDBRANCH   7  12
BRANCH   1  20
ATOM     18  C   UNL     1       5.790   5.201  19.206  0.00  0.00    +0.000 A 
ATOM     19  C   UNL     1       4.800   6.224  19.322  0.00  0.00    +0.000 A 
ATOM     20  C   UNL     1       3.579   5.731  19.743  0.00  0.00    +0.000 A 
ATOM     21  S   UNL     1       3.725   4.023  19.793  0.00  0.00    +0.000 S 
ATOM     22  N   UNL     1       5.343   3.964  19.428  0.00  0.00    +0.000 NA
BRANCH  18  26
ATOM     23  N   UNL     1       7.404   5.527  15.915  0.00  0.00    +0.000 NA
ATOM     24  C   UNL     1       6.950   6.732  16.661  0.00  0.00    +0.000 C 
ATOM     25  C   UNL     1       7.485   6.776  18.086  0.00  0.00    +0.000 C 
ATOM     26  C   UNL     1       7.238   5.475  18.846  0.00  0.00    +0.000 C 
ATOM     27  C   UNL     1       7.882   4.333  18.047  0.00  0.00    +0.000 C 
ATOM     28  C   UNL     1       7.317   4.234  16.638  0.00  0.00    +0.000 C 
BRANCH  23  30
ATOM     29  C   UNL     1       6.401   3.752  14.085  0.00  0.00    +0.000 C 
ATOM     30  S   UNL     1       6.868   5.468  14.287  0.00  0.00    +0.000 S 
ATOM     31  O   UNL     1       8.009   5.717  13.432  0.00  0.00    +0.000 OA
ATOM     32  O   UNL     1       5.667   6.268  14.183  0.00  0.00    +0.000 OA
ENDBRANCH  23  30
ENDBRANCH  18  26
ENDBRANCH   1  20
TORSDOF 4
ENDMDL
MODEL 4
REMARK VINA RESULT:      -7.9      4.455      9.605
REMARK  Name = 
REMARK  5 active torsions:
REMARK  status: ('A' for Active; 'I' for Inactive)
REMARK    1  A    between atoms: C_1  and  S_2
REMARK    2  A    between atoms: S_2  and  N_5
REMARK    3  A    between atoms: C_8  and  C_9
REMARK    4  A    between atoms: C_11  and  N_12
REMARK    5  A    between atoms: C_18  and  C_19
REMARK                            x       y       z     vdW  Elec       q    Type
REMARK                         _______ _______ _______ _____ _____    ______ ____
ROOT
ATOM      1  N   UNL     1       0.930  10.603  18.513  0.00  0.00    +0.000 N 
ATOM      2  C   UNL     1       1.185   9.410  19.173  0.00  0.00    +0.000 A 
ATOM      3  N   UNL     1       0.685   9.182  20.372  0.00  0.00    +0.000 NA
ATOM      4  C   UNL     1       1.040   8.052  21.064  0.00  0.00    +0.000 A 
ATOM      5  C   UNL     1       1.882   7.126  20.593  0.00  0.00    +0.000 A 
ATOM      6  N   UNL     1       2.407   7.293  19.325  0.00  0.00    +0.000 N 
ATOM      7  C   UNL     1       3.293   6.570  18.562  0.00  0.00    +0.000 A 
ATOM      8  C   UNL     1       3.426   7.304  17.395  0.00  0.00    +0.000 A 
ATOM      9  N   UNL     1       2.662   8.450  17.418  0.00  0.00    +0.000 NA
ATOM     10  C   UNL     1       2.064   8.404  18.590  0.00  0.00    +0.000 A 
ATOM     11  H   UNL     1       1.403  10.664  17.614  0.00  0.00    +0.000 HD
ENDROOT
BRANCH   7  12
ATOM     12  C   UNL     1       3.980   5.298  18.901  0.00  0.00    +0.000 A 
ATOM     13  C   UNL     1       3.464   4.069  19.362  0.00  0.00    +0.000 A 
ATOM     14  N   UNL     1       4.414   3.156  19.571  0.00  0.00    +0.000 NA
ATOM     15  N   UNL     1       5.544   3.797  19.239  0.00  0.00    +0.000 N 
ATOM     16  C   UNL     1       5.337   5.081  18.823  0.00  0.00    +0.000 A 
ATOM     17  H   UNL     1       6.422   3.296  19.322  0.00  0.00    +0.000 HD
ENDBRANCH   7  12
BRANCH   1  20
ATOM     18  C   UNL     1       0.638  13.762  20.336  0.00  0.00    +0.000 A 
ATOM     19  C   UNL     1       1.247  12.496  20.085  0.00  0.00    +0.000 A 
ATOM     20  C   UNL     1       0.573  11.768  19.122  0.00  0.00    +0.000 A 
ATOM     21  S   UNL     1      -0.847  12.649  18.739  0.00  0.00    +0.000 S 
ATOM     22  N   UNL     1      -0.503  13.973  19.679  0.00  0.00    +0.000 NA
BRANCH  18  26
ATOM     23  N   UNL     1       3.298  16.249  19.804  0.00  0.00    +0.000 NA
ATOM     24  C   UNL     1       1.866  16.621  19.641  0.00  0.00    +0.000 C 
ATOM     25  C   UNL     1       1.022  16.251  20.854  0.00  0.00    +0.000 C 
ATOM     26  C   UNL     1       1.217  14.798  21.282  0.00  0.00    +0.000 C 
ATOM     27  C   UNL     1       2.712  14.584  21.561  0.00  0.00    +0.000 C 
ATOM     28  C   UNL     1       3.568  14.893  20.341  0.00  0.00    +0.000 C 
BRANCH  23  30
ATOM     29  C   UNL     1       4.983  15.137  17.953  0.00  0.00    +0.000 C 
ATOM     30  S   UNL     1       4.292  16.701  18.482  0.00  0.00    +0.000 S 
ATOM     31  O   UNL     1       5.378  17.509  18.996  0.00  0.00    +0.000 OA
ATOM     32  O   UNL     1       3.435  17.186  17.423  0.00  0.00    +0.000 OA
ENDBRANCH  23  30
ENDBRANCH  18  26
ENDBRANCH   1  20
TORSDOF 4
ENDMDL
MODEL 5
REMARK VINA RESULT:      -7.7      1.473      1.697
REMARK  Name = 
REMARK  5 active torsions:
REMARK  status: ('A' for Active; 'I' for Inactive)
REMARK    1  A    between atoms: C_1  and  S_2
REMARK    2  A    between atoms: S_2  and  N_5
REMARK    3  A    between atoms: C_8  and  C_9
REMARK    4  A    between atoms: C_11  and  N_12
REMARK    5  A    between atoms: C_18  and  C_19
REMARK                            x       y       z     vdW  Elec       q    Type
REMARK                         _______ _______ _______ _____ _____    ______ ____
ROOT
ATOM      1  N   UNL     1       1.425   9.224  20.553  0.00  0.00    +0.000 N 
ATOM      2  C   UNL     1       0.497  10.119  20.042  0.00  0.00    +0.000 A 
ATOM      3  N   UNL     1      -0.483   9.705  19.263  0.00  0.00    +0.000 NA
ATOM      4  C   UNL     1      -1.323  10.611  18.668  0.00  0.00    +0.000 A 
ATOM      5  C   UNL     1      -1.222  11.936  18.830  0.00  0.00    +0.000 A 
ATOM      6  N   UNL     1      -0.238  12.426  19.668  0.00  0.00    +0.000 N 
ATOM      7  C   UNL     1       0.153  13.693  20.034  0.00  0.00    +0.000 A 
ATOM      8  C   UNL     1       1.233  13.493  20.878  0.00  0.00    +0.000 A 
ATOM      9  N   UNL     1       1.522  12.156  21.036  0.00  0.00    +0.000 NA
ATOM     10  C   UNL     1       0.616  11.550  20.298  0.00  0.00    +0.000 A 
ATOM     11  H   UNL     1       2.145   9.679  21.109  0.00  0.00    +0.000 HD
ENDROOT
BRANCH   7  12
ATOM     12  C   UNL     1      -0.425  14.994  19.615  0.00  0.00    +0.000 A 
ATOM     13  C   UNL     1       0.006  15.922  18.644  0.00  0.00    +0.000 A 
ATOM     14  N   UNL     1      -0.783  16.996  18.570  0.00  0.00    +0.000 NA
ATOM     15  N   UNL     1      -1.726  16.757  19.492  0.00  0.00    +0.000 N 
ATOM     16  C   UNL     1      -1.561  15.567  20.140  0.00  0.00    +0.000 A 
ATOM     17  H   UNL     1      -2.452  17.452  19.627  0.00  0.00    +0.000 HD
ENDBRANCH   7  12
BRANCH   1  20
ATOM     18  C   UNL     1       2.548   6.332  18.613  0.00  0.00    +0.000 A 
ATOM     19  C   UNL     1       2.185   7.706  18.744  0.00  0.00    +0.000 A 
ATOM     20  C   UNL     1       1.716   8.011  20.008  0.00  0.00    +0.000 A 
ATOM     21  S   UNL     1       1.611   6.530  20.867  0.00  0.00    +0.000 S 
ATOM     22  N   UNL     1       2.287   5.581  19.684  0.00  0.00    +0.000 NA
BRANCH  18  26
ATOM     23  N   UNL     1       6.038   5.408  17.900  0.00  0.00    +0.000 NA
ATOM     24  C   UNL     1       5.063   4.387  18.368  0.00  0.00    +0.000 C 
ATOM     25  C   UNL     1       3.791   4.361  17.529  0.00  0.00    +0.000 C 
ATOM     26  C   UNL     1       3.172   5.746  17.360  0.00  0.00    +0.000 C 
ATOM     27  C   UNL     1       4.232   6.664  16.733  0.00  0.00    +0.000 C 
ATOM     28  C   UNL     1       5.488   6.749  17.588  0.00  0.00    +0.000 C 
BRANCH  23  30
ATOM     29  C   UNL     1       8.137   7.074  18.465  0.00  0.00    +0.000 C 
ATOM     30  S   UNL     1       7.507   5.430  18.785  0.00  0.00    +0.000 S 
ATOM     31  O   UNL     1       8.414   4.484  18.169  0.00  0.00    +0.000 OA
ATOM     32  O   UNL     1       7.182   5.348  20.192  0.00  0.00    +0.000 OA
ENDBRANCH  23  30
ENDBRANCH  18  26
ENDBRANCH   1  20
TORSDOF 4
ENDMDL
MODEL 6
REMARK VINA RESULT:      -7.7      1.901      2.918
REMARK  Name = 
REMARK  5 active torsions:
REMARK  status: ('A' for Active; 'I' for Inactive)
REMARK    1  A    between atoms: C_1  and  S_2
REMARK    2  A    between atoms: S_2  and  N_5
REMARK    3  A    between atoms: C_8  and  C_9
REMARK    4  A    between atoms: C_11  and  N_12
REMARK    5  A    between atoms: C_18  and  C_19
REMARK                            x       y       z     vdW  Elec       q    Type
REMARK                         _______ _______ _______ _____ _____    ______ ____
ROOT
ATOM      1  N   UNL     1       1.853   8.264  19.164  0.00  0.00    +0.000 N 
ATOM      2  C   UNL     1       1.174   9.060  20.075  0.00  0.00    +0.000 A 
ATOM      3  N   UNL     1       1.308   8.867  21.373  0.00  0.00    +0.000 NA
ATOM      4  C   UNL     1       0.543   9.580  22.259  0.00  0.00    +0.000 A 
ATOM      5  C   UNL     1      -0.360  10.497  21.893  0.00  0.00    +0.000 A 
ATOM      6  N   UNL     1      -0.515  10.770  20.547  0.00  0.00    +0.000 N 
ATOM      7  C   UNL     1      -1.343  11.610  19.838  0.00  0.00    +0.000 A 
ATOM      8  C   UNL     1      -1.018  11.378  18.511  0.00  0.00    +0.000 A 
ATOM      9  N   UNL     1      -0.032  10.426  18.381  0.00  0.00    +0.000 NA
ATOM     10  C   UNL     1       0.244  10.089  19.624  0.00  0.00    +0.000 A 
ATOM     11  H   UNL     1       1.634   8.497  18.198  0.00  0.00    +0.000 HD
ENDROOT
BRANCH   7  12
ATOM     12  C   UNL     1      -2.371  12.546  20.356  0.00  0.00    +0.000 A 
ATOM     13  C   UNL     1      -3.766  12.586  20.149  0.00  0.00    +0.000 A 
ATOM     14  N   UNL     1      -4.353  13.604  20.782  0.00  0.00    +0.000 NA
ATOM     15  N   UNL     1      -3.335  14.218  21.402  0.00  0.00    +0.000 N 
ATOM     16  C   UNL     1      -2.127  13.617  21.185  0.00  0.00    +0.000 A 
ATOM     17  H   UNL     1      -3.537  15.042  21.956  0.00  0.00    +0.000 HD
ENDBRANCH   7  12
BRANCH   1  20
ATOM     18  C   UNL     1       3.728   5.167  19.694  0.00  0.00    +0.000 A 
ATOM     19  C   UNL     1       3.529   6.437  19.074  0.00  0.00    +0.000 A 
ATOM     20  C   UNL     1       2.321   7.012  19.424  0.00  0.00    +0.000 A 
ATOM     21  S   UNL     1       1.472   5.850  20.356  0.00  0.00    +0.000 S 
ATOM     22  N   UNL     1       2.693   4.727  20.411  0.00  0.00    +0.000 NA
BRANCH  18  26
ATOM     23  N   UNL     1       6.029   4.831  16.842  0.00  0.00    +0.000 NA
ATOM     24  C   UNL     1       6.304   5.809  17.929  0.00  0.00    +0.000 C 
ATOM     25  C   UNL     1       6.270   5.173  19.313  0.00  0.00    +0.000 C 
ATOM     26  C   UNL     1       5.002   4.356  19.552  0.00  0.00    +0.000 C 
ATOM     27  C   UNL     1       4.914   3.290  18.449  0.00  0.00    +0.000 C 
ATOM     28  C   UNL     1       4.887   3.910  17.059  0.00  0.00    +0.000 C 
BRANCH  23  30
ATOM     29  C   UNL     1       5.429   4.194  14.247  0.00  0.00    +0.000 C 
ATOM     30  S   UNL     1       6.114   5.497  15.264  0.00  0.00    +0.000 S 
ATOM     31  O   UNL     1       7.512   5.638  14.914  0.00  0.00    +0.000 OA
ATOM     32  O   UNL     1       5.211   6.625  15.206  0.00  0.00    +0.000 OA
ENDBRANCH  23  30
ENDBRANCH  18  26
ENDBRANCH   1  20
TORSDOF 4
ENDMDL
MODEL 7
REMARK VINA RESULT:      -7.6      4.266      9.827
REMARK  Name = 
REMARK  5 active torsions:
REMARK  status: ('A' for Active; 'I' for Inactive)
REMARK    1  A    between atoms: C_1  and  S_2
REMARK    2  A    between atoms: S_2  and  N_5
REMARK    3  A    between atoms: C_8  and  C_9
REMARK    4  A    between atoms: C_11  and  N_12
REMARK    5  A    between atoms: C_18  and  C_19
REMARK                            x       y       z     vdW  Elec       q    Type
REMARK                         _______ _______ _______ _____ _____    ______ ____
ROOT
ATOM      1  N   UNL     1       1.199   9.019  20.211  0.00  0.00    +0.000 N 
ATOM      2  C   UNL     1       1.987   8.134  19.488  0.00  0.00    +0.000 A 
ATOM      3  N   UNL     1       2.593   8.519  18.382  0.00  0.00    +0.000 NA
ATOM      4  C   UNL     1       3.270   7.607  17.613  0.00  0.00    +0.000 A 
ATOM      5  C   UNL     1       3.370   6.308  17.917  0.00  0.00    +0.000 A 
ATOM      6  N   UNL     1       2.788   5.855  19.086  0.00  0.00    +0.000 N 
ATOM      7  C   UNL     1       2.681   4.617  19.675  0.00  0.00    +0.000 A 
ATOM      8  C   UNL     1       1.939   4.843  20.823  0.00  0.00    +0.000 A 
ATOM      9  N   UNL     1       1.582   6.166  20.954  0.00  0.00    +0.000 NA
ATOM     10  C   UNL     1       2.113   6.740  19.895  0.00  0.00    +0.000 A 
ATOM     11  H   UNL     1       0.764   8.585  21.022  0.00  0.00    +0.000 HD
ENDROOT
BRANCH   7  12
ATOM     12  C   UNL     1       3.215   3.318  19.197  0.00  0.00    +0.000 A 
ATOM     13  C   UNL     1       2.787   2.478  18.148  0.00  0.00    +0.000 A 
ATOM     14  N   UNL     1       3.526   1.372  18.038  0.00  0.00    +0.000 NA
ATOM     15  N   UNL     1       4.435   1.502  19.015  0.00  0.00    +0.000 N 
ATOM     16  C   UNL     1       4.296   2.656  19.733  0.00  0.00    +0.000 A 
ATOM     17  H   UNL     1       5.119   0.764  19.136  0.00  0.00    +0.000 HD
ENDBRANCH   7  12
BRANCH   1  20
ATOM     18  C   UNL     1       0.276  12.225  18.709  0.00  0.00    +0.000 A 
ATOM     19  C   UNL     1       1.173  11.369  19.415  0.00  0.00    +0.000 A 
ATOM     20  C   UNL     1       0.614  10.136  19.698  0.00  0.00    +0.000 A 
ATOM     21  S   UNL     1      -1.028  10.214  19.209  0.00  0.00    +0.000 S 
ATOM     22  N   UNL     1      -0.949  11.728  18.534  0.00  0.00    +0.000 NA
BRANCH  18  26
ATOM     23  N   UNL     1       1.870  15.048  20.450  0.00  0.00    +0.000 NA
ATOM     24  C   UNL     1       2.683  14.093  19.650  0.00  0.00    +0.000 C 
ATOM     25  C   UNL     1       2.153  13.915  18.232  0.00  0.00    +0.000 C 
ATOM     26  C   UNL     1       0.659  13.602  18.199  0.00  0.00    +0.000 C 
ATOM     27  C   UNL     1      -0.076  14.736  18.928  0.00  0.00    +0.000 C 
ATOM     28  C   UNL     1       0.398  14.891  20.366  0.00  0.00    +0.000 C 
BRANCH  23  30
ATOM     29  C   UNL     1       3.449  16.802  21.841  0.00  0.00    +0.000 C 
ATOM     30  S   UNL     1       2.467  15.318  22.034  0.00  0.00    +0.000 S 
ATOM     31  O   UNL     1       3.369  14.234  22.362  0.00  0.00    +0.000 OA
ATOM     32  O   UNL     1       1.344  15.639  22.887  0.00  0.00    +0.000 OA
ENDBRANCH  23  30
ENDBRANCH  18  26
ENDBRANCH   1  20
TORSDOF 4
ENDMDL
MODEL 8
REMARK VINA RESULT:      -7.6      5.042     10.808
REMARK  Name = 
REMARK  5 active torsions:
REMARK  status: ('A' for Active; 'I' for Inactive)
REMARK    1  A    between atoms: C_1  and  S_2
REMARK    2  A    between atoms: S_2  and  N_5
REMARK    3  A    between atoms: C_8  and  C_9
REMARK    4  A    between atoms: C_11  and  N_12
REMARK    5  A    between atoms: C_18  and  C_19
REMARK                            x       y       z     vdW  Elec       q    Type
REMARK                         _______ _______ _______ _____ _____    ______ ____
ROOT
ATOM      1  N   UNL     1       0.767   9.031  20.976  0.00  0.00    +0.000 N 
ATOM      2  C   UNL     1       1.517   8.364  20.019  0.00  0.00    +0.000 A 
ATOM      3  N   UNL     1       1.927   8.984  18.929  0.00  0.00    +0.000 NA
ATOM      4  C   UNL     1       2.564   8.285  17.936  0.00  0.00    +0.000 A 
ATOM      5  C   UNL     1       2.816   6.972  17.994  0.00  0.00    +0.000 A 
ATOM      6  N   UNL     1       2.444   6.278  19.130  0.00  0.00    +0.000 N 
ATOM      7  C   UNL     1       2.527   4.957  19.505  0.00  0.00    +0.000 A 
ATOM      8  C   UNL     1       1.938   4.914  20.758  0.00  0.00    +0.000 A 
ATOM      9  N   UNL     1       1.492   6.154  21.160  0.00  0.00    +0.000 NA
ATOM     10  C   UNL     1       1.818   6.944  20.158  0.00  0.00    +0.000 A 
ATOM     11  H   UNL     1       0.489   8.429  21.747  0.00  0.00    +0.000 HD
ENDROOT
BRANCH   7  12
ATOM     12  C   UNL     1       3.098   3.816  18.746  0.00  0.00    +0.000 A 
ATOM     13  C   UNL     1       2.526   2.582  18.374  0.00  0.00    +0.000 A 
ATOM     14  N   UNL     1       3.373   1.802  17.701  0.00  0.00    +0.000 NA
ATOM     15  N   UNL     1       4.492   2.537  17.634  0.00  0.00    +0.000 N 
ATOM     16  C   UNL     1       4.376   3.757  18.239  0.00  0.00    +0.000 A 
ATOM     17  H   UNL     1       5.299   2.144  17.163  0.00  0.00    +0.000 HD
ENDBRANCH   7  12
BRANCH   1  20
ATOM     18  C   UNL     1      -0.857  12.308  20.855  0.00  0.00    +0.000 A 
ATOM     19  C   UNL     1      -0.151  11.268  21.532  0.00  0.00    +0.000 A 
ATOM     20  C   UNL     1       0.023  10.147  20.741  0.00  0.00    +0.000 A 
ATOM     21  S   UNL     1      -0.850  10.423  19.292  0.00  0.00    +0.000 S 
ATOM     22  N   UNL     1      -1.297  11.984  19.639  0.00  0.00    +0.000 NA
BRANCH  18  26
ATOM     23  N   UNL     1      -3.753  13.578  22.738  0.00  0.00    +0.000 NA
ATOM     24  C   UNL     1      -2.556  13.052  23.449  0.00  0.00    +0.000 C 
ATOM     25  C   UNL     1      -1.261  13.701  22.978  0.00  0.00    +0.000 C 
ATOM     26  C   UNL     1      -1.112  13.677  21.458  0.00  0.00    +0.000 C 
ATOM     27  C   UNL     1      -2.336  14.379  20.853  0.00  0.00    +0.000 C 
ATOM     28  C   UNL     1      -3.639  13.708  21.265  0.00  0.00    +0.000 C 
BRANCH  23  30
ATOM     29  C   UNL     1      -6.204  14.366  23.671  0.00  0.00    +0.000 C 
ATOM     30  S   UNL     1      -5.237  12.912  23.280  0.00  0.00    +0.000 S 
ATOM     31  O   UNL     1      -4.984  12.207  24.520  0.00  0.00    +0.000 OA
ATOM     32  O   UNL     1      -5.866  12.250  22.159  0.00  0.00    +0.000 OA
ENDBRANCH  23  30
ENDBRANCH  18  26
ENDBRANCH   1  20
TORSDOF 4
ENDMDL
MODEL 9
REMARK VINA RESULT:      -7.6      5.198     10.856
REMARK  Name = 
REMARK  5 active torsions:
REMARK  status: ('A' for Active; 'I' for Inactive)
REMARK    1  A    between atoms: C_1  and  S_2
REMARK    2  A    between atoms: S_2  and  N_5
REMARK    3  A    between atoms: C_8  and  C_9
REMARK    4  A    between atoms: C_11  and  N_12
REMARK    5  A    between atoms: C_18  and  C_19
REMARK                            x       y       z     vdW  Elec       q    Type
REMARK                         _______ _______ _______ _____ _____    ______ ____
ROOT
ATOM      1  N   UNL     1       0.282   9.789  20.880  0.00  0.00    +0.000 N 
ATOM      2  C   UNL     1       1.143   9.246  19.937  0.00  0.00    +0.000 A 
ATOM      3  N   UNL     1       1.488   9.930  18.864  0.00  0.00    +0.000 NA
ATOM      4  C   UNL     1       2.243   9.341  17.883  0.00  0.00    +0.000 A 
ATOM      5  C   UNL     1       2.678   8.077  17.938  0.00  0.00    +0.000 A 
ATOM      6  N   UNL     1       2.380   7.324  19.058  0.00  0.00    +0.000 N 
ATOM      7  C   UNL     1       2.641   6.024  19.424  0.00  0.00    +0.000 A 
ATOM      8  C   UNL     1       2.031   5.883  20.661  0.00  0.00    +0.000 A 
ATOM      9  N   UNL     1       1.403   7.042  21.060  0.00  0.00    +0.000 NA
ATOM     10  C   UNL     1       1.639   7.882  20.074  0.00  0.00    +0.000 A 
ATOM     11  H   UNL     1       0.072   9.144  21.638  0.00  0.00    +0.000 HD
ENDROOT
BRANCH   7  12
ATOM     12  C   UNL     1       3.386   4.984  18.672  0.00  0.00    +0.000 A 
ATOM     13  C   UNL     1       3.185   4.465  17.376  0.00  0.00    +0.000 A 
ATOM     14  N   UNL     1       4.068   3.516  17.057  0.00  0.00    +0.000 NA
ATOM     15  N   UNL     1       4.842   3.428  18.148  0.00  0.00    +0.000 N 
ATOM     16  C   UNL     1       4.480   4.293  19.141  0.00  0.00    +0.000 A 
ATOM     17  H   UNL     1       5.599   2.754  18.145  0.00  0.00    +0.000 HD
ENDBRANCH   7  12
BRANCH   1  20
ATOM     18  C   UNL     1      -1.771  12.814  20.722  0.00  0.00    +0.000 A 
ATOM     19  C   UNL     1      -0.928  11.889  21.409  0.00  0.00    +0.000 A 
ATOM     20  C   UNL     1      -0.608  10.790  20.634  0.00  0.00    +0.000 A 
ATOM     21  S   UNL     1      -1.516  10.924  19.186  0.00  0.00    +0.000 S 
ATOM     22  N   UNL     1      -2.168  12.415  19.513  0.00  0.00    +0.000 NA
BRANCH  18  26
ATOM     23  N   UNL     1      -4.700  13.666  22.780  0.00  0.00    +0.000 NA
ATOM     24  C   UNL     1      -3.387  13.368  23.414  0.00  0.00    +0.000 C 
ATOM     25  C   UNL     1      -2.252  14.201  22.832  0.00  0.00    +0.000 C 
ATOM     26  C   UNL     1      -2.206  14.145  21.307  0.00  0.00    +0.000 C 
ATOM     27  C   UNL     1      -3.568  14.616  20.776  0.00  0.00    +0.000 C 
ATOM     28  C   UNL     1      -4.711  13.758  21.300  0.00  0.00    +0.000 C 
BRANCH  23  30
ATOM     29  C   UNL     1      -7.124  14.085  23.986  0.00  0.00    +0.000 C 
ATOM     30  S   UNL     1      -6.014  12.789  23.447  0.00  0.00    +0.000 S 
ATOM     31  O   UNL     1      -5.537  12.100  24.628  0.00  0.00    +0.000 OA
ATOM     32  O   UNL     1      -6.662  12.069  22.373  0.00  0.00    +0.000 OA
ENDBRANCH  23  30
ENDBRANCH  18  26
ENDBRANCH   1  20
TORSDOF 4
ENDMDL
