MODEL 1
REMARK VINA RESULT:      -9.9      0.000      0.000
REMARK  Name = 
REMARK  7 active torsions:
REMARK  status: ('A' for Active; 'I' for Inactive)
REMARK    1  A    between atoms: C_1  and  N_2
REMARK    2  A    between atoms: N_6  and  C_7
REMARK    3  A    between atoms: C_7  and  C_8
REMARK    4  A    between atoms: C_11  and  N_12
REMARK    5  A    between atoms: C_13  and  C_15
REMARK    6  A    between atoms: C_27  and  C_28
REMARK    7  A    between atoms: C_30  and  C_31
REMARK                            x       y       z     vdW  Elec       q    Type
REMARK                         _______ _______ _______ _____ _____    ______ ____
ROOT
ATOM      1  C   UNL     1       4.373   3.035  17.990  0.00  0.00    +0.000 C 
ENDROOT
BRANCH   1   7
ATOM      2  C   UNL     1       7.829   6.085  18.936  0.00  0.00    +0.000 C 
ATOM      3  N   UNL     1       7.767   6.539  17.566  0.00  0.00    +0.000 N 
ATOM      4  C   UNL     1       7.191   5.649  16.669  0.00  0.00    +0.000 A 
ATOM      5  N   UNL     1       6.248   4.797  17.086  0.00  0.00    +0.000 NA
ATOM      6  C   UNL     1       5.659   4.022  16.166  0.00  0.00    +0.000 A 
ATOM      7  N   UNL     1       4.674   3.102  16.570  0.00  0.00    +0.000 N 
ATOM      8  C   UNL     1       6.017   4.073  14.808  0.00  0.00    +0.000 A 
ATOM      9  C   UNL     1       5.408   3.277  13.808  0.00  0.00    +0.000 A 
ATOM     10  C   UNL     1       5.791   3.365  12.472  0.00  0.00    +0.000 A 
ATOM     11  C   UNL     1       5.109   2.544  11.421  0.00  0.00    +0.000 C 
ATOM     12  C   UNL     1       6.828   4.232  12.142  0.00  0.00    +0.000 A 
ATOM     13  C   UNL     1       7.455   5.016  13.131  0.00  0.00    +0.000 A 
ATOM     14  C   UNL     1       8.595   5.915  12.724  0.00  0.00    +0.000 C 
ATOM     15  C   UNL     1       7.045   4.962  14.475  0.00  0.00    +0.000 A 
ATOM     16  N   UNL     1       7.623   5.737  15.407  0.00  0.00    +0.000 NA
ATOM     17  H   UNL     1       8.642   6.844  17.154  0.00  0.00    +0.000 HD
ATOM     18  H   UNL     1       3.831   3.252  16.024  0.00  0.00    +0.000 HD
ENDBRANCH   1   7
BRANCH   1  19
ATOM     19  C   UNL     1       3.648   4.311  18.359  0.00  0.00    +0.000 A 
ATOM     20  C   UNL     1       2.497   4.689  17.663  0.00  0.00    +0.000 A 
ATOM     21  C   UNL     1       1.849   5.891  17.959  0.00  0.00    +0.000 A 
ATOM     22  C   UNL     1       2.331   6.750  18.949  0.00  0.00    +0.000 A 
ATOM     23  C   UNL     1       3.507   6.396  19.622  0.00  0.00    +0.000 A 
ATOM     24  C   UNL     1       4.153   5.183  19.336  0.00  0.00    +0.000 A 
BRANCH  22  25
ATOM     25  N   UNL     1       1.692   7.969  19.285  0.00  0.00    +0.000 N 
ATOM     26  C   UNL     1       1.672   9.100  18.483  0.00  0.00    +0.000 C 
ATOM     27  O   UNL     1       2.144   9.166  17.347  0.00  0.00    +0.000 OA
ATOM     28  H   UNL     1       1.145   7.979  20.139  0.00  0.00    +0.000 HD
BRANCH  26  29
ATOM     29  C   UNL     1       1.014  10.331  18.996  0.00  0.00    +0.000 A 
ATOM     30  C   UNL     1      -0.152  10.167  19.768  0.00  0.00    +0.000 A 
ATOM     31  C   UNL     1      -0.856  11.271  20.251  0.00  0.00    +0.000 A 
ATOM     32  C   UNL     1      -0.398  12.553  19.964  0.00  0.00    +0.000 A 
ATOM     33 CL   UNL     1      -1.280  13.915  20.533  0.00  0.00    +0.000 Cl
ATOM     34  C   UNL     1       0.764  12.737  19.215  0.00  0.00    +0.000 A 
ATOM     35  C   UNL     1       1.462  11.626  18.739  0.00  0.00    +0.000 A 
ATOM     36  F   UNL     1       2.579  11.838  18.024  0.00  0.00    +0.000 F 
ENDBRANCH  26  29
ENDBRANCH  22  25
ENDBRANCH   1  19
TORSDOF 4
ENDMDL
MODEL 2
REMARK VINA RESULT:      -9.7      5.019     11.935
REMARK  Name = 
REMARK  7 active torsions:
REMARK  status: ('A' for Active; 'I' for Inactive)
REMARK    1  A    between atoms: C_1  and  N_2
REMARK    2  A    between atoms: N_6  and  C_7
REMARK    3  A    between atoms: C_7  and  C_8
REMARK    4  A    between atoms: C_11  and  N_12
REMARK    5  A    between atoms: C_13  and  C_15
REMARK    6  A    between atoms: C_27  and  C_28
REMARK    7  A    between atoms: C_30  and  C_31
REMARK                            x       y       z     vdW  Elec       q    Type
REMARK                         _______ _______ _______ _____ _____    ______ ____
ROOT
ATOM      1  C   UNL     1      -0.918  13.272  19.553  0.00  0.00    +0.000 C 
ENDROOT
BRANCH   1   7
ATOM      2  C   UNL     1      -1.378  14.721  24.006  0.00  0.00    +0.000 C 
ATOM      3  N   UNL     1      -2.553  13.890  24.127  0.00  0.00    +0.000 N 
ATOM      4  C   UNL     1      -3.164  13.545  22.929  0.00  0.00    +0.000 A 
ATOM      5  N   UNL     1      -2.433  13.431  21.815  0.00  0.00    +0.000 NA
ATOM      6  C   UNL     1      -3.053  13.009  20.705  0.00  0.00    +0.000 A 
ATOM      7  N   UNL     1      -2.320  12.893  19.509  0.00  0.00    +0.000 N 
ATOM      8  C   UNL     1      -4.425  12.707  20.686  0.00  0.00    +0.000 A 
ATOM      9  C   UNL     1      -5.110  12.248  19.534  0.00  0.00    +0.000 A 
ATOM     10  C   UNL     1      -6.471  11.954  19.563  0.00  0.00    +0.000 A 
ATOM     11  C   UNL     1      -7.170  11.432  18.346  0.00  0.00    +0.000 C 
ATOM     12  C   UNL     1      -7.163  12.166  20.752  0.00  0.00    +0.000 A 
ATOM     13  C   UNL     1      -6.497  12.641  21.899  0.00  0.00    +0.000 A 
ATOM     14  C   UNL     1      -7.302  12.884  23.151  0.00  0.00    +0.000 C 
ATOM     15  C   UNL     1      -5.115  12.899  21.888  0.00  0.00    +0.000 A 
ATOM     16  N   UNL     1      -4.480  13.319  22.995  0.00  0.00    +0.000 NA
ATOM     17  H   UNL     1      -3.284  14.232  24.741  0.00  0.00    +0.000 HD
ATOM     18  H   UNL     1      -2.435  11.956  19.135  0.00  0.00    +0.000 HD
ENDBRANCH   1   7
BRANCH   1  19
ATOM     19  C   UNL     1      -0.113  12.078  19.086  0.00  0.00    +0.000 A 
ATOM     20  C   UNL     1       1.273  12.185  18.935  0.00  0.00    +0.000 A 
ATOM     21  C   UNL     1       2.021  11.108  18.454  0.00  0.00    +0.000 A 
ATOM     22  C   UNL     1       1.412   9.900  18.105  0.00  0.00    +0.000 A 
ATOM     23  C   UNL     1       0.020   9.801  18.216  0.00  0.00    +0.000 A 
ATOM     24  C   UNL     1      -0.734  10.877  18.711  0.00  0.00    +0.000 A 
BRANCH  22  25
ATOM     25  N   UNL     1       2.141   8.782  17.628  0.00  0.00    +0.000 N 
ATOM     26  C   UNL     1       2.529   7.701  18.405  0.00  0.00    +0.000 C 
ATOM     27  O   UNL     1       2.226   7.539  19.588  0.00  0.00    +0.000 OA
ATOM     28  H   UNL     1       2.318   8.743  16.631  0.00  0.00    +0.000 HD
BRANCH  26  29
ATOM     29  C   UNL     1       3.348   6.628  17.780  0.00  0.00    +0.000 A 
ATOM     30  C   UNL     1       4.510   7.019  17.090  0.00  0.00    +0.000 A 
ATOM     31  C   UNL     1       5.310   6.080  16.437  0.00  0.00    +0.000 A 
ATOM     32  C   UNL     1       4.952   4.736  16.471  0.00  0.00    +0.000 A 
ATOM     33 CL   UNL     1       5.920   3.580  15.643  0.00  0.00    +0.000 Cl
ATOM     34  C   UNL     1       3.814   4.325  17.164  0.00  0.00    +0.000 A 
ATOM     35  C   UNL     1       3.021   5.272  17.814  0.00  0.00    +0.000 A 
ATOM     36  F   UNL     1       1.934   4.842  18.475  0.00  0.00    +0.000 F 
ENDBRANCH  26  29
ENDBRANCH  22  25
ENDBRANCH   1  19
TORSDOF 4
ENDMDL
MODEL 3
REMARK VINA RESULT:      -9.5      0.889      1.304
REMARK  Name = 
REMARK  7 active torsions:
REMARK  status: ('A' for Active; 'I' for Inactive)
REMARK    1  A    between atoms: C_1  and  N_2
REMARK    2  A    between atoms: N_6  and  C_7
REMARK    3  A    between atoms: C_7  and  C_8
REMARK    4  A    between atoms: C_11  and  N_12
REMARK    5  A    between atoms: C_13  and  C_15
REMARK    6  A    between atoms: C_27  and  C_28
REMARK    7  A    between atoms: C_30  and  C_31
REMARK                            x       y       z     vdW  Elec       q    Type
REMARK                         _______ _______ _______ _____ _____    ______ ____
ROOT
ATOM      1  C   UNL     1       4.336   3.233  18.067  0.00  0.00    +0.000 C 
ENDROOT
BRANCH   1   7
ATOM      2  C   UNL     1       7.854   6.234  18.938  0.00  0.00    +0.000 C 
ATOM      3  N   UNL     1       7.806   6.651  17.556  0.00  0.00    +0.000 N 
ATOM      4  C   UNL     1       7.212   5.749  16.683  0.00  0.00    +0.000 A 
ATOM      5  N   UNL     1       6.250   4.930  17.121  0.00  0.00    +0.000 NA
ATOM      6  C   UNL     1       5.647   4.142  16.221  0.00  0.00    +0.000 A 
ATOM      7  N   UNL     1       4.642   3.254  16.647  0.00  0.00    +0.000 N 
ATOM      8  C   UNL     1       6.010   4.147  14.863  0.00  0.00    +0.000 A 
ATOM      9  C   UNL     1       5.387   3.337  13.883  0.00  0.00    +0.000 A 
ATOM     10  C   UNL     1       5.774   3.380  12.547  0.00  0.00    +0.000 A 
ATOM     11  C   UNL     1       5.077   2.544  11.517  0.00  0.00    +0.000 C 
ATOM     12  C   UNL     1       6.830   4.215  12.196  0.00  0.00    +0.000 A 
ATOM     13  C   UNL     1       7.471   5.012  13.165  0.00  0.00    +0.000 A 
ATOM     14  C   UNL     1       8.632   5.875  12.736  0.00  0.00    +0.000 C 
ATOM     15  C   UNL     1       7.057   5.004  14.508  0.00  0.00    +0.000 A 
ATOM     16  N   UNL     1       7.650   5.793  15.420  0.00  0.00    +0.000 NA
ATOM     17  H   UNL     1       8.688   6.926  17.139  0.00  0.00    +0.000 HD
ATOM     18  H   UNL     1       3.803   3.408  16.095  0.00  0.00    +0.000 HD
ENDBRANCH   1   7
BRANCH   1  19
ATOM     19  C   UNL     1       3.607   4.519  18.392  0.00  0.00    +0.000 A 
ATOM     20  C   UNL     1       3.888   5.202  19.579  0.00  0.00    +0.000 A 
ATOM     21  C   UNL     1       3.185   6.361  19.916  0.00  0.00    +0.000 A 
ATOM     22  C   UNL     1       2.181   6.867  19.087  0.00  0.00    +0.000 A 
ATOM     23  C   UNL     1       1.868   6.165  17.918  0.00  0.00    +0.000 A 
ATOM     24  C   UNL     1       2.581   5.008  17.569  0.00  0.00    +0.000 A 
BRANCH  22  25
ATOM     25  N   UNL     1       1.458   8.048  19.391  0.00  0.00    +0.000 N 
ATOM     26  C   UNL     1       1.397   9.169  18.576  0.00  0.00    +0.000 C 
ATOM     27  O   UNL     1       1.899   9.254  17.455  0.00  0.00    +0.000 OA
ATOM     28  H   UNL     1       0.885   8.032  20.227  0.00  0.00    +0.000 HD
BRANCH  26  29
ATOM     29  C   UNL     1       0.648  10.362  19.056  0.00  0.00    +0.000 A 
ATOM     30  C   UNL     1       1.199  11.081  20.133  0.00  0.00    +0.000 A 
ATOM     31  C   UNL     1       0.538  12.186  20.673  0.00  0.00    +0.000 A 
ATOM     32  C   UNL     1      -0.683  12.582  20.137  0.00  0.00    +0.000 A 
ATOM     33 CL   UNL     1      -1.512  13.925  20.819  0.00  0.00    +0.000 Cl
ATOM     34  C   UNL     1      -1.237  11.893  19.059  0.00  0.00    +0.000 A 
ATOM     35  C   UNL     1      -0.568  10.790  18.525  0.00  0.00    +0.000 A 
ATOM     36  F   UNL     1      -1.128  10.152  17.485  0.00  0.00    +0.000 F 
ENDBRANCH  26  29
ENDBRANCH  22  25
ENDBRANCH   1  19
TORSDOF 4
ENDMDL
MODEL 4
REMARK VINA RESULT:      -9.3      1.554      1.770
REMARK  Name = 
REMARK  7 active torsions:
REMARK  status: ('A' for Active; 'I' for Inactive)
REMARK    1  A    between atoms: C_1  and  N_2
REMARK    2  A    between atoms: N_6  and  C_7
REMARK    3  A    between atoms: C_7  and  C_8
REMARK    4  A    between atoms: C_11  and  N_12
REMARK    5  A    between atoms: C_13  and  C_15
REMARK    6  A    between atoms: C_27  and  C_28
REMARK    7  A    between atoms: C_30  and  C_31
REMARK                            x       y       z     vdW  Elec       q    Type
REMARK                         _______ _______ _______ _____ _____    ______ ____
ROOT
ATOM      1  C   UNL     1       4.276   3.056  17.980  0.00  0.00    +0.000 C 
ENDROOT
BRANCH   1   7
ATOM      2  C   UNL     1       7.814   5.994  18.974  0.00  0.00    +0.000 C 
ATOM      3  N   UNL     1       7.768   6.469  17.611  0.00  0.00    +0.000 N 
ATOM      4  C   UNL     1       7.169   5.608  16.701  0.00  0.00    +0.000 A 
ATOM      5  N   UNL     1       6.201   4.778  17.105  0.00  0.00    +0.000 NA
ATOM      6  C   UNL     1       5.593   4.033  16.173  0.00  0.00    +0.000 A 
ATOM      7  N   UNL     1       4.581   3.135  16.562  0.00  0.00    +0.000 N 
ATOM      8  C   UNL     1       5.955   4.092  14.816  0.00  0.00    +0.000 A 
ATOM      9  C   UNL     1       5.326   3.327  13.804  0.00  0.00    +0.000 A 
ATOM     10  C   UNL     1       5.714   3.424  12.470  0.00  0.00    +0.000 A 
ATOM     11  C   UNL     1       5.011   2.636  11.406  0.00  0.00    +0.000 C 
ATOM     12  C   UNL     1       6.775   4.265  12.154  0.00  0.00    +0.000 A 
ATOM     13  C   UNL     1       7.422   5.017  13.155  0.00  0.00    +0.000 A 
ATOM     14  C   UNL     1       8.588   5.889  12.762  0.00  0.00    +0.000 C 
ATOM     15  C   UNL     1       7.008   4.956  14.497  0.00  0.00    +0.000 A 
ATOM     16  N   UNL     1       7.606   5.702  15.441  0.00  0.00    +0.000 NA
ATOM     17  H   UNL     1       8.652   6.755  17.205  0.00  0.00    +0.000 HD
ATOM     18  H   UNL     1       3.744   3.316  16.017  0.00  0.00    +0.000 HD
ENDBRANCH   1   7
BRANCH   1  19
ATOM     19  C   UNL     1       3.616   4.360  18.374  0.00  0.00    +0.000 A 
ATOM     20  C   UNL     1       2.484   4.807  17.688  0.00  0.00    +0.000 A 
ATOM     21  C   UNL     1       1.896   6.034  18.006  0.00  0.00    +0.000 A 
ATOM     22  C   UNL     1       2.424   6.852  19.009  0.00  0.00    +0.000 A 
ATOM     23  C   UNL     1       3.581   6.428  19.672  0.00  0.00    +0.000 A 
ATOM     24  C   UNL     1       4.166   5.190  19.364  0.00  0.00    +0.000 A 
BRANCH  22  25
ATOM     25  N   UNL     1       1.846   8.095  19.368  0.00  0.00    +0.000 N 
ATOM     26  C   UNL     1       1.230   8.360  20.582  0.00  0.00    +0.000 C 
ATOM     27  O   UNL     1       1.171   7.574  21.529  0.00  0.00    +0.000 OA
ATOM     28  H   UNL     1       1.967   8.861  18.715  0.00  0.00    +0.000 HD
BRANCH  26  29
ATOM     29  C   UNL     1       0.611   9.695  20.793  0.00  0.00    +0.000 A 
ATOM     30  C   UNL     1       0.929  10.710  19.871  0.00  0.00    +0.000 A 
ATOM     31  C   UNL     1       0.426  12.003  20.023  0.00  0.00    +0.000 A 
ATOM     32  C   UNL     1      -0.402  12.293  21.102  0.00  0.00    +0.000 A 
ATOM     33 CL   UNL     1      -0.999  13.893  21.307  0.00  0.00    +0.000 Cl
ATOM     34  C   UNL     1      -0.743  11.298  22.018  0.00  0.00    +0.000 A 
ATOM     35  C   UNL     1      -0.237  10.007  21.856  0.00  0.00    +0.000 A 
ATOM     36  F   UNL     1      -0.588   9.072  22.754  0.00  0.00    +0.000 F 
ENDBRANCH  26  29
ENDBRANCH  22  25
ENDBRANCH   1  19
TORSDOF 4
ENDMDL
MODEL 5
REMARK VINA RESULT:      -9.3      1.175      1.247
REMARK  Name = 
REMARK  7 active torsions:
REMARK  status: ('A' for Active; 'I' for Inactive)
REMARK    1  A    between atoms: C_1  and  N_2
REMARK    2  A    between atoms: N_6  and  C_7
REMARK    3  A    between atoms: C_7  and  C_8
REMARK    4  A    between atoms: C_11  and  N_12
REMARK    5  A    between atoms: C_13  and  C_15
REMARK    6  A    between atoms: C_27  and  C_28
REMARK    7  A    between atoms: C_30  and  C_31
REMARK                            x       y       z     vdW  Elec       q    Type
REMARK                         _______ _______ _______ _____ _____    ______ ____
ROOT
ATOM      1  C   UNL     1       4.360   3.044  18.009  0.00  0.00    +0.000 C 
ENDROOT
BRANCH   1   7
ATOM      2  C   UNL     1       7.831   6.077  18.954  0.00  0.00    +0.000 C 
ATOM      3  N   UNL     1       7.771   6.531  17.584  0.00  0.00    +0.000 N 
ATOM      4  C   UNL     1       7.190   5.644  16.688  0.00  0.00    +0.000 A 
ATOM      5  N   UNL     1       6.243   4.798  17.105  0.00  0.00    +0.000 NA
ATOM      6  C   UNL     1       5.650   4.026  16.185  0.00  0.00    +0.000 A 
ATOM      7  N   UNL     1       4.660   3.110  16.589  0.00  0.00    +0.000 N 
ATOM      8  C   UNL     1       6.008   4.074  14.827  0.00  0.00    +0.000 A 
ATOM      9  C   UNL     1       5.395   3.281  13.827  0.00  0.00    +0.000 A 
ATOM     10  C   UNL     1       5.778   3.368  12.491  0.00  0.00    +0.000 A 
ATOM     11  C   UNL     1       5.091   2.549  11.440  0.00  0.00    +0.000 C 
ATOM     12  C   UNL     1       6.819   4.230  12.161  0.00  0.00    +0.000 A 
ATOM     13  C   UNL     1       7.450   5.010  13.149  0.00  0.00    +0.000 A 
ATOM     14  C   UNL     1       8.595   5.903  12.742  0.00  0.00    +0.000 C 
ATOM     15  C   UNL     1       7.040   4.958  14.493  0.00  0.00    +0.000 A 
ATOM     16  N   UNL     1       7.622   5.731  15.425  0.00  0.00    +0.000 NA
ATOM     17  H   UNL     1       8.647   6.833  17.172  0.00  0.00    +0.000 HD
ATOM     18  H   UNL     1       3.818   3.264  16.044  0.00  0.00    +0.000 HD
ENDBRANCH   1   7
BRANCH   1  19
ATOM     19  C   UNL     1       3.694   4.348  18.391  0.00  0.00    +0.000 A 
ATOM     20  C   UNL     1       2.533   4.761  17.732  0.00  0.00    +0.000 A 
ATOM     21  C   UNL     1       1.937   5.987  18.038  0.00  0.00    +0.000 A 
ATOM     22  C   UNL     1       2.484   6.837  19.002  0.00  0.00    +0.000 A 
ATOM     23  C   UNL     1       3.669   6.447  19.637  0.00  0.00    +0.000 A 
ATOM     24  C   UNL     1       4.263   5.210  19.342  0.00  0.00    +0.000 A 
BRANCH  22  25
ATOM     25  N   UNL     1       1.900   8.081  19.349  0.00  0.00    +0.000 N 
ATOM     26  C   UNL     1       1.235   8.338  20.539  0.00  0.00    +0.000 C 
ATOM     27  O   UNL     1       1.132   7.544  21.475  0.00  0.00    +0.000 OA
ATOM     28  H   UNL     1       2.053   8.852  18.710  0.00  0.00    +0.000 HD
BRANCH  26  29
ATOM     29  C   UNL     1       0.616   9.676  20.737  0.00  0.00    +0.000 A 
ATOM     30  C   UNL     1       0.067   9.953  22.004  0.00  0.00    +0.000 A 
ATOM     31  C   UNL     1      -0.572  11.168  22.260  0.00  0.00    +0.000 A 
ATOM     32  C   UNL     1      -0.668  12.118  21.248  0.00  0.00    +0.000 A 
ATOM     33 CL   UNL     1      -1.480  13.602  21.554  0.00  0.00    +0.000 Cl
ATOM     34  C   UNL     1      -0.116  11.869  19.992  0.00  0.00    +0.000 A 
ATOM     35  C   UNL     1       0.523  10.652  19.746  0.00  0.00    +0.000 A 
ATOM     36  F   UNL     1       1.046  10.447  18.526  0.00  0.00    +0.000 F 
ENDBRANCH  26  29
ENDBRANCH  22  25
ENDBRANCH   1  19
TORSDOF 4
ENDMDL
MODEL 6
REMARK VINA RESULT:      -9.3      0.876      1.211
REMARK  Name = 
REMARK  7 active torsions:
REMARK  status: ('A' for Active; 'I' for Inactive)
REMARK    1  A    between atoms: C_1  and  N_2
REMARK    2  A    between atoms: N_6  and  C_7
REMARK    3  A    between atoms: C_7  and  C_8
REMARK    4  A    between atoms: C_11  and  N_12
REMARK    5  A    between atoms: C_13  and  C_15
REMARK    6  A    between atoms: C_27  and  C_28
REMARK    7  A    between atoms: C_30  and  C_31
REMARK                            x       y       z     vdW  Elec       q    Type
REMARK                         _______ _______ _______ _____ _____    ______ ____
ROOT
ATOM      1  C   UNL     1       4.350   3.196  18.126  0.00  0.00    +0.000 C 
ENDROOT
BRANCH   1   7
ATOM      2  C   UNL     1       7.887   6.200  18.899  0.00  0.00    +0.000 C 
ATOM      3  N   UNL     1       7.795   6.623  17.521  0.00  0.00    +0.000 N 
ATOM      4  C   UNL     1       7.176   5.723  16.663  0.00  0.00    +0.000 A 
ATOM      5  N   UNL     1       6.230   4.900  17.127  0.00  0.00    +0.000 NA
ATOM      6  C   UNL     1       5.600   4.115  16.244  0.00  0.00    +0.000 A 
ATOM      7  N   UNL     1       4.610   3.224  16.697  0.00  0.00    +0.000 N 
ATOM      8  C   UNL     1       5.920   4.127  14.875  0.00  0.00    +0.000 A 
ATOM      9  C   UNL     1       5.268   3.319  13.912  0.00  0.00    +0.000 A 
ATOM     10  C   UNL     1       5.613   3.369  12.564  0.00  0.00    +0.000 A 
ATOM     11  C   UNL     1       4.885   2.536  11.553  0.00  0.00    +0.000 C 
ATOM     12  C   UNL     1       6.656   4.208  12.184  0.00  0.00    +0.000 A 
ATOM     13  C   UNL     1       7.325   5.002  13.135  0.00  0.00    +0.000 A 
ATOM     14  C   UNL     1       8.470   5.869  12.674  0.00  0.00    +0.000 C 
ATOM     15  C   UNL     1       6.954   4.988  14.491  0.00  0.00    +0.000 A 
ATOM     16  N   UNL     1       7.573   5.774  15.387  0.00  0.00    +0.000 NA
ATOM     17  H   UNL     1       8.662   6.902  17.077  0.00  0.00    +0.000 HD
ATOM     18  H   UNL     1       3.755   3.377  16.172  0.00  0.00    +0.000 HD
ENDBRANCH   1   7
BRANCH   1  19
ATOM     19  C   UNL     1       3.641   4.485  18.482  0.00  0.00    +0.000 A 
ATOM     20  C   UNL     1       2.786   5.092  17.557  0.00  0.00    +0.000 A 
ATOM     21  C   UNL     1       2.167   6.309  17.853  0.00  0.00    +0.000 A 
ATOM     22  C   UNL     1       2.386   6.957  19.071  0.00  0.00    +0.000 A 
ATOM     23  C   UNL     1       3.271   6.373  19.985  0.00  0.00    +0.000 A 
ATOM     24  C   UNL     1       3.885   5.144  19.697  0.00  0.00    +0.000 A 
BRANCH  22  25
ATOM     25  N   UNL     1       1.764   8.184  19.410  0.00  0.00    +0.000 N 
ATOM     26  C   UNL     1       1.610   9.258  18.547  0.00  0.00    +0.000 C 
ATOM     27  O   UNL     1       1.928   9.257  17.356  0.00  0.00    +0.000 OA
ATOM     28  H   UNL     1       1.333   8.241  20.326  0.00  0.00    +0.000 HD
BRANCH  26  29
ATOM     29  C   UNL     1       0.992  10.509  19.063  0.00  0.00    +0.000 A 
ATOM     30  C   UNL     1       1.616  11.725  18.728  0.00  0.00    +0.000 A 
ATOM     31  C   UNL     1       1.125  12.941  19.208  0.00  0.00    +0.000 A 
ATOM     32  C   UNL     1       0.003  12.949  20.030  0.00  0.00    +0.000 A 
ATOM     33 CL   UNL     1      -0.585  14.443  20.646  0.00  0.00    +0.000 Cl
ATOM     34  C   UNL     1      -0.639  11.756  20.360  0.00  0.00    +0.000 A 
ATOM     35  C   UNL     1      -0.143  10.546  19.873  0.00  0.00    +0.000 A 
ATOM     36  F   UNL     1      -0.787   9.416  20.207  0.00  0.00    +0.000 F 
ENDBRANCH  26  29
ENDBRANCH  22  25
ENDBRANCH   1  19
TORSDOF 4
ENDMDL
MODEL 7
REMARK VINA RESULT:      -9.1      5.091     11.554
REMARK  Name = 
REMARK  7 active torsions:
REMARK  status: ('A' for Active; 'I' for Inactive)
REMARK    1  A    between atoms: C_1  and  N_2
REMARK    2  A    between atoms: N_6  and  C_7
REMARK    3  A    between atoms: C_7  and  C_8
REMARK    4  A    between atoms: C_11  and  N_12
REMARK    5  A    between atoms: C_13  and  C_15
REMARK    6  A    between atoms: C_27  and  C_28
REMARK    7  A    between atoms: C_30  and  C_31
REMARK                            x       y       z     vdW  Elec       q    Type
REMARK                         _______ _______ _______ _____ _____    ______ ____
ROOT
ATOM      1  C   UNL     1      -0.072  11.987  18.675  0.00  0.00    +0.000 C 
ENDROOT
BRANCH   1   7
ATOM      2  C   UNL     1      -3.404  10.851  15.553  0.00  0.00    +0.000 C 
ATOM      3  N   UNL     1      -4.359  11.598  16.340  0.00  0.00    +0.000 N 
ATOM      4  C   UNL     1      -4.005  11.804  17.667  0.00  0.00    +0.000 A 
ATOM      5  N   UNL     1      -2.714  11.887  18.009  0.00  0.00    +0.000 NA
ATOM      6  C   UNL     1      -2.427  12.176  19.284  0.00  0.00    +0.000 A 
ATOM      7  N   UNL     1      -1.080  12.254  19.686  0.00  0.00    +0.000 N 
ATOM      8  C   UNL     1      -3.429  12.370  20.250  0.00  0.00    +0.000 A 
ATOM      9  C   UNL     1      -3.162  12.688  21.604  0.00  0.00    +0.000 A 
ATOM     10  C   UNL     1      -4.189  12.879  22.525  0.00  0.00    +0.000 A 
ATOM     11  C   UNL     1      -3.888  13.253  23.945  0.00  0.00    +0.000 C 
ATOM     12  C   UNL     1      -5.499  12.706  22.092  0.00  0.00    +0.000 A 
ATOM     13  C   UNL     1      -5.778  12.372  20.752  0.00  0.00    +0.000 A 
ATOM     14  C   UNL     1      -7.216  12.165  20.345  0.00  0.00    +0.000 C 
ATOM     15  C   UNL     1      -4.748  12.219  19.808  0.00  0.00    +0.000 A 
ATOM     16  N   UNL     1      -5.023  11.934  18.524  0.00  0.00    +0.000 NA
ATOM     17  H   UNL     1      -5.311  11.250  16.341  0.00  0.00    +0.000 HD
ATOM     18  H   UNL     1      -0.917  13.149  20.138  0.00  0.00    +0.000 HD
ENDBRANCH   1   7
BRANCH   1  19
ATOM     19  C   UNL     1       0.555  10.649  19.004  0.00  0.00    +0.000 A 
ATOM     20  C   UNL     1       0.403  10.100  20.279  0.00  0.00    +0.000 A 
ATOM     21  C   UNL     1       1.020   8.892  20.613  0.00  0.00    +0.000 A 
ATOM     22  C   UNL     1       1.810   8.202  19.689  0.00  0.00    +0.000 A 
ATOM     23  C   UNL     1       1.998   8.768  18.422  0.00  0.00    +0.000 A 
ATOM     24  C   UNL     1       1.369   9.975  18.080  0.00  0.00    +0.000 A 
BRANCH  22  25
ATOM     25  N   UNL     1       2.438   6.968  19.987  0.00  0.00    +0.000 N 
ATOM     26  C   UNL     1       2.434   5.857  19.157  0.00  0.00    +0.000 C 
ATOM     27  O   UNL     1       1.949   5.825  18.025  0.00  0.00    +0.000 OA
ATOM     28  H   UNL     1       2.995   6.930  20.834  0.00  0.00    +0.000 HD
BRANCH  26  29
ATOM     29  C   UNL     1       3.084   4.606  19.632  0.00  0.00    +0.000 A 
ATOM     30  C   UNL     1       4.317   4.256  19.050  0.00  0.00    +0.000 A 
ATOM     31  C   UNL     1       4.972   3.076  19.407  0.00  0.00    +0.000 A 
ATOM     32  C   UNL     1       4.396   2.233  20.352  0.00  0.00    +0.000 A 
ATOM     33 CL   UNL     1       5.185   0.765  20.771  0.00  0.00    +0.000 Cl
ATOM     34  C   UNL     1       3.182   2.570  20.952  0.00  0.00    +0.000 A 
ATOM     35  C   UNL     1       2.537   3.753  20.590  0.00  0.00    +0.000 A 
ATOM     36  F   UNL     1       1.372   4.049  21.189  0.00  0.00    +0.000 F 
ENDBRANCH  26  29
ENDBRANCH  22  25
ENDBRANCH   1  19
TORSDOF 4
ENDMDL
MODEL 8
REMARK VINA RESULT:      -9.0      2.872      5.140
REMARK  Name = 
REMARK  7 active torsions:
REMARK  status: ('A' for Active; 'I' for Inactive)
REMARK    1  A    between atoms: C_1  and  N_2
REMARK    2  A    between atoms: N_6  and  C_7
REMARK    3  A    between atoms: C_7  and  C_8
REMARK    4  A    between atoms: C_11  and  N_12
REMARK    5  A    between atoms: C_13  and  C_15
REMARK    6  A    between atoms: C_27  and  C_28
REMARK    7  A    between atoms: C_30  and  C_31
REMARK                            x       y       z     vdW  Elec       q    Type
REMARK                         _______ _______ _______ _____ _____    ______ ____
ROOT
ATOM      1  C   UNL     1       2.062   6.262  20.740  0.00  0.00    +0.000 C 
ENDROOT
BRANCH   1   7
ATOM      2  C   UNL     1       0.824   2.310  18.507  0.00  0.00    +0.000 C 
ATOM      3  N   UNL     1       2.195   2.152  18.081  0.00  0.00    +0.000 N 
ATOM      4  C   UNL     1       2.959   3.312  18.093  0.00  0.00    +0.000 A 
ATOM      5  N   UNL     1       2.687   4.282  18.973  0.00  0.00    +0.000 NA
ATOM      6  C   UNL     1       3.508   5.340  19.005  0.00  0.00    +0.000 A 
ATOM      7  N   UNL     1       3.244   6.388  19.906  0.00  0.00    +0.000 N 
ATOM      8  C   UNL     1       4.610   5.456  18.140  0.00  0.00    +0.000 A 
ATOM      9  C   UNL     1       5.504   6.554  18.154  0.00  0.00    +0.000 A 
ATOM     10  C   UNL     1       6.588   6.623  17.283  0.00  0.00    +0.000 A 
ATOM     11  C   UNL     1       7.546   7.774  17.338  0.00  0.00    +0.000 C 
ATOM     12  C   UNL     1       6.752   5.598  16.356  0.00  0.00    +0.000 A 
ATOM     13  C   UNL     1       5.859   4.510  16.320  0.00  0.00    +0.000 A 
ATOM     14  C   UNL     1       6.065   3.443  15.273  0.00  0.00    +0.000 C 
ATOM     15  C   UNL     1       4.787   4.413  17.224  0.00  0.00    +0.000 A 
ATOM     16  N   UNL     1       3.959   3.355  17.207  0.00  0.00    +0.000 NA
ATOM     17  H   UNL     1       2.337   1.717  17.177  0.00  0.00    +0.000 HD
ATOM     18  H   UNL     1       4.072   6.563  20.467  0.00  0.00    +0.000 HD
ENDBRANCH   1   7
BRANCH   1  19
ATOM     19  C   UNL     1       1.327   7.584  20.686  0.00  0.00    +0.000 A 
ATOM     20  C   UNL     1       0.339   7.874  21.631  0.00  0.00    +0.000 A 
ATOM     21  C   UNL     1      -0.384   9.068  21.561  0.00  0.00    +0.000 A 
ATOM     22  C   UNL     1      -0.148  10.000  20.548  0.00  0.00    +0.000 A 
ATOM     23  C   UNL     1       0.813   9.696  19.576  0.00  0.00    +0.000 A 
ATOM     24  C   UNL     1       1.550   8.504  19.650  0.00  0.00    +0.000 A 
BRANCH  22  25
ATOM     25  N   UNL     1      -0.851  11.227  20.455  0.00  0.00    +0.000 N 
ATOM     26  C   UNL     1      -0.557  12.365  21.190  0.00  0.00    +0.000 C 
ATOM     27  O   UNL     1       0.397  12.479  21.962  0.00  0.00    +0.000 OA
ATOM     28  H   UNL     1      -1.567  11.291  19.740  0.00  0.00    +0.000 HD
BRANCH  26  29
ATOM     29  C   UNL     1      -1.424  13.563  21.033  0.00  0.00    +0.000 A 
ATOM     30  C   UNL     1      -0.841  14.715  20.472  0.00  0.00    +0.000 A 
ATOM     31  C   UNL     1      -1.573  15.896  20.331  0.00  0.00    +0.000 A 
ATOM     32  C   UNL     1      -2.899  15.933  20.750  0.00  0.00    +0.000 A 
ATOM     33 CL   UNL     1      -3.793  17.394  20.603  0.00  0.00    +0.000 Cl
ATOM     34  C   UNL     1      -3.500  14.798  21.292  0.00  0.00    +0.000 A 
ATOM     35  C   UNL     1      -2.761  13.622  21.428  0.00  0.00    +0.000 A 
ATOM     36  F   UNL     1      -3.371  12.546  21.950  0.00  0.00    +0.000 F 
ENDBRANCH  26  29
ENDBRANCH  22  25
ENDBRANCH   1  19
TORSDOF 4
ENDMDL
MODEL 9
REMARK VINA RESULT:      -9.0      2.862      5.132
REMARK  Name = 
REMARK  7 active torsions:
REMARK  status: ('A' for Active; 'I' for Inactive)
REMARK    1  A    between atoms: C_1  and  N_2
REMARK    2  A    between atoms: N_6  and  C_7
REMARK    3  A    between atoms: C_7  and  C_8
REMARK    4  A    between atoms: C_11  and  N_12
REMARK    5  A    between atoms: C_13  and  C_15
REMARK    6  A    between atoms: C_27  and  C_28
REMARK    7  A    between atoms: C_30  and  C_31
REMARK                            x       y       z     vdW  Elec       q    Type
REMARK                         _______ _______ _______ _____ _____    ______ ____
ROOT
ATOM      1  C   UNL     1       1.960   6.338  20.635  0.00  0.00    +0.000 C 
ENDROOT
BRANCH   1   7
ATOM      2  C   UNL     1       0.840   2.313  18.469  0.00  0.00    +0.000 C 
ATOM      3  N   UNL     1       2.223   2.170  18.077  0.00  0.00    +0.000 N 
ATOM      4  C   UNL     1       2.966   3.343  18.078  0.00  0.00    +0.000 A 
ATOM      5  N   UNL     1       2.658   4.328  18.929  0.00  0.00    +0.000 NA
ATOM      6  C   UNL     1       3.459   5.401  18.953  0.00  0.00    +0.000 A 
ATOM      7  N   UNL     1       3.158   6.466  19.824  0.00  0.00    +0.000 N 
ATOM      8  C   UNL     1       4.578   5.517  18.110  0.00  0.00    +0.000 A 
ATOM      9  C   UNL     1       5.452   6.631  18.118  0.00  0.00    +0.000 A 
ATOM     10  C   UNL     1       6.554   6.699  17.269  0.00  0.00    +0.000 A 
ATOM     11  C   UNL     1       7.490   7.868  17.318  0.00  0.00    +0.000 C 
ATOM     12  C   UNL     1       6.756   5.656  16.370  0.00  0.00    +0.000 A 
ATOM     13  C   UNL     1       5.883   4.551  16.340  0.00  0.00    +0.000 A 
ATOM     14  C   UNL     1       6.131   3.464  15.324  0.00  0.00    +0.000 C 
ATOM     15  C   UNL     1       4.793   4.457  17.223  0.00  0.00    +0.000 A 
ATOM     16  N   UNL     1       3.985   3.384  17.213  0.00  0.00    +0.000 NA
ATOM     17  H   UNL     1       2.393   1.717  17.186  0.00  0.00    +0.000 HD
ATOM     18  H   UNL     1       3.970   6.668  20.399  0.00  0.00    +0.000 HD
ENDBRANCH   1   7
BRANCH   1  19
ATOM     19  C   UNL     1       1.309   7.702  20.699  0.00  0.00    +0.000 A 
ATOM     20  C   UNL     1       1.466   8.603  19.642  0.00  0.00    +0.000 A 
ATOM     21  C   UNL     1       0.915   9.885  19.711  0.00  0.00    +0.000 A 
ATOM     22  C   UNL     1       0.200  10.307  20.835  0.00  0.00    +0.000 A 
ATOM     23  C   UNL     1       0.073   9.423  21.913  0.00  0.00    +0.000 A 
ATOM     24  C   UNL     1       0.614   8.130  21.841  0.00  0.00    +0.000 A 
BRANCH  22  25
ATOM     25  N   UNL     1      -0.385  11.594  20.933  0.00  0.00    +0.000 N 
ATOM     26  C   UNL     1       0.316  12.765  21.177  0.00  0.00    +0.000 C 
ATOM     27  O   UNL     1       1.542  12.847  21.265  0.00  0.00    +0.000 OA
ATOM     28  H   UNL     1      -1.376  11.663  20.730  0.00  0.00    +0.000 HD
BRANCH  26  29
ATOM     29  C   UNL     1      -0.442  14.037  21.317  0.00  0.00    +0.000 A 
ATOM     30  C   UNL     1      -0.587  14.834  20.166  0.00  0.00    +0.000 A 
ATOM     31  C   UNL     1      -1.245  16.064  20.221  0.00  0.00    +0.000 A 
ATOM     32  C   UNL     1      -1.766  16.508  21.432  0.00  0.00    +0.000 A 
ATOM     33 CL   UNL     1      -2.552  18.035  21.508  0.00  0.00    +0.000 Cl
ATOM     34  C   UNL     1      -1.647  15.725  22.581  0.00  0.00    +0.000 A 
ATOM     35  C   UNL     1      -0.989  14.496  22.515  0.00  0.00    +0.000 A 
ATOM     36  F   UNL     1      -0.896  13.766  23.638  0.00  0.00    +0.000 F 
ENDBRANCH  26  29
ENDBRANCH  22  25
ENDBRANCH   1  19
TORSDOF 4
ENDMDL
