MODEL 1
REMARK VINA RESULT:      -7.4      0.000      0.000
REMARK  Name = 
REMARK  6 active torsions:
REMARK  status: ('A' for Active; 'I' for Inactive)
REMARK    1  A    between atoms: C_2  and  C_12
REMARK    2  A    between atoms: N_3  and  C_4
REMARK    3  A    between atoms: C_4  and  C_5
REMARK    4  A    between atoms: C_5  and  C_6
REMARK    5  A    between atoms: C_6  and  N_7
REMARK    6  A    between atoms: C_16  and  C_17
REMARK                            x       y       z     vdW  Elec       q    Type
REMARK                         _______ _______ _______ _____ _____    ______ ____
ROOT
ATOM      1  O   UNL     1       3.204   7.260  17.756  0.00  0.00    +0.000 OA
ATOM      2  C   UNL     1       3.679   6.167  18.036  0.00  0.00    +0.000 C 
ATOM      3  N   UNL     1       5.025   5.979  17.917  0.00  0.00    +0.000 N 
ATOM      4  H   UNL     1       5.443   5.067  18.140  0.00  0.00    +0.000 HD
ENDROOT
BRANCH   2   5
ATOM      5  C   UNL     1       2.754   5.074  18.492  0.00  0.00    +0.000 A 
ATOM      6  C   UNL     1       1.779   4.499  17.645  0.00  0.00    +0.000 A 
ATOM      7  C   UNL     1       0.938   3.487  18.109  0.00  0.00    +0.000 A 
ATOM      8  C   UNL     1       1.046   3.023  19.418  0.00  0.00    +0.000 A 
ATOM      9  C   UNL     1       2.007   3.569  20.284  0.00  0.00    +0.000 A 
ATOM     10  C   UNL     1       2.851   4.590  19.815  0.00  0.00    +0.000 A 
BRANCH   9  11
ATOM     11  C   UNL     1       2.152   3.079  21.704  0.00  0.00    +0.000 C 
ATOM     12  F   UNL     1       2.439   4.114  22.576  0.00  0.00    +0.000 F 
ATOM     13  F   UNL     1       0.972   2.480  22.105  0.00  0.00    +0.000 F 
ATOM     14  F   UNL     1       3.175   2.150  21.770  0.00  0.00    +0.000 F 
ENDBRANCH   9  11
ENDBRANCH   2   5
BRANCH   3  15
ATOM     15  C   UNL     1       5.915   7.032  17.462  0.00  0.00    +0.000 C 
BRANCH  15  16
ATOM     16  C   UNL     1       7.338   6.488  17.288  0.00  0.00    +0.000 C 
BRANCH  16  17
ATOM     17  C   UNL     1       7.349   4.978  17.054  0.00  0.00    +0.000 C 
BRANCH  17  18
ATOM     18  N   UNL     1       7.058   4.694  15.651  0.00  0.00    +0.000 N 
ATOM     19  C   UNL     1       6.166   3.808  15.174  0.00  0.00    +0.000 A 
ATOM     20  N   UNL     1       6.158   3.825  13.829  0.00  0.00    +0.000 NA
ATOM     21  C   UNL     1       7.083   4.759  13.522  0.00  0.00    +0.000 A 
ATOM     22  N   UNL     1       7.639   5.293  14.628  0.00  0.00    +0.000 NA
ENDBRANCH  17  18
ENDBRANCH  16  17
ENDBRANCH  15  16
ENDBRANCH   3  15
TORSDOF 6
ENDMDL
MODEL 2
REMARK VINA RESULT:      -7.4      4.275      6.383
REMARK  Name = 
REMARK  6 active torsions:
REMARK  status: ('A' for Active; 'I' for Inactive)
REMARK    1  A    between atoms: C_2  and  C_12
REMARK    2  A    between atoms: N_3  and  C_4
REMARK    3  A    between atoms: C_4  and  C_5
REMARK    4  A    between atoms: C_5  and  C_6
REMARK    5  A    between atoms: C_6  and  N_7
REMARK    6  A    between atoms: C_16  and  C_17
REMARK                            x       y       z     vdW  Elec       q    Type
REMARK                         _______ _______ _______ _____ _____    ______ ____
ROOT
ATOM      1  O   UNL     1       2.592   6.009  18.027  0.00  0.00    +0.000 OA
ATOM      2  C   UNL     1       3.474   5.618  18.782  0.00  0.00    +0.000 C 
ATOM      3  N   UNL     1       3.184   5.438  20.103  0.00  0.00    +0.000 N 
ATOM      4  H   UNL     1       3.911   5.118  20.755  0.00  0.00    +0.000 HD
ENDROOT
BRANCH   2   5
ATOM      5  C   UNL     1       4.844   5.360  18.219  0.00  0.00    +0.000 A 
ATOM      6  C   UNL     1       6.008   5.361  19.020  0.00  0.00    +0.000 A 
ATOM      7  C   UNL     1       7.261   5.119  18.457  0.00  0.00    +0.000 A 
ATOM      8  C   UNL     1       7.386   4.870  17.093  0.00  0.00    +0.000 A 
ATOM      9  C   UNL     1       6.250   4.857  16.269  0.00  0.00    +0.000 A 
ATOM     10  C   UNL     1       4.989   5.105  16.838  0.00  0.00    +0.000 A 
BRANCH   9  11
ATOM     11  C   UNL     1       6.356   4.582  14.790  0.00  0.00    +0.000 C 
ATOM     12  F   UNL     1       6.373   3.224  14.520  0.00  0.00    +0.000 F 
ATOM     13  F   UNL     1       5.274   5.146  14.139  0.00  0.00    +0.000 F 
ATOM     14  F   UNL     1       7.521   5.143  14.297  0.00  0.00    +0.000 F 
ENDBRANCH   9  11
ENDBRANCH   2   5
BRANCH   3  15
ATOM     15  C   UNL     1       1.864   5.702  20.647  0.00  0.00    +0.000 C 
BRANCH  15  16
ATOM     16  C   UNL     1       0.988   4.448  20.551  0.00  0.00    +0.000 C 
BRANCH  16  17
ATOM     17  C   UNL     1       1.652   3.233  21.198  0.00  0.00    +0.000 C 
BRANCH  17  18
ATOM     18  N   UNL     1       2.539   2.586  20.236  0.00  0.00    +0.000 N 
ATOM     19  C   UNL     1       2.199   2.067  19.043  0.00  0.00    +0.000 A 
ATOM     20  N   UNL     1       3.279   1.563  18.421  0.00  0.00    +0.000 NA
ATOM     21  C   UNL     1       4.282   1.801  19.294  0.00  0.00    +0.000 A 
ATOM     22  N   UNL     1       3.839   2.423  20.404  0.00  0.00    +0.000 NA
ENDBRANCH  17  18
ENDBRANCH  16  17
ENDBRANCH  15  16
ENDBRANCH   3  15
TORSDOF 6
ENDMDL
MODEL 3
REMARK VINA RESULT:      -7.4      1.599      2.150
REMARK  Name = 
REMARK  6 active torsions:
REMARK  status: ('A' for Active; 'I' for Inactive)
REMARK    1  A    between atoms: C_2  and  C_12
REMARK    2  A    between atoms: N_3  and  C_4
REMARK    3  A    between atoms: C_4  and  C_5
REMARK    4  A    between atoms: C_5  and  C_6
REMARK    5  A    between atoms: C_6  and  N_7
REMARK    6  A    between atoms: C_16  and  C_17
REMARK                            x       y       z     vdW  Elec       q    Type
REMARK                         _______ _______ _______ _____ _____    ______ ____
ROOT
ATOM      1  O   UNL     1       3.355   7.627  17.489  0.00  0.00    +0.000 OA
ATOM      2  C   UNL     1       3.803   6.669  18.106  0.00  0.00    +0.000 C 
ATOM      3  N   UNL     1       5.141   6.412  18.050  0.00  0.00    +0.000 N 
ATOM      4  H   UNL     1       5.537   5.608  18.555  0.00  0.00    +0.000 HD
ENDROOT
BRANCH   2   5
ATOM      5  C   UNL     1       2.853   5.809  18.893  0.00  0.00    +0.000 A 
ATOM      6  C   UNL     1       2.206   6.265  20.064  0.00  0.00    +0.000 A 
ATOM      7  C   UNL     1       1.334   5.433  20.766  0.00  0.00    +0.000 A 
ATOM      8  C   UNL     1       1.083   4.138  20.323  0.00  0.00    +0.000 A 
ATOM      9  C   UNL     1       1.704   3.655  19.161  0.00  0.00    +0.000 A 
ATOM     10  C   UNL     1       2.586   4.493  18.457  0.00  0.00    +0.000 A 
BRANCH   9  11
ATOM     11  C   UNL     1       1.444   2.258  18.654  0.00  0.00    +0.000 C 
ATOM     12  F   UNL     1       2.145   1.996  17.489  0.00  0.00    +0.000 F 
ATOM     13  F   UNL     1       1.829   1.341  19.615  0.00  0.00    +0.000 F 
ATOM     14  F   UNL     1       0.093   2.104  18.399  0.00  0.00    +0.000 F 
ENDBRANCH   9  11
ENDBRANCH   2   5
BRANCH   3  15
ATOM     15  C   UNL     1       6.055   7.235  17.277  0.00  0.00    +0.000 C 
BRANCH  15  16
ATOM     16  C   UNL     1       7.424   6.552  17.169  0.00  0.00    +0.000 C 
BRANCH  16  17
ATOM     17  C   UNL     1       7.298   5.038  17.009  0.00  0.00    +0.000 C 
BRANCH  17  18
ATOM     18  N   UNL     1       7.023   4.712  15.612  0.00  0.00    +0.000 N 
ATOM     19  C   UNL     1       6.183   3.767  15.152  0.00  0.00    +0.000 A 
ATOM     20  N   UNL     1       6.174   3.758  13.807  0.00  0.00    +0.000 NA
ATOM     21  C   UNL     1       7.044   4.737  13.481  0.00  0.00    +0.000 A 
ATOM     22  N   UNL     1       7.569   5.323  14.576  0.00  0.00    +0.000 NA
ENDBRANCH  17  18
ENDBRANCH  16  17
ENDBRANCH  15  16
ENDBRANCH   3  15
TORSDOF 6
ENDMDL
MODEL 4
REMARK VINA RESULT:      -7.3      3.755      5.832
REMARK  Name = 
REMARK  6 active torsions:
REMARK  status: ('A' for Active; 'I' for Inactive)
REMARK    1  A    between atoms: C_2  and  C_12
REMARK    2  A    between atoms: N_3  and  C_4
REMARK    3  A    between atoms: C_4  and  C_5
REMARK    4  A    between atoms: C_5  and  C_6
REMARK    5  A    between atoms: C_6  and  N_7
REMARK    6  A    between atoms: C_16  and  C_17
REMARK                            x       y       z     vdW  Elec       q    Type
REMARK                         _______ _______ _______ _____ _____    ______ ____
ROOT
ATOM      1  O   UNL     1       4.062   5.550  19.671  0.00  0.00    +0.000 OA
ATOM      2  C   UNL     1       3.449   5.953  18.690  0.00  0.00    +0.000 C 
ATOM      3  N   UNL     1       3.518   5.243  17.528  0.00  0.00    +0.000 N 
ATOM      4  H   UNL     1       3.018   5.567  16.691  0.00  0.00    +0.000 HD
ENDROOT
BRANCH   2   5
ATOM      5  C   UNL     1       2.652   7.221  18.809  0.00  0.00    +0.000 A 
ATOM      6  C   UNL     1       2.542   8.153  17.752  0.00  0.00    +0.000 A 
ATOM      7  C   UNL     1       1.793   9.320  17.904  0.00  0.00    +0.000 A 
ATOM      8  C   UNL     1       1.137   9.587  19.103  0.00  0.00    +0.000 A 
ATOM      9  C   UNL     1       1.221   8.681  20.172  0.00  0.00    +0.000 A 
ATOM     10  C   UNL     1       1.979   7.507  20.016  0.00  0.00    +0.000 A 
BRANCH   9  11
ATOM     11  C   UNL     1       0.514   8.940  21.478  0.00  0.00    +0.000 C 
ATOM     12  F   UNL     1       1.357   8.763  22.562  0.00  0.00    +0.000 F 
ATOM     13  F   UNL     1       0.042  10.240  21.495  0.00  0.00    +0.000 F 
ATOM     14  F   UNL     1      -0.555   8.071  21.606  0.00  0.00    +0.000 F 
ENDBRANCH   9  11
ENDBRANCH   2   5
BRANCH   3  15
ATOM     15  C   UNL     1       4.302   4.025  17.411  0.00  0.00    +0.000 C 
BRANCH  15  16
ATOM     16  C   UNL     1       3.403   2.795  17.589  0.00  0.00    +0.000 C 
BRANCH  16  17
ATOM     17  C   UNL     1       3.701   2.051  18.890  0.00  0.00    +0.000 C 
BRANCH  17  18
ATOM     18  N   UNL     1       2.794   2.510  19.938  0.00  0.00    +0.000 N 
ATOM     19  C   UNL     1       3.016   2.493  21.264  0.00  0.00    +0.000 A 
ATOM     20  N   UNL     1       1.963   3.007  21.926  0.00  0.00    +0.000 NA
ATOM     21  C   UNL     1       1.101   3.331  20.939  0.00  0.00    +0.000 A 
ATOM     22  N   UNL     1       1.599   3.030  19.723  0.00  0.00    +0.000 NA
ENDBRANCH  17  18
ENDBRANCH  16  17
ENDBRANCH  15  16
ENDBRANCH   3  15
TORSDOF 6
ENDMDL
MODEL 5
REMARK VINA RESULT:      -7.3      3.783      5.787
REMARK  Name = 
REMARK  6 active torsions:
REMARK  status: ('A' for Active; 'I' for Inactive)
REMARK    1  A    between atoms: C_2  and  C_12
REMARK    2  A    between atoms: N_3  and  C_4
REMARK    3  A    between atoms: C_4  and  C_5
REMARK    4  A    between atoms: C_5  and  C_6
REMARK    5  A    between atoms: C_6  and  N_7
REMARK    6  A    between atoms: C_16  and  C_17
REMARK                            x       y       z     vdW  Elec       q    Type
REMARK                         _______ _______ _______ _____ _____    ______ ____
ROOT
ATOM      1  O   UNL     1       3.952   5.637  19.699  0.00  0.00    +0.000 OA
ATOM      2  C   UNL     1       3.360   6.054  18.713  0.00  0.00    +0.000 C 
ATOM      3  N   UNL     1       3.455   5.363  17.541  0.00  0.00    +0.000 N 
ATOM      4  H   UNL     1       2.971   5.699  16.699  0.00  0.00    +0.000 HD
ENDROOT
BRANCH   2   5
ATOM      5  C   UNL     1       2.559   7.320  18.834  0.00  0.00    +0.000 A 
ATOM      6  C   UNL     1       2.442   8.252  17.778  0.00  0.00    +0.000 A 
ATOM      7  C   UNL     1       1.690   9.416  17.933  0.00  0.00    +0.000 A 
ATOM      8  C   UNL     1       1.037   9.680  19.134  0.00  0.00    +0.000 A 
ATOM      9  C   UNL     1       1.127   8.774  20.202  0.00  0.00    +0.000 A 
ATOM     10  C   UNL     1       1.889   7.603  20.044  0.00  0.00    +0.000 A 
BRANCH   9  11
ATOM     11  C   UNL     1       0.423   9.030  21.511  0.00  0.00    +0.000 C 
ATOM     12  F   UNL     1      -0.087  10.316  21.577  0.00  0.00    +0.000 F 
ATOM     13  F   UNL     1      -0.622   8.135  21.654  0.00  0.00    +0.000 F 
ATOM     14  F   UNL     1       1.312   8.855  22.556  0.00  0.00    +0.000 F 
ENDBRANCH   9  11
ENDBRANCH   2   5
BRANCH   3  15
ATOM     15  C   UNL     1       4.242   4.148  17.422  0.00  0.00    +0.000 C 
BRANCH  15  16
ATOM     16  C   UNL     1       3.323   2.922  17.363  0.00  0.00    +0.000 C 
BRANCH  16  17
ATOM     17  C   UNL     1       3.512   2.006  18.572  0.00  0.00    +0.000 C 
BRANCH  17  18
ATOM     18  N   UNL     1       2.703   2.490  19.688  0.00  0.00    +0.000 N 
ATOM     19  C   UNL     1       1.415   2.874  19.646  0.00  0.00    +0.000 A 
ATOM     20  N   UNL     1       0.995   3.249  20.868  0.00  0.00    +0.000 NA
ATOM     21  C   UNL     1       2.087   3.074  21.642  0.00  0.00    +0.000 A 
ATOM     22  N   UNL     1       3.134   2.613  20.930  0.00  0.00    +0.000 NA
ENDBRANCH  17  18
ENDBRANCH  16  17
ENDBRANCH  15  16
ENDBRANCH   3  15
TORSDOF 6
ENDMDL
MODEL 6
REMARK VINA RESULT:      -7.1      4.136      6.356
REMARK  Name = 
REMARK  6 active torsions:
REMARK  status: ('A' for Active; 'I' for Inactive)
REMARK    1  A    between atoms: C_2  and  C_12
REMARK    2  A    between atoms: N_3  and  C_4
REMARK    3  A    between atoms: C_4  and  C_5
REMARK    4  A    between atoms: C_5  and  C_6
REMARK    5  A    between atoms: C_6  and  N_7
REMARK    6  A    between atoms: C_16  and  C_17
REMARK                            x       y       z     vdW  Elec       q    Type
REMARK                         _______ _______ _______ _____ _____    ______ ____
ROOT
ATOM      1  O   UNL     1       2.776   6.442  18.010  0.00  0.00    +0.000 OA
ATOM      2  C   UNL     1       3.610   5.828  18.663  0.00  0.00    +0.000 C 
ATOM      3  N   UNL     1       3.295   5.426  19.928  0.00  0.00    +0.000 N 
ATOM      4  H   UNL     1       3.982   4.915  20.497  0.00  0.00    +0.000 HD
ENDROOT
BRANCH   2   5
ATOM      5  C   UNL     1       4.951   5.552  18.044  0.00  0.00    +0.000 A 
ATOM      6  C   UNL     1       6.158   5.626  18.777  0.00  0.00    +0.000 A 
ATOM      7  C   UNL     1       7.382   5.364  18.163  0.00  0.00    +0.000 A 
ATOM      8  C   UNL     1       7.437   5.021  16.815  0.00  0.00    +0.000 A 
ATOM      9  C   UNL     1       6.258   4.934  16.058  0.00  0.00    +0.000 A 
ATOM     10  C   UNL     1       5.026   5.202  16.678  0.00  0.00    +0.000 A 
BRANCH   9  11
ATOM     11  C   UNL     1       6.288   4.556  14.598  0.00  0.00    +0.000 C 
ATOM     12  F   UNL     1       7.354   5.144  13.938  0.00  0.00    +0.000 F 
ATOM     13  F   UNL     1       6.401   3.183  14.481  0.00  0.00    +0.000 F 
ATOM     14  F   UNL     1       5.114   4.966  13.991  0.00  0.00    +0.000 F 
ENDBRANCH   9  11
ENDBRANCH   2   5
BRANCH   3  15
ATOM     15  C   UNL     1       2.003   5.707  20.530  0.00  0.00    +0.000 C 
BRANCH  15  16
ATOM     16  C   UNL     1       1.309   4.401  20.934  0.00  0.00    +0.000 C 
BRANCH  16  17
ATOM     17  C   UNL     1       0.837   3.603  19.719  0.00  0.00    +0.000 C 
BRANCH  17  18
ATOM     18  N   UNL     1       1.958   2.854  19.156  0.00  0.00    +0.000 N 
ATOM     19  C   UNL     1       2.184   2.592  17.857  0.00  0.00    +0.000 A 
ATOM     20  N   UNL     1       3.320   1.887  17.709  0.00  0.00    +0.000 NA
ATOM     21  C   UNL     1       3.764   1.738  18.975  0.00  0.00    +0.000 A 
ATOM     22  N   UNL     1       2.937   2.323  19.865  0.00  0.00    +0.000 NA
ENDBRANCH  17  18
ENDBRANCH  16  17
ENDBRANCH  15  16
ENDBRANCH   3  15
TORSDOF 6
ENDMDL
MODEL 7
REMARK VINA RESULT:      -7.1      1.630      2.804
REMARK  Name = 
REMARK  6 active torsions:
REMARK  status: ('A' for Active; 'I' for Inactive)
REMARK    1  A    between atoms: C_2  and  C_12
REMARK    2  A    between atoms: N_3  and  C_4
REMARK    3  A    between atoms: C_4  and  C_5
REMARK    4  A    between atoms: C_5  and  C_6
REMARK    5  A    between atoms: C_6  and  N_7
REMARK    6  A    between atoms: C_16  and  C_17
REMARK                            x       y       z     vdW  Elec       q    Type
REMARK                         _______ _______ _______ _____ _____    ______ ____
ROOT
ATOM      1  O   UNL     1       4.367   6.672  16.851  0.00  0.00    +0.000 OA
ATOM      2  C   UNL     1       3.898   5.591  17.183  0.00  0.00    +0.000 C 
ATOM      3  N   UNL     1       4.138   4.496  16.405  0.00  0.00    +0.000 N 
ATOM      4  H   UNL     1       3.749   3.581  16.662  0.00  0.00    +0.000 HD
ENDROOT
BRANCH   2   5
ATOM      5  C   UNL     1       3.069   5.518  18.435  0.00  0.00    +0.000 A 
ATOM      6  C   UNL     1       2.789   6.653  19.230  0.00  0.00    +0.000 A 
ATOM      7  C   UNL     1       2.017   6.541  20.386  0.00  0.00    +0.000 A 
ATOM      8  C   UNL     1       1.505   5.307  20.777  0.00  0.00    +0.000 A 
ATOM      9  C   UNL     1       1.759   4.160  20.008  0.00  0.00    +0.000 A 
ATOM     10  C   UNL     1       2.541   4.275  18.845  0.00  0.00    +0.000 A 
BRANCH   9  11
ATOM     11  C   UNL     1       1.210   2.812  20.403  0.00  0.00    +0.000 C 
ATOM     12  F   UNL     1       0.896   2.761  21.751  0.00  0.00    +0.000 F 
ATOM     13  F   UNL     1       0.064   2.552  19.675  0.00  0.00    +0.000 F 
ATOM     14  F   UNL     1       2.149   1.833  20.132  0.00  0.00    +0.000 F 
ENDBRANCH   9  11
ENDBRANCH   2   5
BRANCH   3  15
ATOM     15  C   UNL     1       4.928   4.572  15.188  0.00  0.00    +0.000 C 
BRANCH  15  16
ATOM     16  C   UNL     1       6.274   3.863  15.382  0.00  0.00    +0.000 C 
BRANCH  16  17
ATOM     17  C   UNL     1       7.444   4.845  15.377  0.00  0.00    +0.000 C 
BRANCH  17  18
ATOM     18  N   UNL     1       7.536   5.509  16.675  0.00  0.00    +0.000 N 
ATOM     19  C   UNL     1       7.525   4.924  17.885  0.00  0.00    +0.000 A 
ATOM     20  N   UNL     1       7.640   5.846  18.857  0.00  0.00    +0.000 NA
ATOM     21  C   UNL     1       7.721   7.010  18.177  0.00  0.00    +0.000 A 
ATOM     22  N   UNL     1       7.656   6.813  16.845  0.00  0.00    +0.000 NA
ENDBRANCH  17  18
ENDBRANCH  16  17
ENDBRANCH  15  16
ENDBRANCH   3  15
TORSDOF 6
ENDMDL
MODEL 8
REMARK VINA RESULT:      -7.0      4.046      6.349
REMARK  Name = 
REMARK  6 active torsions:
REMARK  status: ('A' for Active; 'I' for Inactive)
REMARK    1  A    between atoms: C_2  and  C_12
REMARK    2  A    between atoms: N_3  and  C_4
REMARK    3  A    between atoms: C_4  and  C_5
REMARK    4  A    between atoms: C_5  and  C_6
REMARK    5  A    between atoms: C_6  and  N_7
REMARK    6  A    between atoms: C_16  and  C_17
REMARK                            x       y       z     vdW  Elec       q    Type
REMARK                         _______ _______ _______ _____ _____    ______ ____
ROOT
ATOM      1  O   UNL     1       2.355   6.053  17.886  0.00  0.00    +0.000 OA
ATOM      2  C   UNL     1       3.405   5.900  18.496  0.00  0.00    +0.000 C 
ATOM      3  N   UNL     1       3.366   5.698  19.844  0.00  0.00    +0.000 N 
ATOM      4  H   UNL     1       4.236   5.574  20.377  0.00  0.00    +0.000 HD
ENDROOT
BRANCH   2   5
ATOM      5  C   UNL     1       4.698   5.950  17.730  0.00  0.00    +0.000 A 
ATOM      6  C   UNL     1       5.800   6.730  18.148  0.00  0.00    +0.000 A 
ATOM      7  C   UNL     1       6.982   6.750  17.407  0.00  0.00    +0.000 A 
ATOM      8  C   UNL     1       7.097   5.999  16.240  0.00  0.00    +0.000 A 
ATOM      9  C   UNL     1       6.023   5.210  15.799  0.00  0.00    +0.000 A 
ATOM     10  C   UNL     1       4.833   5.193  16.546  0.00  0.00    +0.000 A 
BRANCH   9  11
ATOM     11  C   UNL     1       6.123   4.379  14.544  0.00  0.00    +0.000 C 
ATOM     12  F   UNL     1       7.232   4.721  13.789  0.00  0.00    +0.000 F 
ATOM     13  F   UNL     1       6.219   3.042  14.885  0.00  0.00    +0.000 F 
ATOM     14  F   UNL     1       4.990   4.568  13.773  0.00  0.00    +0.000 F 
ENDBRANCH   9  11
ENDBRANCH   2   5
BRANCH   3  15
ATOM     15  C   UNL     1       2.116   5.664  20.584  0.00  0.00    +0.000 C 
BRANCH  15  16
ATOM     16  C   UNL     1       1.943   4.306  21.275  0.00  0.00    +0.000 C 
BRANCH  16  17
ATOM     17  C   UNL     1       1.093   3.345  20.444  0.00  0.00    +0.000 C 
BRANCH  17  18
ATOM     18  N   UNL     1       1.894   2.800  19.351  0.00  0.00    +0.000 N 
ATOM     19  C   UNL     1       3.088   2.190  19.448  0.00  0.00    +0.000 A 
ATOM     20  N   UNL     1       3.523   1.806  18.235  0.00  0.00    +0.000 NA
ATOM     21  C   UNL     1       2.538   2.213  17.406  0.00  0.00    +0.000 A 
ATOM     22  N   UNL     1       1.541   2.822  18.078  0.00  0.00    +0.000 NA
ENDBRANCH  17  18
ENDBRANCH  16  17
ENDBRANCH  15  16
ENDBRANCH   3  15
TORSDOF 6
ENDMDL
MODEL 9
REMARK VINA RESULT:      -6.9      3.834      4.869
REMARK  Name = 
REMARK  6 active torsions:
REMARK  status: ('A' for Active; 'I' for Inactive)
REMARK    1  A    between atoms: C_2  and  C_12
REMARK    2  A    between atoms: N_3  and  C_4
REMARK    3  A    between atoms: C_4  and  C_5
REMARK    4  A    between atoms: C_5  and  C_6
REMARK    5  A    between atoms: C_6  and  N_7
REMARK    6  A    between atoms: C_16  and  C_17
REMARK                            x       y       z     vdW  Elec       q    Type
REMARK                         _______ _______ _______ _____ _____    ______ ____
ROOT
ATOM      1  O   UNL     1       6.931   5.108  19.275  0.00  0.00    +0.000 OA
ATOM      2  C   UNL     1       6.151   5.646  18.500  0.00  0.00    +0.000 C 
ATOM      3  N   UNL     1       6.572   6.721  17.773  0.00  0.00    +0.000 N 
ATOM      4  H   UNL     1       5.931   7.191  17.122  0.00  0.00    +0.000 HD
ENDROOT
BRANCH   2   5
ATOM      5  C   UNL     1       4.754   5.101  18.389  0.00  0.00    +0.000 A 
ATOM      6  C   UNL     1       4.278   4.459  17.223  0.00  0.00    +0.000 A 
ATOM      7  C   UNL     1       2.973   3.970  17.161  0.00  0.00    +0.000 A 
ATOM      8  C   UNL     1       2.116   4.104  18.249  0.00  0.00    +0.000 A 
ATOM      9  C   UNL     1       2.557   4.732  19.424  0.00  0.00    +0.000 A 
ATOM     10  C   UNL     1       3.871   5.227  19.483  0.00  0.00    +0.000 A 
BRANCH   9  11
ATOM     11  C   UNL     1       1.652   4.883  20.622  0.00  0.00    +0.000 C 
ATOM     12  F   UNL     1       0.462   4.197  20.455  0.00  0.00    +0.000 F 
ATOM     13  F   UNL     1       2.291   4.390  21.745  0.00  0.00    +0.000 F 
ATOM     14  F   UNL     1       1.365   6.222  20.817  0.00  0.00    +0.000 F 
ENDBRANCH   9  11
ENDBRANCH   2   5
BRANCH   3  15
ATOM     15  C   UNL     1       7.918   7.255  17.893  0.00  0.00    +0.000 C 
BRANCH  15  16
ATOM     16  C   UNL     1       7.899   8.781  17.748  0.00  0.00    +0.000 C 
BRANCH  16  17
ATOM     17  C   UNL     1       8.843   9.462  18.739  0.00  0.00    +0.000 C 
BRANCH  17  18
ATOM     18  N   UNL     1       9.200  10.790  18.245  0.00  0.00    +0.000 N 
ATOM     19  C   UNL     1       8.357  11.755  17.839  0.00  0.00    +0.000 A 
ATOM     20  N   UNL     1       9.041  12.851  17.462  0.00  0.00    +0.000 NA
ATOM     21  C   UNL     1      10.330  12.499  17.659  0.00  0.00    +0.000 A 
ATOM     22  N   UNL     1      10.436  11.242  18.135  0.00  0.00    +0.000 NA
ENDBRANCH  17  18
ENDBRANCH  16  17
ENDBRANCH  15  16
ENDBRANCH   3  15
TORSDOF 6
ENDMDL
