MODEL 1
REMARK VINA RESULT:      -7.3      0.000      0.000
REMARK  Name = 
REMARK  3 active torsions:
REMARK  status: ('A' for Active; 'I' for Inactive)
REMARK    1  A    between atoms: C_1  and  O_2
REMARK    2  A    between atoms: O_2  and  C_3
REMARK    3  A    between atoms: N_10  and  C_11
REMARK                            x       y       z     vdW  Elec       q    Type
REMARK                         _______ _______ _______ _____ _____    ______ ____
ROOT
ATOM      1  C   UNL     1       6.172   6.274  16.625  0.00  0.00    +0.000 A 
ATOM      2  C   UNL     1       6.910   5.219  16.080  0.00  0.00    +0.000 A 
ATOM      3  C   UNL     1       6.348   3.941  15.971  0.00  0.00    +0.000 A 
ATOM      4  C   UNL     1       5.050   3.691  16.418  0.00  0.00    +0.000 A 
ATOM      5  C   UNL     1       4.307   4.727  16.988  0.00  0.00    +0.000 A 
ATOM      6  C   UNL     1       4.869   6.010  17.062  0.00  0.00    +0.000 A 
ATOM      7  C   UNL     1       4.036   7.078  17.646  0.00  0.00    +0.000 C 
ATOM      8  N   UNL     1       3.034   6.805  18.420  0.00  0.00    +0.000 N 
ATOM      9  C   UNL     1       2.623   5.390  18.707  0.00  0.00    +0.000 C 
ATOM     10  C   UNL     1       2.899   4.521  17.475  0.00  0.00    +0.000 C 
ENDROOT
BRANCH   8  11
ATOM     11  C   UNL     1       2.198   7.857  18.902  0.00  0.00    +0.000 A 
ATOM     12  C   UNL     1       1.763   7.891  20.239  0.00  0.00    +0.000 A 
ATOM     13  C   UNL     1       0.937   8.927  20.689  0.00  0.00    +0.000 A 
ATOM     14  C   UNL     1       0.507   9.902  19.798  0.00  0.00    +0.000 A 
ATOM     15  F   UNL     1      -0.312  10.869  20.222  0.00  0.00    +0.000 F 
ATOM     16  C   UNL     1       0.917   9.882  18.470  0.00  0.00    +0.000 A 
ATOM     17  C   UNL     1       1.786   8.879  18.027  0.00  0.00    +0.000 A 
ENDBRANCH   8  11
BRANCH   1  19
ATOM     18  C   UNL     1       7.763   7.726  17.648  0.00  0.00    +0.000 C 
ATOM     19  O   UNL     1       6.636   7.550  16.790  0.00  0.00    +0.000 OA
ENDBRANCH   1  19
TORSDOF 2
ENDMDL
MODEL 2
REMARK VINA RESULT:      -7.3      0.062      1.112
REMARK  Name = 
REMARK  3 active torsions:
REMARK  status: ('A' for Active; 'I' for Inactive)
REMARK    1  A    between atoms: C_1  and  O_2
REMARK    2  A    between atoms: O_2  and  C_3
REMARK    3  A    between atoms: N_10  and  C_11
REMARK                            x       y       z     vdW  Elec       q    Type
REMARK                         _______ _______ _______ _____ _____    ______ ____
ROOT
ATOM      1  C   UNL     1       6.138   6.271  16.603  0.00  0.00    +0.000 A 
ATOM      2  C   UNL     1       6.880   5.215  16.066  0.00  0.00    +0.000 A 
ATOM      3  C   UNL     1       6.328   3.932  15.976  0.00  0.00    +0.000 A 
ATOM      4  C   UNL     1       5.034   3.677  16.434  0.00  0.00    +0.000 A 
ATOM      5  C   UNL     1       4.287   4.715  16.996  0.00  0.00    +0.000 A 
ATOM      6  C   UNL     1       4.840   6.003  17.051  0.00  0.00    +0.000 A 
ATOM      7  C   UNL     1       4.002   7.071  17.627  0.00  0.00    +0.000 C 
ATOM      8  N   UNL     1       3.007   6.801  18.411  0.00  0.00    +0.000 N 
ATOM      9  C   UNL     1       2.608   5.386  18.718  0.00  0.00    +0.000 C 
ATOM     10  C   UNL     1       2.883   4.504  17.495  0.00  0.00    +0.000 C 
ENDROOT
BRANCH   8  11
ATOM     11  C   UNL     1       2.166   7.852  18.886  0.00  0.00    +0.000 A 
ATOM     12  C   UNL     1       1.738   8.888  18.037  0.00  0.00    +0.000 A 
ATOM     13  C   UNL     1       0.921   9.912  18.527  0.00  0.00    +0.000 A 
ATOM     14  C   UNL     1       0.566   9.930  19.869  0.00  0.00    +0.000 A 
ATOM     15  F   UNL     1      -0.185  10.929  20.341  0.00  0.00    +0.000 F 
ATOM     16  C   UNL     1       0.985   8.920  20.728  0.00  0.00    +0.000 A 
ATOM     17  C   UNL     1       1.759   7.865  20.234  0.00  0.00    +0.000 A 
ENDBRANCH   8  11
BRANCH   1  19
ATOM     18  C   UNL     1       7.712   7.750  17.613  0.00  0.00    +0.000 C 
ATOM     19  O   UNL     1       6.593   7.553  16.749  0.00  0.00    +0.000 OA
ENDBRANCH   1  19
TORSDOF 2
ENDMDL
MODEL 3
REMARK VINA RESULT:      -7.2      4.202      6.660
REMARK  Name = 
REMARK  3 active torsions:
REMARK  status: ('A' for Active; 'I' for Inactive)
REMARK    1  A    between atoms: C_1  and  O_2
REMARK    2  A    between atoms: O_2  and  C_3
REMARK    3  A    between atoms: N_10  and  C_11
REMARK                            x       y       z     vdW  Elec       q    Type
REMARK                         _______ _______ _______ _____ _____    ______ ____
ROOT
ATOM      1  C   UNL     1       3.742   2.508  20.526  0.00  0.00    +0.000 A 
ATOM      2  C   UNL     1       2.775   2.355  21.525  0.00  0.00    +0.000 A 
ATOM      3  C   UNL     1       1.544   3.015  21.429  0.00  0.00    +0.000 A 
ATOM      4  C   UNL     1       1.263   3.849  20.346  0.00  0.00    +0.000 A 
ATOM      5  C   UNL     1       2.226   4.033  19.352  0.00  0.00    +0.000 A 
ATOM      6  C   UNL     1       3.443   3.341  19.443  0.00  0.00    +0.000 A 
ATOM      7  C   UNL     1       4.417   3.545  18.354  0.00  0.00    +0.000 C 
ATOM      8  N   UNL     1       4.365   4.588  17.588  0.00  0.00    +0.000 N 
ATOM      9  C   UNL     1       3.269   5.607  17.718  0.00  0.00    +0.000 C 
ATOM     10  C   UNL     1       1.976   4.909  18.155  0.00  0.00    +0.000 C 
ENDROOT
BRANCH   8  11
ATOM     11  C   UNL     1       5.271   4.716  16.492  0.00  0.00    +0.000 A 
ATOM     12  C   UNL     1       6.405   5.543  16.574  0.00  0.00    +0.000 A 
ATOM     13  C   UNL     1       7.275   5.660  15.485  0.00  0.00    +0.000 A 
ATOM     14  C   UNL     1       6.993   4.990  14.301  0.00  0.00    +0.000 A 
ATOM     15  F   UNL     1       7.808   5.133  13.251  0.00  0.00    +0.000 F 
ATOM     16  C   UNL     1       5.873   4.174  14.196  0.00  0.00    +0.000 A 
ATOM     17  C   UNL     1       5.028   4.011  15.298  0.00  0.00    +0.000 A 
ENDBRANCH   8  11
BRANCH   1  19
ATOM     18  C   UNL     1       5.235   0.968  21.568  0.00  0.00    +0.000 C 
ATOM     19  O   UNL     1       4.977   1.921  20.537  0.00  0.00    +0.000 OA
ENDBRANCH   1  19
TORSDOF 2
ENDMDL
MODEL 4
REMARK VINA RESULT:      -7.2      4.234      6.685
REMARK  Name = 
REMARK  3 active torsions:
REMARK  status: ('A' for Active; 'I' for Inactive)
REMARK    1  A    between atoms: C_1  and  O_2
REMARK    2  A    between atoms: O_2  and  C_3
REMARK    3  A    between atoms: N_10  and  C_11
REMARK                            x       y       z     vdW  Elec       q    Type
REMARK                         _______ _______ _______ _____ _____    ______ ____
ROOT
ATOM      1  C   UNL     1       3.702   2.446  20.630  0.00  0.00    +0.000 A 
ATOM      2  C   UNL     1       2.725   2.233  21.608  0.00  0.00    +0.000 A 
ATOM      3  C   UNL     1       1.443   2.777  21.462  0.00  0.00    +0.000 A 
ATOM      4  C   UNL     1       1.119   3.553  20.349  0.00  0.00    +0.000 A 
ATOM      5  C   UNL     1       2.089   3.796  19.374  0.00  0.00    +0.000 A 
ATOM      6  C   UNL     1       3.360   3.219  19.516  0.00  0.00    +0.000 A 
ATOM      7  C   UNL     1       4.342   3.481  18.446  0.00  0.00    +0.000 C 
ATOM      8  N   UNL     1       4.217   4.493  17.649  0.00  0.00    +0.000 N 
ATOM      9  C   UNL     1       3.031   5.413  17.722  0.00  0.00    +0.000 C 
ATOM     10  C   UNL     1       1.794   4.613  18.146  0.00  0.00    +0.000 C 
ENDROOT
BRANCH   8  11
ATOM     11  C   UNL     1       5.138   4.673  16.573  0.00  0.00    +0.000 A 
ATOM     12  C   UNL     1       4.859   4.190  15.282  0.00  0.00    +0.000 A 
ATOM     13  C   UNL     1       5.780   4.370  14.245  0.00  0.00    +0.000 A 
ATOM     14  C   UNL     1       6.996   4.989  14.502  0.00  0.00    +0.000 A 
ATOM     15  F   UNL     1       7.889   5.127  13.517  0.00  0.00    +0.000 F 
ATOM     16  C   UNL     1       7.297   5.466  15.773  0.00  0.00    +0.000 A 
ATOM     17  C   UNL     1       6.358   5.336  16.802  0.00  0.00    +0.000 A 
ENDBRANCH   8  11
BRANCH   1  19
ATOM     18  C   UNL     1       5.239   0.898  21.593  0.00  0.00    +0.000 C 
ATOM     19  O   UNL     1       4.984   1.973  20.689  0.00  0.00    +0.000 OA
ENDBRANCH   1  19
TORSDOF 2
ENDMDL
MODEL 5
REMARK VINA RESULT:      -7.1      4.148      7.105
REMARK  Name = 
REMARK  3 active torsions:
REMARK  status: ('A' for Active; 'I' for Inactive)
REMARK    1  A    between atoms: C_1  and  O_2
REMARK    2  A    between atoms: O_2  and  C_3
REMARK    3  A    between atoms: N_10  and  C_11
REMARK                            x       y       z     vdW  Elec       q    Type
REMARK                         _______ _______ _______ _____ _____    ______ ____
ROOT
ATOM      1  C   UNL     1       2.624   3.587  18.484  0.00  0.00    +0.000 A 
ATOM      2  C   UNL     1       1.919   3.963  19.631  0.00  0.00    +0.000 A 
ATOM      3  C   UNL     1       1.932   5.293  20.070  0.00  0.00    +0.000 A 
ATOM      4  C   UNL     1       2.660   6.264  19.382  0.00  0.00    +0.000 A 
ATOM      5  C   UNL     1       3.390   5.902  18.248  0.00  0.00    +0.000 A 
ATOM      6  C   UNL     1       3.343   4.574  17.800  0.00  0.00    +0.000 A 
ATOM      7  C   UNL     1       4.107   4.246  16.582  0.00  0.00    +0.000 C 
ATOM      8  N   UNL     1       5.086   4.990  16.178  0.00  0.00    +0.000 N 
ATOM      9  C   UNL     1       5.451   6.264  16.886  0.00  0.00    +0.000 C 
ATOM     10  C   UNL     1       4.183   6.908  17.458  0.00  0.00    +0.000 C 
ENDROOT
BRANCH   8  11
ATOM     11  C   UNL     1       5.753   4.691  14.951  0.00  0.00    +0.000 A 
ATOM     12  C   UNL     1       7.017   5.232  14.655  0.00  0.00    +0.000 A 
ATOM     13  C   UNL     1       7.647   4.933  13.443  0.00  0.00    +0.000 A 
ATOM     14  C   UNL     1       7.003   4.132  12.509  0.00  0.00    +0.000 A 
ATOM     15  F   UNL     1       7.593   3.877  11.337  0.00  0.00    +0.000 F 
ATOM     16  C   UNL     1       5.750   3.594  12.778  0.00  0.00    +0.000 A 
ATOM     17  C   UNL     1       5.136   3.847  14.009  0.00  0.00    +0.000 A 
ENDBRANCH   8  11
BRANCH   1  19
ATOM     18  C   UNL     1       3.562   1.401  18.647  0.00  0.00    +0.000 C 
ATOM     19  O   UNL     1       2.687   2.315  17.986  0.00  0.00    +0.000 OA
ENDBRANCH   1  19
TORSDOF 2
ENDMDL
MODEL 6
REMARK VINA RESULT:      -6.9      2.668      4.280
REMARK  Name = 
REMARK  3 active torsions:
REMARK  status: ('A' for Active; 'I' for Inactive)
REMARK    1  A    between atoms: C_1  and  O_2
REMARK    2  A    between atoms: O_2  and  C_3
REMARK    3  A    between atoms: N_10  and  C_11
REMARK                            x       y       z     vdW  Elec       q    Type
REMARK                         _______ _______ _______ _____ _____    ______ ____
ROOT
ATOM      1  C   UNL     1       2.688   5.569  19.874  0.00  0.00    +0.000 A 
ATOM      2  C   UNL     1       3.428   4.806  18.966  0.00  0.00    +0.000 A 
ATOM      3  C   UNL     1       3.881   5.370  17.767  0.00  0.00    +0.000 A 
ATOM      4  C   UNL     1       3.591   6.697  17.447  0.00  0.00    +0.000 A 
ATOM      5  C   UNL     1       2.832   7.467  18.331  0.00  0.00    +0.000 A 
ATOM      6  C   UNL     1       2.412   6.900  19.544  0.00  0.00    +0.000 A 
ATOM      7  C   UNL     1       1.638   7.762  20.458  0.00  0.00    +0.000 C 
ATOM      8  N   UNL     1       1.018   8.815  20.029  0.00  0.00    +0.000 N 
ATOM      9  C   UNL     1       1.112   9.257  18.597  0.00  0.00    +0.000 C 
ATOM     10  C   UNL     1       2.499   8.906  18.047  0.00  0.00    +0.000 C 
ENDROOT
BRANCH   8  11
ATOM     11  C   UNL     1       0.346   9.673  20.952  0.00  0.00    +0.000 A 
ATOM     12  C   UNL     1       0.029   9.244  22.253  0.00  0.00    +0.000 A 
ATOM     13  C   UNL     1      -0.638  10.098  23.137  0.00  0.00    +0.000 A 
ATOM     14  C   UNL     1      -1.028  11.362  22.713  0.00  0.00    +0.000 A 
ATOM     15  F   UNL     1      -1.696  12.162  23.550  0.00  0.00    +0.000 F 
ATOM     16  C   UNL     1      -0.732  11.803  21.429  0.00  0.00    +0.000 A 
ATOM     17  C   UNL     1      -0.020  10.974  20.557  0.00  0.00    +0.000 A 
ENDBRANCH   8  11
BRANCH   1  19
ATOM     18  C   UNL     1       1.760   3.745  21.098  0.00  0.00    +0.000 C 
ATOM     19  O   UNL     1       2.188   5.107  21.060  0.00  0.00    +0.000 OA
ENDBRANCH   1  19
TORSDOF 2
ENDMDL
MODEL 7
REMARK VINA RESULT:      -6.9      1.841      2.783
REMARK  Name = 
REMARK  3 active torsions:
REMARK  status: ('A' for Active; 'I' for Inactive)
REMARK    1  A    between atoms: C_1  and  O_2
REMARK    2  A    between atoms: O_2  and  C_3
REMARK    3  A    between atoms: N_10  and  C_11
REMARK                            x       y       z     vdW  Elec       q    Type
REMARK                         _______ _______ _______ _____ _____    ______ ____
ROOT
ATOM      1  C   UNL     1       3.821   3.960  17.506  0.00  0.00    +0.000 A 
ATOM      2  C   UNL     1       4.040   2.579  17.513  0.00  0.00    +0.000 A 
ATOM      3  C   UNL     1       3.341   1.753  18.401  0.00  0.00    +0.000 A 
ATOM      4  C   UNL     1       2.424   2.291  19.306  0.00  0.00    +0.000 A 
ATOM      5  C   UNL     1       2.211   3.670  19.330  0.00  0.00    +0.000 A 
ATOM      6  C   UNL     1       2.894   4.484  18.414  0.00  0.00    +0.000 A 
ATOM      7  C   UNL     1       2.613   5.931  18.459  0.00  0.00    +0.000 C 
ATOM      8  N   UNL     1       2.113   6.490  19.514  0.00  0.00    +0.000 N 
ATOM      9  C   UNL     1       1.723   5.685  20.721  0.00  0.00    +0.000 C 
ATOM     10  C   UNL     1       1.226   4.306  20.274  0.00  0.00    +0.000 C 
ENDROOT
BRANCH   8  11
ATOM     11  C   UNL     1       1.777   7.878  19.497  0.00  0.00    +0.000 A 
ATOM     12  C   UNL     1       1.228   8.511  20.626  0.00  0.00    +0.000 A 
ATOM     13  C   UNL     1       0.899   9.870  20.585  0.00  0.00    +0.000 A 
ATOM     14  C   UNL     1       1.073  10.586  19.408  0.00  0.00    +0.000 A 
ATOM     15  F   UNL     1       0.724  11.876  19.361  0.00  0.00    +0.000 F 
ATOM     16  C   UNL     1       1.606   9.977  18.278  0.00  0.00    +0.000 A 
ATOM     17  C   UNL     1       1.986   8.633  18.328  0.00  0.00    +0.000 A 
ENDBRANCH   8  11
BRANCH   1  19
ATOM     18  C   UNL     1       5.296   4.308  15.666  0.00  0.00    +0.000 C 
ATOM     19  O   UNL     1       4.464   4.851  16.692  0.00  0.00    +0.000 OA
ENDBRANCH   1  19
TORSDOF 2
ENDMDL
MODEL 8
REMARK VINA RESULT:      -6.9      3.756      6.959
REMARK  Name = 
REMARK  3 active torsions:
REMARK  status: ('A' for Active; 'I' for Inactive)
REMARK    1  A    between atoms: C_1  and  O_2
REMARK    2  A    between atoms: O_2  and  C_3
REMARK    3  A    between atoms: N_10  and  C_11
REMARK                            x       y       z     vdW  Elec       q    Type
REMARK                         _______ _______ _______ _____ _____    ______ ____
ROOT
ATOM      1  C   UNL     1       0.775  10.304  21.271  0.00  0.00    +0.000 A 
ATOM      2  C   UNL     1       0.369  11.614  21.000  0.00  0.00    +0.000 A 
ATOM      3  C   UNL     1       0.297  12.078  19.681  0.00  0.00    +0.000 A 
ATOM      4  C   UNL     1       0.644  11.249  18.613  0.00  0.00    +0.000 A 
ATOM      5  C   UNL     1       1.075   9.945  18.866  0.00  0.00    +0.000 A 
ATOM      6  C   UNL     1       1.112   9.483  20.190  0.00  0.00    +0.000 A 
ATOM      7  C   UNL     1       1.547   8.090  20.405  0.00  0.00    +0.000 C 
ATOM      8  N   UNL     1       2.247   7.457  19.518  0.00  0.00    +0.000 N 
ATOM      9  C   UNL     1       2.591   8.079  18.195  0.00  0.00    +0.000 C 
ATOM     10  C   UNL     1       1.450   9.002  17.755  0.00  0.00    +0.000 C 
ENDROOT
BRANCH   8  11
ATOM     11  C   UNL     1       2.582   6.083  19.720  0.00  0.00    +0.000 A 
ATOM     12  C   UNL     1       3.650   5.482  19.030  0.00  0.00    +0.000 A 
ATOM     13  C   UNL     1       3.956   4.133  19.237  0.00  0.00    +0.000 A 
ATOM     14  C   UNL     1       3.173   3.372  20.095  0.00  0.00    +0.000 A 
ATOM     15  F   UNL     1       3.446   2.074  20.263  0.00  0.00    +0.000 F 
ATOM     16  C   UNL     1       2.108   3.944  20.781  0.00  0.00    +0.000 A 
ATOM     17  C   UNL     1       1.829   5.305  20.618  0.00  0.00    +0.000 A 
ENDBRANCH   8  11
BRANCH   1  19
ATOM     18  C   UNL     1      -0.299   9.663  23.301  0.00  0.00    +0.000 C 
ATOM     19  O   UNL     1       0.893   9.764  22.522  0.00  0.00    +0.000 OA
ENDBRANCH   1  19
TORSDOF 2
ENDMDL
MODEL 9
REMARK VINA RESULT:      -6.9      1.864      3.096
REMARK  Name = 
REMARK  3 active torsions:
REMARK  status: ('A' for Active; 'I' for Inactive)
REMARK    1  A    between atoms: C_1  and  O_2
REMARK    2  A    between atoms: O_2  and  C_3
REMARK    3  A    between atoms: N_10  and  C_11
REMARK                            x       y       z     vdW  Elec       q    Type
REMARK                         _______ _______ _______ _____ _____    ______ ____
ROOT
ATOM      1  C   UNL     1       3.695   3.764  17.551  0.00  0.00    +0.000 A 
ATOM      2  C   UNL     1       3.878   2.385  17.696  0.00  0.00    +0.000 A 
ATOM      3  C   UNL     1       3.204   1.680  18.700  0.00  0.00    +0.000 A 
ATOM      4  C   UNL     1       2.350   2.340  19.585  0.00  0.00    +0.000 A 
ATOM      5  C   UNL     1       2.174   3.720  19.471  0.00  0.00    +0.000 A 
ATOM      6  C   UNL     1       2.830   4.410  18.440  0.00  0.00    +0.000 A 
ATOM      7  C   UNL     1       2.590   5.862  18.342  0.00  0.00    +0.000 C 
ATOM      8  N   UNL     1       2.159   6.545  19.354  0.00  0.00    +0.000 N 
ATOM      9  C   UNL     1       1.811   5.886  20.658  0.00  0.00    +0.000 C 
ATOM     10  C   UNL     1       1.256   4.484  20.387  0.00  0.00    +0.000 C 
ENDROOT
BRANCH   8  11
ATOM     11  C   UNL     1       1.859   7.933  19.204  0.00  0.00    +0.000 A 
ATOM     12  C   UNL     1       2.202   8.633  18.034  0.00  0.00    +0.000 A 
ATOM     13  C   UNL     1       1.906   9.995  17.912  0.00  0.00    +0.000 A 
ATOM     14  C   UNL     1       1.311  10.669  18.970  0.00  0.00    +0.000 A 
ATOM     15  F   UNL     1       1.062  11.978  18.864  0.00  0.00    +0.000 F 
ATOM     16  C   UNL     1       0.971   9.998  20.139  0.00  0.00    +0.000 A 
ATOM     17  C   UNL     1       1.216   8.625  20.247  0.00  0.00    +0.000 A 
ENDBRANCH   8  11
BRANCH   1  19
ATOM     18  C   UNL     1       5.583   4.087  16.130  0.00  0.00    +0.000 C 
ATOM     19  O   UNL     1       4.319   4.542  16.615  0.00  0.00    +0.000 OA
ENDBRANCH   1  19
TORSDOF 2
ENDMDL
