MODEL 1
REMARK VINA RESULT:      -9.1      0.000      0.000
REMARK  Name = 
REMARK  7 active torsions:
REMARK  status: ('A' for Active; 'I' for Inactive)
REMARK    1  A    between atoms: C_1  and  C_2
REMARK    2  A    between atoms: C_2  and  C_3
REMARK    3  A    between atoms: C_2  and  N_4
REMARK    4  A    between atoms: C_6  and  C_7
REMARK    5  A    between atoms: C_10  and  O_11
REMARK    6  A    between atoms: O_11  and  C_12
REMARK    7  A    between atoms: C_17  and  N_18
REMARK                            x       y       z     vdW  Elec       q    Type
REMARK                         _______ _______ _______ _____ _____    ______ ____
ROOT
ATOM      1  C   UNL     1       2.593   7.369  18.934  0.00  0.00    +0.000 A 
ATOM      2  C   UNL     1       1.899   7.743  20.096  0.00  0.00    +0.000 A 
ATOM      3  C   UNL     1       1.076   8.874  20.108  0.00  0.00    +0.000 A 
ATOM      4  C   UNL     1       0.958   9.661  18.966  0.00  0.00    +0.000 A 
ATOM      5  C   UNL     1       1.592   9.265  17.787  0.00  0.00    +0.000 A 
ATOM      6  C   UNL     1       2.406   8.128  17.774  0.00  0.00    +0.000 A 
ENDROOT
BRANCH   1   9
ATOM      7  N   UNL     1       5.300   4.999  18.464  0.00  0.00    +0.000 N 
ATOM      8  C   UNL     1       4.701   6.223  18.304  0.00  0.00    +0.000 A 
ATOM      9  C   UNL     1       3.463   6.197  18.925  0.00  0.00    +0.000 A 
ATOM     10  C   UNL     1       3.316   4.888  19.506  0.00  0.00    +0.000 A 
ATOM     11  C   UNL     1       2.350   4.178  20.242  0.00  0.00    +0.000 A 
ATOM     12  N   UNL     1       1.085   4.663  20.568  0.00  0.00    +0.000 N 
ATOM     13  N   UNL     1       2.613   2.923  20.645  0.00  0.00    +0.000 NA
ATOM     14  C   UNL     1       3.801   2.382  20.320  0.00  0.00    +0.000 A 
ATOM     15  N   UNL     1       4.786   2.935  19.597  0.00  0.00    +0.000 NA
ATOM     16  C   UNL     1       4.486   4.192  19.217  0.00  0.00    +0.000 A 
ATOM     17  H   UNL     1       0.693   5.277  19.864  0.00  0.00    +0.000 HD
ATOM     18  H   UNL     1       0.490   3.895  20.860  0.00  0.00    +0.000 HD
BRANCH   7  20
ATOM     19  C   UNL     1       6.582   4.714  16.372  0.00  0.00    +0.000 C 
ATOM     20  C   UNL     1       6.593   4.618  17.899  0.00  0.00    +0.000 C 
ATOM     21  C   UNL     1       7.736   5.442  18.492  0.00  0.00    +0.000 C 
ENDBRANCH   7  20
ENDBRANCH   1   9
BRANCH   4  22
ATOM     22  O   UNL     1       0.177  10.792  19.085  0.00  0.00    +0.000 OA
BRANCH  22  23
ATOM     23  C   UNL     1      -1.097  10.780  18.563  0.00  0.00    +0.000 A 
ATOM     24  C   UNL     1      -1.418   9.930  17.491  0.00  0.00    +0.000 A 
ATOM     25  C   UNL     1      -2.724   9.844  17.009  0.00  0.00    +0.000 A 
ATOM     26  C   UNL     1      -3.718  10.648  17.552  0.00  0.00    +0.000 A 
ATOM     27  C   UNL     1      -3.401  11.565  18.558  0.00  0.00    +0.000 A 
ATOM     28  C   UNL     1      -2.088  11.644  19.059  0.00  0.00    +0.000 A 
BRANCH  28  29
ATOM     29  N   UNL     1      -1.804  12.658  20.089  0.00  0.00    +0.000 N 
ATOM     30  O   UNL     1      -2.035  12.398  21.276  0.00  0.00    +0.000 OA
ATOM     31  O   UNL     1      -1.323  13.735  19.704  0.00  0.00    +0.000 OA
ENDBRANCH  28  29
ENDBRANCH  22  23
ENDBRANCH   4  22
TORSDOF 5
ENDMDL
MODEL 2
REMARK VINA RESULT:      -8.9      0.381      1.126
REMARK  Name = 
REMARK  7 active torsions:
REMARK  status: ('A' for Active; 'I' for Inactive)
REMARK    1  A    between atoms: C_1  and  C_2
REMARK    2  A    between atoms: C_2  and  C_3
REMARK    3  A    between atoms: C_2  and  N_4
REMARK    4  A    between atoms: C_6  and  C_7
REMARK    5  A    between atoms: C_10  and  O_11
REMARK    6  A    between atoms: O_11  and  C_12
REMARK    7  A    between atoms: C_17  and  N_18
REMARK                            x       y       z     vdW  Elec       q    Type
REMARK                         _______ _______ _______ _____ _____    ______ ____
ROOT
ATOM      1  C   UNL     1       2.624   7.458  18.785  0.00  0.00    +0.000 A 
ATOM      2  C   UNL     1       2.542   8.386  17.734  0.00  0.00    +0.000 A 
ATOM      3  C   UNL     1       1.760   9.539  17.854  0.00  0.00    +0.000 A 
ATOM      4  C   UNL     1       1.028   9.766  19.016  0.00  0.00    +0.000 A 
ATOM      5  C   UNL     1       1.152   8.885  20.092  0.00  0.00    +0.000 A 
ATOM      6  C   UNL     1       1.943   7.738  19.974  0.00  0.00    +0.000 A 
ENDROOT
BRANCH   1   9
ATOM      7  N   UNL     1       5.091   4.952  17.894  0.00  0.00    +0.000 N 
ATOM      8  C   UNL     1       4.521   6.196  17.805  0.00  0.00    +0.000 A 
ATOM      9  C   UNL     1       3.429   6.247  18.655  0.00  0.00    +0.000 A 
ATOM     10  C   UNL     1       3.347   4.966  19.306  0.00  0.00    +0.000 A 
ATOM     11  C   UNL     1       2.517   4.326  20.243  0.00  0.00    +0.000 A 
ATOM     12  N   UNL     1       1.361   4.879  20.789  0.00  0.00    +0.000 N 
ATOM     13  N   UNL     1       2.804   3.073  20.638  0.00  0.00    +0.000 NA
ATOM     14  C   UNL     1       3.883   2.467  20.109  0.00  0.00    +0.000 A 
ATOM     15  N   UNL     1       4.728   2.950  19.187  0.00  0.00    +0.000 NA
ATOM     16  C   UNL     1       4.409   4.207  18.823  0.00  0.00    +0.000 A 
ATOM     17  H   UNL     1       0.862   5.487  20.151  0.00  0.00    +0.000 HD
ATOM     18  H   UNL     1       0.804   4.149  21.222  0.00  0.00    +0.000 HD
BRANCH   7  20
ATOM     19  C   UNL     1       6.209   5.090  15.696  0.00  0.00    +0.000 C 
ATOM     20  C   UNL     1       6.233   4.493  17.104  0.00  0.00    +0.000 C 
ATOM     21  C   UNL     1       7.560   4.786  17.803  0.00  0.00    +0.000 C 
ENDBRANCH   7  20
ENDBRANCH   1   9
BRANCH   4  22
ATOM     22  O   UNL     1       0.236  10.895  19.026  0.00  0.00    +0.000 OA
BRANCH  22  23
ATOM     23  C   UNL     1      -1.047  10.814  18.532  0.00  0.00    +0.000 A 
ATOM     24  C   UNL     1      -1.345   9.942  17.471  0.00  0.00    +0.000 A 
ATOM     25  C   UNL     1      -2.655   9.785  17.018  0.00  0.00    +0.000 A 
ATOM     26  C   UNL     1      -3.679  10.539  17.578  0.00  0.00    +0.000 A 
ATOM     27  C   UNL     1      -3.388  11.478  18.572  0.00  0.00    +0.000 A 
ATOM     28  C   UNL     1      -2.071  11.628  19.045  0.00  0.00    +0.000 A 
BRANCH  28  29
ATOM     29  N   UNL     1      -1.818  12.662  20.063  0.00  0.00    +0.000 N 
ATOM     30  O   UNL     1      -1.419  13.778  19.707  0.00  0.00    +0.000 OA
ATOM     31  O   UNL     1      -2.037  12.357  21.245  0.00  0.00    +0.000 OA
ENDBRANCH  28  29
ENDBRANCH  22  23
ENDBRANCH   4  22
TORSDOF 5
ENDMDL
MODEL 3
REMARK VINA RESULT:      -8.9      1.621      2.063
REMARK  Name = 
REMARK  7 active torsions:
REMARK  status: ('A' for Active; 'I' for Inactive)
REMARK    1  A    between atoms: C_1  and  C_2
REMARK    2  A    between atoms: C_2  and  C_3
REMARK    3  A    between atoms: C_2  and  N_4
REMARK    4  A    between atoms: C_6  and  C_7
REMARK    5  A    between atoms: C_10  and  O_11
REMARK    6  A    between atoms: O_11  and  C_12
REMARK    7  A    between atoms: C_17  and  N_18
REMARK                            x       y       z     vdW  Elec       q    Type
REMARK                         _______ _______ _______ _____ _____    ______ ____
ROOT
ATOM      1  C   UNL     1       2.629   6.771  18.729  0.00  0.00    +0.000 A 
ATOM      2  C   UNL     1       2.440   7.893  17.905  0.00  0.00    +0.000 A 
ATOM      3  C   UNL     1       1.828   9.050  18.397  0.00  0.00    +0.000 A 
ATOM      4  C   UNL     1       1.372   9.091  19.712  0.00  0.00    +0.000 A 
ATOM      5  C   UNL     1       1.611   8.007  20.559  0.00  0.00    +0.000 A 
ATOM      6  C   UNL     1       2.233   6.855  20.067  0.00  0.00    +0.000 A 
ENDROOT
BRANCH   1   9
ATOM      7  N   UNL     1       4.733   4.337  17.052  0.00  0.00    +0.000 N 
ATOM      8  C   UNL     1       4.351   5.616  17.367  0.00  0.00    +0.000 A 
ATOM      9  C   UNL     1       3.254   5.558  18.211  0.00  0.00    +0.000 A 
ATOM     10  C   UNL     1       2.971   4.164  18.430  0.00  0.00    +0.000 A 
ATOM     11  C   UNL     1       2.031   3.391  19.136  0.00  0.00    +0.000 A 
ATOM     12  N   UNL     1       0.952   3.908  19.849  0.00  0.00    +0.000 N 
ATOM     13  N   UNL     1       2.124   2.050  19.114  0.00  0.00    +0.000 NA
ATOM     14  C   UNL     1       3.119   1.489  18.402  0.00  0.00    +0.000 A 
ATOM     15  N   UNL     1       4.050   2.107  17.662  0.00  0.00    +0.000 NA
ATOM     16  C   UNL     1       3.926   3.447  17.714  0.00  0.00    +0.000 A 
ATOM     17  H   UNL     1       0.564   4.750  19.442  0.00  0.00    +0.000 HD
ATOM     18  H   UNL     1       0.284   3.168  20.042  0.00  0.00    +0.000 HD
BRANCH   7  20
ATOM     19  C   UNL     1       5.506   4.436  14.708  0.00  0.00    +0.000 C 
ATOM     20  C   UNL     1       5.818   3.987  16.137  0.00  0.00    +0.000 C 
ATOM     21  C   UNL     1       7.160   4.548  16.608  0.00  0.00    +0.000 C 
ENDBRANCH   7  20
ENDBRANCH   1   9
BRANCH   4  22
ATOM     22  O   UNL     1       0.725  10.248  20.096  0.00  0.00    +0.000 OA
BRANCH  22  23
ATOM     23  C   UNL     1      -0.241  10.777  19.269  0.00  0.00    +0.000 A 
ATOM     24  C   UNL     1      -1.346  10.001  18.880  0.00  0.00    +0.000 A 
ATOM     25  C   UNL     1      -2.375  10.551  18.114  0.00  0.00    +0.000 A 
ATOM     26  C   UNL     1      -2.288  11.867  17.678  0.00  0.00    +0.000 A 
ATOM     27  C   UNL     1      -1.154  12.627  17.978  0.00  0.00    +0.000 A 
ATOM     28  C   UNL     1      -0.121  12.083  18.765  0.00  0.00    +0.000 A 
BRANCH  28  29
ATOM     29  N   UNL     1       1.067  12.917  19.013  0.00  0.00    +0.000 N 
ATOM     30  O   UNL     1       1.027  13.780  19.899  0.00  0.00    +0.000 OA
ATOM     31  O   UNL     1       2.070  12.693  18.318  0.00  0.00    +0.000 OA
ENDBRANCH  28  29
ENDBRANCH  22  23
ENDBRANCH   4  22
TORSDOF 5
ENDMDL
MODEL 4
REMARK VINA RESULT:      -8.9      1.861      2.526
REMARK  Name = 
REMARK  7 active torsions:
REMARK  status: ('A' for Active; 'I' for Inactive)
REMARK    1  A    between atoms: C_1  and  C_2
REMARK    2  A    between atoms: C_2  and  C_3
REMARK    3  A    between atoms: C_2  and  N_4
REMARK    4  A    between atoms: C_6  and  C_7
REMARK    5  A    between atoms: C_10  and  O_11
REMARK    6  A    between atoms: O_11  and  C_12
REMARK    7  A    between atoms: C_17  and  N_18
REMARK                            x       y       z     vdW  Elec       q    Type
REMARK                         _______ _______ _______ _____ _____    ______ ____
ROOT
ATOM      1  C   UNL     1       2.528   7.346  18.977  0.00  0.00    +0.000 A 
ATOM      2  C   UNL     1       1.959   7.737  20.200  0.00  0.00    +0.000 A 
ATOM      3  C   UNL     1       1.120   8.853  20.278  0.00  0.00    +0.000 A 
ATOM      4  C   UNL     1       0.861   9.610  19.138  0.00  0.00    +0.000 A 
ATOM      5  C   UNL     1       1.368   9.195  17.905  0.00  0.00    +0.000 A 
ATOM      6  C   UNL     1       2.198   8.072  17.829  0.00  0.00    +0.000 A 
ENDROOT
BRANCH   1   9
ATOM      7  N   UNL     1       5.241   5.031  18.311  0.00  0.00    +0.000 N 
ATOM      8  C   UNL     1       4.613   6.246  18.206  0.00  0.00    +0.000 A 
ATOM      9  C   UNL     1       3.415   6.190  18.899  0.00  0.00    +0.000 A 
ATOM     10  C   UNL     1       3.325   4.871  19.468  0.00  0.00    +0.000 A 
ATOM     11  C   UNL     1       2.416   4.134  20.250  0.00  0.00    +0.000 A 
ATOM     12  N   UNL     1       1.166   4.592  20.658  0.00  0.00    +0.000 N 
ATOM     13  N   UNL     1       2.724   2.878  20.618  0.00  0.00    +0.000 NA
ATOM     14  C   UNL     1       3.899   2.362  20.214  0.00  0.00    +0.000 A 
ATOM     15  N   UNL     1       4.830   2.942  19.442  0.00  0.00    +0.000 NA
ATOM     16  C   UNL     1       4.487   4.199  19.099  0.00  0.00    +0.000 A 
ATOM     17  H   UNL     1       0.722   5.208  19.988  0.00  0.00    +0.000 HD
ATOM     18  H   UNL     1       0.602   3.810  20.974  0.00  0.00    +0.000 HD
BRANCH   7  20
ATOM     19  C   UNL     1       6.481   5.031  16.175  0.00  0.00    +0.000 C 
ATOM     20  C   UNL     1       6.504   4.680  17.664  0.00  0.00    +0.000 C 
ATOM     21  C   UNL     1       7.698   5.329  18.363  0.00  0.00    +0.000 C 
ENDBRANCH   7  20
ENDBRANCH   1   9
BRANCH   4  22
ATOM     22  O   UNL     1       0.074  10.729  19.317  0.00  0.00    +0.000 OA
BRANCH  22  23
ATOM     23  C   UNL     1       0.662  11.893  19.760  0.00  0.00    +0.000 A 
ATOM     24  C   UNL     1       1.654  12.525  18.993  0.00  0.00    +0.000 A 
ATOM     25  C   UNL     1       2.196  13.748  19.387  0.00  0.00    +0.000 A 
ATOM     26  C   UNL     1       1.796  14.331  20.583  0.00  0.00    +0.000 A 
ATOM     27  C   UNL     1       0.877  13.674  21.404  0.00  0.00    +0.000 A 
ATOM     28  C   UNL     1       0.314  12.448  21.003  0.00  0.00    +0.000 A 
BRANCH  28  29
ATOM     29  N   UNL     1      -0.617  11.781  21.930  0.00  0.00    +0.000 N 
ATOM     30  O   UNL     1      -0.166  11.062  22.829  0.00  0.00    +0.000 OA
ATOM     31  O   UNL     1      -1.828  11.994  21.764  0.00  0.00    +0.000 OA
ENDBRANCH  28  29
ENDBRANCH  22  23
ENDBRANCH   4  22
TORSDOF 5
ENDMDL
MODEL 5
REMARK VINA RESULT:      -8.9      3.786      8.625
REMARK  Name = 
REMARK  7 active torsions:
REMARK  status: ('A' for Active; 'I' for Inactive)
REMARK    1  A    between atoms: C_1  and  C_2
REMARK    2  A    between atoms: C_2  and  C_3
REMARK    3  A    between atoms: C_2  and  N_4
REMARK    4  A    between atoms: C_6  and  C_7
REMARK    5  A    between atoms: C_10  and  O_11
REMARK    6  A    between atoms: O_11  and  C_12
REMARK    7  A    between atoms: C_17  and  N_18
REMARK                            x       y       z     vdW  Elec       q    Type
REMARK                         _______ _______ _______ _____ _____    ______ ____
ROOT
ATOM      1  C   UNL     1       2.105   8.068  18.981  0.00  0.00    +0.000 A 
ATOM      2  C   UNL     1       2.206   6.958  19.835  0.00  0.00    +0.000 A 
ATOM      3  C   UNL     1       3.105   5.922  19.563  0.00  0.00    +0.000 A 
ATOM      4  C   UNL     1       3.896   5.969  18.418  0.00  0.00    +0.000 A 
ATOM      5  C   UNL     1       3.852   7.097  17.596  0.00  0.00    +0.000 A 
ATOM      6  C   UNL     1       2.960   8.137  17.876  0.00  0.00    +0.000 A 
ENDROOT
BRANCH   1   9
ATOM      7  N   UNL     1      -0.350  10.732  18.783  0.00  0.00    +0.000 N 
ATOM      8  C   UNL     1       0.476   9.784  18.235  0.00  0.00    +0.000 A 
ATOM      9  C   UNL     1       1.156   9.143  19.257  0.00  0.00    +0.000 A 
ATOM     10  C   UNL     1       0.700   9.727  20.491  0.00  0.00    +0.000 A 
ATOM     11  C   UNL     1       0.957   9.585  21.867  0.00  0.00    +0.000 A 
ATOM     12  N   UNL     1       1.921   8.740  22.413  0.00  0.00    +0.000 N 
ATOM     13  N   UNL     1       0.270  10.330  22.751  0.00  0.00    +0.000 NA
ATOM     14  C   UNL     1      -0.642  11.200  22.281  0.00  0.00    +0.000 A 
ATOM     15  N   UNL     1      -0.953  11.455  21.002  0.00  0.00    +0.000 NA
ATOM     16  C   UNL     1      -0.248  10.686  20.150  0.00  0.00    +0.000 A 
ATOM     17  H   UNL     1       2.743   8.634  21.832  0.00  0.00    +0.000 HD
ATOM     18  H   UNL     1       2.097   9.001  23.378  0.00  0.00    +0.000 HD
BRANCH   7  20
ATOM     19  C   UNL     1      -2.667  11.490  18.382  0.00  0.00    +0.000 C 
ATOM     20  C   UNL     1      -1.189  11.655  18.021  0.00  0.00    +0.000 C 
ATOM     21  C   UNL     1      -0.740  13.106  18.197  0.00  0.00    +0.000 C 
ENDBRANCH   7  20
ENDBRANCH   1   9
BRANCH   4  22
ATOM     22  O   UNL     1       4.708   4.877  18.194  0.00  0.00    +0.000 OA
BRANCH  22  23
ATOM     23  C   UNL     1       5.388   4.785  17.001  0.00  0.00    +0.000 A 
ATOM     24  C   UNL     1       4.758   4.255  15.862  0.00  0.00    +0.000 A 
ATOM     25  C   UNL     1       5.405   4.235  14.627  0.00  0.00    +0.000 A 
ATOM     26  C   UNL     1       6.712   4.693  14.521  0.00  0.00    +0.000 A 
ATOM     27  C   UNL     1       7.388   5.140  15.659  0.00  0.00    +0.000 A 
ATOM     28  C   UNL     1       6.734   5.178  16.905  0.00  0.00    +0.000 A 
BRANCH  28  29
ATOM     29  N   UNL     1       7.510   5.619  18.077  0.00  0.00    +0.000 N 
ATOM     30  O   UNL     1       7.687   6.829  18.266  0.00  0.00    +0.000 OA
ATOM     31  O   UNL     1       7.939   4.736  18.836  0.00  0.00    +0.000 OA
ENDBRANCH  28  29
ENDBRANCH  22  23
ENDBRANCH   4  22
TORSDOF 5
ENDMDL
MODEL 6
REMARK VINA RESULT:      -8.9      1.118      1.597
REMARK  Name = 
REMARK  7 active torsions:
REMARK  status: ('A' for Active; 'I' for Inactive)
REMARK    1  A    between atoms: C_1  and  C_2
REMARK    2  A    between atoms: C_2  and  C_3
REMARK    3  A    between atoms: C_2  and  N_4
REMARK    4  A    between atoms: C_6  and  C_7
REMARK    5  A    between atoms: C_10  and  O_11
REMARK    6  A    between atoms: O_11  and  C_12
REMARK    7  A    between atoms: C_17  and  N_18
REMARK                            x       y       z     vdW  Elec       q    Type
REMARK                         _______ _______ _______ _____ _____    ______ ____
ROOT
ATOM      1  C   UNL     1       2.590   7.064  18.469  0.00  0.00    +0.000 A 
ATOM      2  C   UNL     1       2.467   8.142  17.577  0.00  0.00    +0.000 A 
ATOM      3  C   UNL     1       1.838   9.329  17.966  0.00  0.00    +0.000 A 
ATOM      4  C   UNL     1       1.299   9.444  19.244  0.00  0.00    +0.000 A 
ATOM      5  C   UNL     1       1.471   8.405  20.161  0.00  0.00    +0.000 A 
ATOM      6  C   UNL     1       2.110   7.223  19.773  0.00  0.00    +0.000 A 
ENDROOT
BRANCH   1   9
ATOM      7  N   UNL     1       4.731   4.526  17.009  0.00  0.00    +0.000 N 
ATOM      8  C   UNL     1       4.331   5.821  17.213  0.00  0.00    +0.000 A 
ATOM      9  C   UNL     1       3.233   5.820  18.058  0.00  0.00    +0.000 A 
ATOM     10  C   UNL     1       2.970   4.446  18.396  0.00  0.00    +0.000 A 
ATOM     11  C   UNL     1       2.040   3.723  19.166  0.00  0.00    +0.000 A 
ATOM     12  N   UNL     1       0.952   4.284  19.831  0.00  0.00    +0.000 N 
ATOM     13  N   UNL     1       2.152   2.387  19.259  0.00  0.00    +0.000 NA
ATOM     14  C   UNL     1       3.156   1.781  18.599  0.00  0.00    +0.000 A 
ATOM     15  N   UNL     1       4.079   2.347  17.808  0.00  0.00    +0.000 NA
ATOM     16  C   UNL     1       3.936   3.684  17.745  0.00  0.00    +0.000 A 
ATOM     17  H   UNL     1       0.553   5.083  19.353  0.00  0.00    +0.000 HD
ATOM     18  H   UNL     1       0.295   3.554  20.087  0.00  0.00    +0.000 HD
BRANCH   7  20
ATOM     19  C   UNL     1       5.623   4.649  14.709  0.00  0.00    +0.000 C 
ATOM     20  C   UNL     1       5.823   4.113  16.128  0.00  0.00    +0.000 C 
ATOM     21  C   UNL     1       7.186   4.526  16.684  0.00  0.00    +0.000 C 
ENDBRANCH   7  20
ENDBRANCH   1   9
BRANCH   4  22
ATOM     22  O   UNL     1       0.642  10.624  19.524  0.00  0.00    +0.000 OA
BRANCH  22  23
ATOM     23  C   UNL     1      -0.628  10.814  19.028  0.00  0.00    +0.000 A 
ATOM     24  C   UNL     1      -1.082  10.063  17.930  0.00  0.00    +0.000 A 
ATOM     25  C   UNL     1      -2.394  10.182  17.472  0.00  0.00    +0.000 A 
ATOM     26  C   UNL     1      -3.256  11.094  18.067  0.00  0.00    +0.000 A 
ATOM     27  C   UNL     1      -2.798  11.915  19.101  0.00  0.00    +0.000 A 
ATOM     28  C   UNL     1      -1.480  11.787  19.578  0.00  0.00    +0.000 A 
BRANCH  28  29
ATOM     29  N   UNL     1      -1.039  12.707  20.640  0.00  0.00    +0.000 N 
ATOM     30  O   UNL     1      -0.408  13.727  20.336  0.00  0.00    +0.000 OA
ATOM     31  O   UNL     1      -1.344  12.412  21.806  0.00  0.00    +0.000 OA
ENDBRANCH  28  29
ENDBRANCH  22  23
ENDBRANCH   4  22
TORSDOF 5
ENDMDL
MODEL 7
REMARK VINA RESULT:      -8.8      1.878      2.700
REMARK  Name = 
REMARK  7 active torsions:
REMARK  status: ('A' for Active; 'I' for Inactive)
REMARK    1  A    between atoms: C_1  and  C_2
REMARK    2  A    between atoms: C_2  and  C_3
REMARK    3  A    between atoms: C_2  and  N_4
REMARK    4  A    between atoms: C_6  and  C_7
REMARK    5  A    between atoms: C_10  and  O_11
REMARK    6  A    between atoms: O_11  and  C_12
REMARK    7  A    between atoms: C_17  and  N_18
REMARK                            x       y       z     vdW  Elec       q    Type
REMARK                         _______ _______ _______ _____ _____    ______ ____
ROOT
ATOM      1  C   UNL     1       2.365   7.112  18.908  0.00  0.00    +0.000 A 
ATOM      2  C   UNL     1       1.996   8.182  18.076  0.00  0.00    +0.000 A 
ATOM      3  C   UNL     1       1.315   9.289  18.589  0.00  0.00    +0.000 A 
ATOM      4  C   UNL     1       0.970   9.330  19.937  0.00  0.00    +0.000 A 
ATOM      5  C   UNL     1       1.387   8.305  20.788  0.00  0.00    +0.000 A 
ATOM      6  C   UNL     1       2.078   7.203  20.273  0.00  0.00    +0.000 A 
ENDROOT
BRANCH   1   9
ATOM      7  N   UNL     1       4.620   4.842  17.197  0.00  0.00    +0.000 N 
ATOM      8  C   UNL     1       4.163   6.089  17.538  0.00  0.00    +0.000 A 
ATOM      9  C   UNL     1       3.063   5.949  18.368  0.00  0.00    +0.000 A 
ATOM     10  C   UNL     1       2.858   4.536  18.552  0.00  0.00    +0.000 A 
ATOM     11  C   UNL     1       1.957   3.695  19.230  0.00  0.00    +0.000 A 
ATOM     12  N   UNL     1       0.844   4.133  19.943  0.00  0.00    +0.000 N 
ATOM     13  N   UNL     1       2.126   2.362  19.177  0.00  0.00    +0.000 NA
ATOM     14  C   UNL     1       3.158   1.875  18.463  0.00  0.00    +0.000 A 
ATOM     15  N   UNL     1       4.059   2.563  17.747  0.00  0.00    +0.000 NA
ATOM     16  C   UNL     1       3.858   3.892  17.829  0.00  0.00    +0.000 A 
ATOM     17  H   UNL     1       0.412   4.961  19.553  0.00  0.00    +0.000 HD
ATOM     18  H   UNL     1       0.218   3.352  20.112  0.00  0.00    +0.000 HD
BRANCH   7  20
ATOM     19  C   UNL     1       5.650   5.458  15.038  0.00  0.00    +0.000 C 
ATOM     20  C   UNL     1       5.731   4.576  16.285  0.00  0.00    +0.000 C 
ATOM     21  C   UNL     1       7.084   4.731  16.981  0.00  0.00    +0.000 C 
ENDBRANCH   7  20
ENDBRANCH   1   9
BRANCH   4  22
ATOM     22  O   UNL     1       0.244  10.430  20.347  0.00  0.00    +0.000 OA
BRANCH  22  23
ATOM     23  C   UNL     1       0.563  11.668  19.834  0.00  0.00    +0.000 A 
ATOM     24  C   UNL     1       1.732  12.328  20.248  0.00  0.00    +0.000 A 
ATOM     25  C   UNL     1       2.113  13.542  19.674  0.00  0.00    +0.000 A 
ATOM     26  C   UNL     1       1.301  14.142  18.720  0.00  0.00    +0.000 A 
ATOM     27  C   UNL     1       0.089  13.546  18.361  0.00  0.00    +0.000 A 
ATOM     28  C   UNL     1      -0.291  12.314  18.925  0.00  0.00    +0.000 A 
BRANCH  28  29
ATOM     29  N   UNL     1      -1.598  11.754  18.540  0.00  0.00    +0.000 N 
ATOM     30  O   UNL     1      -1.658  10.932  17.618  0.00  0.00    +0.000 OA
ATOM     31  O   UNL     1      -2.587  12.134  19.186  0.00  0.00    +0.000 OA
ENDBRANCH  28  29
ENDBRANCH  22  23
ENDBRANCH   4  22
TORSDOF 5
ENDMDL
MODEL 8
REMARK VINA RESULT:      -8.8      1.894      2.525
REMARK  Name = 
REMARK  7 active torsions:
REMARK  status: ('A' for Active; 'I' for Inactive)
REMARK    1  A    between atoms: C_1  and  C_2
REMARK    2  A    between atoms: C_2  and  C_3
REMARK    3  A    between atoms: C_2  and  N_4
REMARK    4  A    between atoms: C_6  and  C_7
REMARK    5  A    between atoms: C_10  and  O_11
REMARK    6  A    between atoms: O_11  and  C_12
REMARK    7  A    between atoms: C_17  and  N_18
REMARK                            x       y       z     vdW  Elec       q    Type
REMARK                         _______ _______ _______ _____ _____    ______ ____
ROOT
ATOM      1  C   UNL     1       2.311   7.245  18.894  0.00  0.00    +0.000 A 
ATOM      2  C   UNL     1       1.966   7.377  20.249  0.00  0.00    +0.000 A 
ATOM      3  C   UNL     1       1.294   8.513  20.712  0.00  0.00    +0.000 A 
ATOM      4  C   UNL     1       0.982   9.544  19.830  0.00  0.00    +0.000 A 
ATOM      5  C   UNL     1       1.262   9.397  18.470  0.00  0.00    +0.000 A 
ATOM      6  C   UNL     1       1.925   8.255  18.009  0.00  0.00    +0.000 A 
ENDROOT
BRANCH   1   9
ATOM      7  N   UNL     1       4.594   4.923  17.294  0.00  0.00    +0.000 N 
ATOM      8  C   UNL     1       4.117   6.179  17.569  0.00  0.00    +0.000 A 
ATOM      9  C   UNL     1       3.026   6.066  18.415  0.00  0.00    +0.000 A 
ATOM     10  C   UNL     1       2.847   4.662  18.677  0.00  0.00    +0.000 A 
ATOM     11  C   UNL     1       1.965   3.844  19.407  0.00  0.00    +0.000 A 
ATOM     12  N   UNL     1       0.849   4.302  20.104  0.00  0.00    +0.000 N 
ATOM     13  N   UNL     1       2.157   2.513  19.427  0.00  0.00    +0.000 NA
ATOM     14  C   UNL     1       3.193   2.006  18.733  0.00  0.00    +0.000 A 
ATOM     15  N   UNL     1       4.077   2.669  17.973  0.00  0.00    +0.000 NA
ATOM     16  C   UNL     1       3.853   3.997  17.984  0.00  0.00    +0.000 A 
ATOM     17  H   UNL     1       0.401   5.100  19.671  0.00  0.00    +0.000 HD
ATOM     18  H   UNL     1       0.238   3.521  20.320  0.00  0.00    +0.000 HD
BRANCH   7  20
ATOM     19  C   UNL     1       5.647   5.499  15.135  0.00  0.00    +0.000 C 
ATOM     20  C   UNL     1       5.704   4.626  16.390  0.00  0.00    +0.000 C 
ATOM     21  C   UNL     1       7.056   4.758  17.091  0.00  0.00    +0.000 C 
ENDBRANCH   7  20
ENDBRANCH   1   9
BRANCH   4  22
ATOM     22  O   UNL     1       0.375  10.654  20.382  0.00  0.00    +0.000 OA
BRANCH  22  23
ATOM     23  C   UNL     1       0.666  11.897  19.868  0.00  0.00    +0.000 A 
ATOM     24  C   UNL     1       1.861  12.549  20.217  0.00  0.00    +0.000 A 
ATOM     25  C   UNL     1       2.209  13.770  19.638  0.00  0.00    +0.000 A 
ATOM     26  C   UNL     1       1.342  14.386  18.744  0.00  0.00    +0.000 A 
ATOM     27  C   UNL     1       0.109  13.798  18.453  0.00  0.00    +0.000 A 
ATOM     28  C   UNL     1      -0.240  12.558  19.022  0.00  0.00    +0.000 A 
BRANCH  28  29
ATOM     29  N   UNL     1      -1.571  12.008  18.711  0.00  0.00    +0.000 N 
ATOM     30  O   UNL     1      -2.511  12.220  19.487  0.00  0.00    +0.000 OA
ATOM     31  O   UNL     1      -1.683  11.361  17.658  0.00  0.00    +0.000 OA
ENDBRANCH  28  29
ENDBRANCH  22  23
ENDBRANCH   4  22
TORSDOF 5
ENDMDL
MODEL 9
REMARK VINA RESULT:      -8.8      1.477      1.664
REMARK  Name = 
REMARK  7 active torsions:
REMARK  status: ('A' for Active; 'I' for Inactive)
REMARK    1  A    between atoms: C_1  and  C_2
REMARK    2  A    between atoms: C_2  and  C_3
REMARK    3  A    between atoms: C_2  and  N_4
REMARK    4  A    between atoms: C_6  and  C_7
REMARK    5  A    between atoms: C_10  and  O_11
REMARK    6  A    between atoms: O_11  and  C_12
REMARK    7  A    between atoms: C_17  and  N_18
REMARK                            x       y       z     vdW  Elec       q    Type
REMARK                         _______ _______ _______ _____ _____    ______ ____
ROOT
ATOM      1  C   UNL     1       2.572   6.938  18.687  0.00  0.00    +0.000 A 
ATOM      2  C   UNL     1       2.123   7.012  20.015  0.00  0.00    +0.000 A 
ATOM      3  C   UNL     1       1.551   8.185  20.516  0.00  0.00    +0.000 A 
ATOM      4  C   UNL     1       1.444   9.309  19.702  0.00  0.00    +0.000 A 
ATOM      5  C   UNL     1       1.826   9.229  18.362  0.00  0.00    +0.000 A 
ATOM      6  C   UNL     1       2.389   8.051  17.861  0.00  0.00    +0.000 A 
ENDROOT
BRANCH   1   9
ATOM      7  N   UNL     1       4.639   4.480  16.998  0.00  0.00    +0.000 N 
ATOM      8  C   UNL     1       4.269   5.763  17.311  0.00  0.00    +0.000 A 
ATOM      9  C   UNL     1       3.183   5.717  18.168  0.00  0.00    +0.000 A 
ATOM     10  C   UNL     1       2.894   4.326  18.400  0.00  0.00    +0.000 A 
ATOM     11  C   UNL     1       1.958   3.564  19.123  0.00  0.00    +0.000 A 
ATOM     12  N   UNL     1       0.891   4.092  19.846  0.00  0.00    +0.000 N 
ATOM     13  N   UNL     1       2.042   2.222  19.108  0.00  0.00    +0.000 NA
ATOM     14  C   UNL     1       3.025   1.651  18.387  0.00  0.00    +0.000 A 
ATOM     15  N   UNL     1       3.950   2.259  17.631  0.00  0.00    +0.000 NA
ATOM     16  C   UNL     1       3.835   3.599  17.676  0.00  0.00    +0.000 A 
ATOM     17  H   UNL     1       0.504   4.935  19.439  0.00  0.00    +0.000 HD
ATOM     18  H   UNL     1       0.222   3.358  20.052  0.00  0.00    +0.000 HD
BRANCH   7  20
ATOM     19  C   UNL     1       5.441   4.668  14.670  0.00  0.00    +0.000 C 
ATOM     20  C   UNL     1       5.710   4.117  16.072  0.00  0.00    +0.000 C 
ATOM     21  C   UNL     1       7.079   4.565  16.585  0.00  0.00    +0.000 C 
ENDBRANCH   7  20
ENDBRANCH   1   9
BRANCH   4  22
ATOM     22  O   UNL     1       0.925  10.442  20.294  0.00  0.00    +0.000 OA
BRANCH  22  23
ATOM     23  C   UNL     1      -0.288  10.926  19.858  0.00  0.00    +0.000 A 
ATOM     24  C   UNL     1      -0.824  10.500  18.632  0.00  0.00    +0.000 A 
ATOM     25  C   UNL     1      -2.090  10.915  18.218  0.00  0.00    +0.000 A 
ATOM     26  C   UNL     1      -2.816  11.809  18.997  0.00  0.00    +0.000 A 
ATOM     27  C   UNL     1      -2.262  12.315  20.175  0.00  0.00    +0.000 A 
ATOM     28  C   UNL     1      -0.992  11.886  20.605  0.00  0.00    +0.000 A 
BRANCH  28  29
ATOM     29  N   UNL     1      -0.442  12.486  21.833  0.00  0.00    +0.000 N 
ATOM     30  O   UNL     1      -0.521  11.865  22.900  0.00  0.00    +0.000 OA
ATOM     31  O   UNL     1       0.098  13.598  21.726  0.00  0.00    +0.000 OA
ENDBRANCH  28  29
ENDBRANCH  22  23
ENDBRANCH   4  22
TORSDOF 5
ENDMDL
