MODEL 1
REMARK VINA RESULT:      -7.6      0.000      0.000
REMARK  Name = 
REMARK  7 active torsions:
REMARK  status: ('A' for Active; 'I' for Inactive)
REMARK    1  A    between atoms: C_1  and  C_2
REMARK    2  A    between atoms: C_2  and  C_3
REMARK    3  A    between atoms: C_2  and  C_4
REMARK    4  A    between atoms: C_8  and  N_9
REMARK    5  A    between atoms: C_10  and  C_12
REMARK    6  A    between atoms: C_12  and  N_13
REMARK    7  A    between atoms: C_16  and  O_17
REMARK                            x       y       z     vdW  Elec       q    Type
REMARK                         _______ _______ _______ _____ _____    ______ ____
ROOT
ATOM      1  N   UNL     1       6.351   5.231  15.913  0.00  0.00    +0.000 N 
ATOM      2  C   UNL     1       7.054   4.818  17.036  0.00  0.00    +0.000 C 
ATOM      3  O   UNL     1       8.105   4.175  17.041  0.00  0.00    +0.000 OA
ATOM      4  H   UNL     1       5.620   5.914  16.069  0.00  0.00    +0.000 HD
ENDROOT
BRANCH   1   9
ATOM      5  C   UNL     1       6.128   3.557  12.593  0.00  0.00    +0.000 A 
ATOM      6  C   UNL     1       7.158   4.205  11.898  0.00  0.00    +0.000 A 
ATOM      7  C   UNL     1       7.933   5.173  12.526  0.00  0.00    +0.000 A 
ATOM      8  C   UNL     1       7.686   5.518  13.855  0.00  0.00    +0.000 A 
ATOM      9  C   UNL     1       6.655   4.906  14.569  0.00  0.00    +0.000 A 
ATOM     10  C   UNL     1       5.891   3.913  13.937  0.00  0.00    +0.000 A 
BRANCH   5  12
ATOM     11  C   UNL     1       4.148   3.090  11.086  0.00  0.00    +0.000 C 
ATOM     12  C   UNL     1       5.281   2.487  11.922  0.00  0.00    +0.000 C 
ATOM     13  C   UNL     1       6.147   1.554  11.069  0.00  0.00    +0.000 C 
ENDBRANCH   5  12
ENDBRANCH   1   9
BRANCH   2  14
ATOM     14  C   UNL     1       6.416   5.243  18.362  0.00  0.00    +0.000 C 
BRANCH  14  15
ATOM     15  N   UNL     1       4.989   4.854  18.454  0.00  0.00    +0.000 NA
ATOM     16  C   UNL     1       4.117   6.024  18.674  0.00  0.00    +0.000 C 
ATOM     17  C   UNL     1       2.645   5.599  18.692  0.00  0.00    +0.000 C 
ATOM     18  C   UNL     1       2.366   4.506  19.721  0.00  0.00    +0.000 C 
ATOM     19  C   UNL     1       3.390   3.378  19.637  0.00  0.00    +0.000 C 
ATOM     20  C   UNL     1       4.823   3.904  19.570  0.00  0.00    +0.000 C 
BRANCH  18  21
ATOM     21  O   UNL     1       2.336   5.049  21.041  0.00  0.00    +0.000 OA
ATOM     22  H   UNL     1       2.031   4.364  21.658  0.00  0.00    +0.000 HD
ENDBRANCH  18  21
ENDBRANCH  14  15
ENDBRANCH   2  14
TORSDOF 5
ENDMDL
MODEL 2
REMARK VINA RESULT:      -7.5      1.130      1.430
REMARK  Name = 
REMARK  7 active torsions:
REMARK  status: ('A' for Active; 'I' for Inactive)
REMARK    1  A    between atoms: C_1  and  C_2
REMARK    2  A    between atoms: C_2  and  C_3
REMARK    3  A    between atoms: C_2  and  C_4
REMARK    4  A    between atoms: C_8  and  N_9
REMARK    5  A    between atoms: C_10  and  C_12
REMARK    6  A    between atoms: C_12  and  N_13
REMARK    7  A    between atoms: C_16  and  O_17
REMARK                            x       y       z     vdW  Elec       q    Type
REMARK                         _______ _______ _______ _____ _____    ______ ____
ROOT
ATOM      1  N   UNL     1       5.754   4.638  15.780  0.00  0.00    +0.000 N 
ATOM      2  C   UNL     1       6.435   4.494  16.981  0.00  0.00    +0.000 C 
ATOM      3  O   UNL     1       7.655   4.383  17.117  0.00  0.00    +0.000 OA
ATOM      4  H   UNL     1       4.782   4.915  15.847  0.00  0.00    +0.000 HD
ENDROOT
BRANCH   1   9
ATOM      5  C   UNL     1       6.218   3.664  12.215  0.00  0.00    +0.000 A 
ATOM      6  C   UNL     1       7.350   4.418  11.878  0.00  0.00    +0.000 A 
ATOM      7  C   UNL     1       7.968   5.226  12.825  0.00  0.00    +0.000 A 
ATOM      8  C   UNL     1       7.458   5.304  14.122  0.00  0.00    +0.000 A 
ATOM      9  C   UNL     1       6.321   4.581  14.484  0.00  0.00    +0.000 A 
ATOM     10  C   UNL     1       5.716   3.750  13.530  0.00  0.00    +0.000 A 
BRANCH   5  12
ATOM     11  C   UNL     1       5.906   1.291  11.389  0.00  0.00    +0.000 C 
ATOM     12  C   UNL     1       5.540   2.766  11.192  0.00  0.00    +0.000 C 
ATOM     13  C   UNL     1       4.021   2.955  11.214  0.00  0.00    +0.000 C 
ENDBRANCH   5  12
ENDBRANCH   1   9
BRANCH   2  14
ATOM     14  C   UNL     1       5.529   4.494  18.215  0.00  0.00    +0.000 C 
BRANCH  14  15
ATOM     15  N   UNL     1       4.180   3.952  17.927  0.00  0.00    +0.000 NA
ATOM     16  C   UNL     1       3.127   4.963  18.149  0.00  0.00    +0.000 C 
ATOM     17  C   UNL     1       1.754   4.397  17.773  0.00  0.00    +0.000 C 
ATOM     18  C   UNL     1       1.435   3.101  18.515  0.00  0.00    +0.000 C 
ATOM     19  C   UNL     1       2.602   2.120  18.464  0.00  0.00    +0.000 C 
ATOM     20  C   UNL     1       3.933   2.790  18.801  0.00  0.00    +0.000 C 
BRANCH  18  21
ATOM     21  O   UNL     1       1.073   3.369  19.870  0.00  0.00    +0.000 OA
ATOM     22  H   UNL     1       0.117   3.232  19.975  0.00  0.00    +0.000 HD
ENDBRANCH  18  21
ENDBRANCH  14  15
ENDBRANCH   2  14
TORSDOF 5
ENDMDL
MODEL 3
REMARK VINA RESULT:      -7.4      1.491      1.786
REMARK  Name = 
REMARK  7 active torsions:
REMARK  status: ('A' for Active; 'I' for Inactive)
REMARK    1  A    between atoms: C_1  and  C_2
REMARK    2  A    between atoms: C_2  and  C_3
REMARK    3  A    between atoms: C_2  and  C_4
REMARK    4  A    between atoms: C_8  and  N_9
REMARK    5  A    between atoms: C_10  and  C_12
REMARK    6  A    between atoms: C_12  and  N_13
REMARK    7  A    between atoms: C_16  and  O_17
REMARK                            x       y       z     vdW  Elec       q    Type
REMARK                         _______ _______ _______ _____ _____    ______ ____
ROOT
ATOM      1  N   UNL     1       5.841   4.271  15.977  0.00  0.00    +0.000 N 
ATOM      2  C   UNL     1       5.209   5.283  16.686  0.00  0.00    +0.000 C 
ATOM      3  O   UNL     1       4.916   6.400  16.255  0.00  0.00    +0.000 OA
ATOM      4  H   UNL     1       5.833   3.353  16.404  0.00  0.00    +0.000 HD
ENDROOT
BRANCH   1   9
ATOM      5  C   UNL     1       6.208   3.662  12.320  0.00  0.00    +0.000 A 
ATOM      6  C   UNL     1       7.288   4.502  12.017  0.00  0.00    +0.000 A 
ATOM      7  C   UNL     1       7.903   5.250  13.015  0.00  0.00    +0.000 A 
ATOM      8  C   UNL     1       7.443   5.178  14.330  0.00  0.00    +0.000 A 
ATOM      9  C   UNL     1       6.357   4.366  14.663  0.00  0.00    +0.000 A 
ATOM     10  C   UNL     1       5.755   3.598  13.655  0.00  0.00    +0.000 A 
BRANCH   5  12
ATOM     11  C   UNL     1       5.896   1.344  11.351  0.00  0.00    +0.000 C 
ATOM     12  C   UNL     1       5.535   2.829  11.241  0.00  0.00    +0.000 C 
ATOM     13  C   UNL     1       4.015   3.021  11.266  0.00  0.00    +0.000 C 
ENDBRANCH   5  12
ENDBRANCH   1   9
BRANCH   2  14
ATOM     14  C   UNL     1       4.859   4.909  18.129  0.00  0.00    +0.000 C 
BRANCH  14  15
ATOM     15  N   UNL     1       3.675   4.022  18.212  0.00  0.00    +0.000 NA
ATOM     16  C   UNL     1       2.423   4.757  17.943  0.00  0.00    +0.000 C 
ATOM     17  C   UNL     1       1.226   3.801  17.964  0.00  0.00    +0.000 C 
ATOM     18  C   UNL     1       1.130   3.015  19.269  0.00  0.00    +0.000 C 
ATOM     19  C   UNL     1       2.476   2.415  19.666  0.00  0.00    +0.000 C 
ATOM     20  C   UNL     1       3.613   3.430  19.562  0.00  0.00    +0.000 C 
BRANCH  18  21
ATOM     21  O   UNL     1       0.627   3.839  20.321  0.00  0.00    +0.000 OA
ATOM     22  H   UNL     1      -0.339   3.747  20.361  0.00  0.00    +0.000 HD
ENDBRANCH  18  21
ENDBRANCH  14  15
ENDBRANCH   2  14
TORSDOF 5
ENDMDL
MODEL 4
REMARK VINA RESULT:      -7.3      1.516      1.858
REMARK  Name = 
REMARK  7 active torsions:
REMARK  status: ('A' for Active; 'I' for Inactive)
REMARK    1  A    between atoms: C_1  and  C_2
REMARK    2  A    between atoms: C_2  and  C_3
REMARK    3  A    between atoms: C_2  and  C_4
REMARK    4  A    between atoms: C_8  and  N_9
REMARK    5  A    between atoms: C_10  and  C_12
REMARK    6  A    between atoms: C_12  and  N_13
REMARK    7  A    between atoms: C_16  and  O_17
REMARK                            x       y       z     vdW  Elec       q    Type
REMARK                         _______ _______ _______ _____ _____    ______ ____
ROOT
ATOM      1  N   UNL     1       5.928   4.116  16.039  0.00  0.00    +0.000 N 
ATOM      2  C   UNL     1       5.197   5.046  16.763  0.00  0.00    +0.000 C 
ATOM      3  O   UNL     1       4.771   6.124  16.343  0.00  0.00    +0.000 OA
ATOM      4  H   UNL     1       6.033   3.202  16.461  0.00  0.00    +0.000 HD
ENDROOT
BRANCH   1   9
ATOM      5  C   UNL     1       6.216   3.652  12.354  0.00  0.00    +0.000 A 
ATOM      6  C   UNL     1       7.264   4.533  12.055  0.00  0.00    +0.000 A 
ATOM      7  C   UNL     1       7.885   5.260  13.065  0.00  0.00    +0.000 A 
ATOM      8  C   UNL     1       7.461   5.128  14.387  0.00  0.00    +0.000 A 
ATOM      9  C   UNL     1       6.407   4.274  14.716  0.00  0.00    +0.000 A 
ATOM     10  C   UNL     1       5.800   3.526  13.695  0.00  0.00    +0.000 A 
BRANCH   5  12
ATOM     11  C   UNL     1       5.878   1.350  11.356  0.00  0.00    +0.000 C 
ATOM     12  C   UNL     1       5.538   2.841  11.261  0.00  0.00    +0.000 C 
ATOM     13  C   UNL     1       4.021   3.053  11.280  0.00  0.00    +0.000 C 
ENDBRANCH   5  12
ENDBRANCH   1   9
BRANCH   2  14
ATOM     14  C   UNL     1       4.918   4.630  18.210  0.00  0.00    +0.000 C 
BRANCH  14  15
ATOM     15  N   UNL     1       3.472   4.640  18.532  0.00  0.00    +0.000 NA
ATOM     16  C   UNL     1       3.233   4.918  19.962  0.00  0.00    +0.000 C 
ATOM     17  C   UNL     1       1.730   4.995  20.250  0.00  0.00    +0.000 C 
ATOM     18  C   UNL     1       0.986   3.738  19.804  0.00  0.00    +0.000 C 
ATOM     19  C   UNL     1       1.379   3.322  18.390  0.00  0.00    +0.000 C 
ATOM     20  C   UNL     1       2.894   3.328  18.187  0.00  0.00    +0.000 C 
BRANCH  18  21
ATOM     21  O   UNL     1       1.214   2.664  20.717  0.00  0.00    +0.000 OA
ATOM     22  H   UNL     1       2.074   2.794  21.150  0.00  0.00    +0.000 HD
ENDBRANCH  18  21
ENDBRANCH  14  15
ENDBRANCH   2  14
TORSDOF 5
ENDMDL
MODEL 5
REMARK VINA RESULT:      -7.2      1.188      1.438
REMARK  Name = 
REMARK  7 active torsions:
REMARK  status: ('A' for Active; 'I' for Inactive)
REMARK    1  A    between atoms: C_1  and  C_2
REMARK    2  A    between atoms: C_2  and  C_3
REMARK    3  A    between atoms: C_2  and  C_4
REMARK    4  A    between atoms: C_8  and  N_9
REMARK    5  A    between atoms: C_10  and  C_12
REMARK    6  A    between atoms: C_12  and  N_13
REMARK    7  A    between atoms: C_16  and  O_17
REMARK                            x       y       z     vdW  Elec       q    Type
REMARK                         _______ _______ _______ _____ _____    ______ ____
ROOT
ATOM      1  N   UNL     1       6.023   5.210  15.958  0.00  0.00    +0.000 N 
ATOM      2  C   UNL     1       6.689   4.895  17.133  0.00  0.00    +0.000 C 
ATOM      3  O   UNL     1       7.799   4.365  17.221  0.00  0.00    +0.000 OA
ATOM      4  H   UNL     1       5.217   5.816  16.049  0.00  0.00    +0.000 HD
ENDROOT
BRANCH   1   9
ATOM      5  C   UNL     1       6.104   3.540  12.629  0.00  0.00    +0.000 A 
ATOM      6  C   UNL     1       7.183   4.201  12.025  0.00  0.00    +0.000 A 
ATOM      7  C   UNL     1       7.890   5.177  12.719  0.00  0.00    +0.000 A 
ATOM      8  C   UNL     1       7.525   5.516  14.022  0.00  0.00    +0.000 A 
ATOM      9  C   UNL     1       6.444   4.891  14.645  0.00  0.00    +0.000 A 
ATOM     10  C   UNL     1       5.749   3.891  13.948  0.00  0.00    +0.000 A 
BRANCH   5  12
ATOM     11  C   UNL     1       4.173   3.044  11.070  0.00  0.00    +0.000 C 
ATOM     12  C   UNL     1       5.331   2.461  11.887  0.00  0.00    +0.000 C 
ATOM     13  C   UNL     1       6.260   1.632  10.996  0.00  0.00    +0.000 C 
ENDBRANCH   5  12
ENDBRANCH   1   9
BRANCH   2  14
ATOM     14  C   UNL     1       5.927   5.278  18.404  0.00  0.00    +0.000 C 
BRANCH  14  15
ATOM     15  N   UNL     1       4.833   4.328  18.716  0.00  0.00    +0.000 NA
ATOM     16  C   UNL     1       4.443   3.536  17.533  0.00  0.00    +0.000 C 
ATOM     17  C   UNL     1       3.363   2.515  17.904  0.00  0.00    +0.000 C 
ATOM     18  C   UNL     1       2.145   3.165  18.555  0.00  0.00    +0.000 C 
ATOM     19  C   UNL     1       2.547   4.145  19.652  0.00  0.00    +0.000 C 
ATOM     20  C   UNL     1       3.665   5.086  19.204  0.00  0.00    +0.000 C 
BRANCH  18  21
ATOM     21  O   UNL     1       1.338   3.822  17.577  0.00  0.00    +0.000 OA
ATOM     22  H   UNL     1       0.409   3.575  17.715  0.00  0.00    +0.000 HD
ENDBRANCH  18  21
ENDBRANCH  14  15
ENDBRANCH   2  14
TORSDOF 5
ENDMDL
MODEL 6
REMARK VINA RESULT:      -7.2      1.371      1.494
REMARK  Name = 
REMARK  7 active torsions:
REMARK  status: ('A' for Active; 'I' for Inactive)
REMARK    1  A    between atoms: C_1  and  C_2
REMARK    2  A    between atoms: C_2  and  C_3
REMARK    3  A    between atoms: C_2  and  C_4
REMARK    4  A    between atoms: C_8  and  N_9
REMARK    5  A    between atoms: C_10  and  C_12
REMARK    6  A    between atoms: C_12  and  N_13
REMARK    7  A    between atoms: C_16  and  O_17
REMARK                            x       y       z     vdW  Elec       q    Type
REMARK                         _______ _______ _______ _____ _____    ______ ____
ROOT
ATOM      1  N   UNL     1       5.884   4.612  16.415  0.00  0.00    +0.000 N 
ATOM      2  C   UNL     1       5.200   5.668  17.000  0.00  0.00    +0.000 C 
ATOM      3  O   UNL     1       4.765   6.664  16.419  0.00  0.00    +0.000 OA
ATOM      4  H   UNL     1       6.000   3.783  16.985  0.00  0.00    +0.000 HD
ENDROOT
BRANCH   1   9
ATOM      5  C   UNL     1       5.971   3.520  12.854  0.00  0.00    +0.000 A 
ATOM      6  C   UNL     1       7.021   4.305  12.360  0.00  0.00    +0.000 A 
ATOM      7  C   UNL     1       7.709   5.174  13.200  0.00  0.00    +0.000 A 
ATOM      8  C   UNL     1       7.351   5.282  14.544  0.00  0.00    +0.000 A 
ATOM      9  C   UNL     1       6.297   4.528  15.064  0.00  0.00    +0.000 A 
ATOM     10  C   UNL     1       5.622   3.636  14.216  0.00  0.00    +0.000 A 
BRANCH   5  12
ATOM     11  C   UNL     1       4.215   3.278  11.047  0.00  0.00    +0.000 C 
ATOM     12  C   UNL     1       5.220   2.556  11.950  0.00  0.00    +0.000 C 
ATOM     13  C   UNL     1       6.190   1.714  11.116  0.00  0.00    +0.000 C 
ENDBRANCH   5  12
ENDBRANCH   1   9
BRANCH   2  14
ATOM     14  C   UNL     1       4.989   5.515  18.509  0.00  0.00    +0.000 C 
BRANCH  14  15
ATOM     15  N   UNL     1       3.797   4.698  18.833  0.00  0.00    +0.000 NA
ATOM     16  C   UNL     1       2.919   5.376  19.807  0.00  0.00    +0.000 C 
ATOM     17  C   UNL     1       1.660   4.542  20.067  0.00  0.00    +0.000 C 
ATOM     18  C   UNL     1       1.986   3.121  20.519  0.00  0.00    +0.000 C 
ATOM     19  C   UNL     1       3.049   2.477  19.634  0.00  0.00    +0.000 C 
ATOM     20  C   UNL     1       4.237   3.406  19.391  0.00  0.00    +0.000 C 
BRANCH  18  21
ATOM     21  O   UNL     1       2.406   3.108  21.884  0.00  0.00    +0.000 OA
ATOM     22  H   UNL     1       2.956   2.322  22.039  0.00  0.00    +0.000 HD
ENDBRANCH  18  21
ENDBRANCH  14  15
ENDBRANCH   2  14
TORSDOF 5
ENDMDL
MODEL 7
REMARK VINA RESULT:      -7.2      1.647      1.972
REMARK  Name = 
REMARK  7 active torsions:
REMARK  status: ('A' for Active; 'I' for Inactive)
REMARK    1  A    between atoms: C_1  and  C_2
REMARK    2  A    between atoms: C_2  and  C_3
REMARK    3  A    between atoms: C_2  and  C_4
REMARK    4  A    between atoms: C_8  and  N_9
REMARK    5  A    between atoms: C_10  and  C_12
REMARK    6  A    between atoms: C_12  and  N_13
REMARK    7  A    between atoms: C_16  and  O_17
REMARK                            x       y       z     vdW  Elec       q    Type
REMARK                         _______ _______ _______ _____ _____    ______ ____
ROOT
ATOM      1  N   UNL     1       6.198   4.729  16.176  0.00  0.00    +0.000 N 
ATOM      2  C   UNL     1       5.476   5.771  16.739  0.00  0.00    +0.000 C 
ATOM      3  O   UNL     1       4.931   6.693  16.129  0.00  0.00    +0.000 OA
ATOM      4  H   UNL     1       6.412   3.951  16.787  0.00  0.00    +0.000 HD
ENDROOT
BRANCH   1   9
ATOM      5  C   UNL     1       6.074   3.477  12.670  0.00  0.00    +0.000 A 
ATOM      6  C   UNL     1       7.090   4.239  12.078  0.00  0.00    +0.000 A 
ATOM      7  C   UNL     1       7.824   5.146  12.835  0.00  0.00    +0.000 A 
ATOM      8  C   UNL     1       7.548   5.314  14.192  0.00  0.00    +0.000 A 
ATOM      9  C   UNL     1       6.529   4.584  14.807  0.00  0.00    +0.000 A 
ATOM     10  C   UNL     1       5.807   3.655  14.043  0.00  0.00    +0.000 A 
BRANCH   5  12
ATOM     11  C   UNL     1       4.184   3.150  11.016  0.00  0.00    +0.000 C 
ATOM     12  C   UNL     1       5.272   2.472  11.857  0.00  0.00    +0.000 C 
ATOM     13  C   UNL     1       6.189   1.622  10.973  0.00  0.00    +0.000 C 
ENDBRANCH   5  12
ENDBRANCH   1   9
BRANCH   2  14
ATOM     14  C   UNL     1       5.374   5.706  18.266  0.00  0.00    +0.000 C 
BRANCH  14  15
ATOM     15  N   UNL     1       4.200   4.924  18.721  0.00  0.00    +0.000 NA
ATOM     16  C   UNL     1       4.590   3.585  19.206  0.00  0.00    +0.000 C 
ATOM     17  C   UNL     1       3.368   2.830  19.737  0.00  0.00    +0.000 C 
ATOM     18  C   UNL     1       2.248   2.735  18.704  0.00  0.00    +0.000 C 
ATOM     19  C   UNL     1       1.971   4.083  18.046  0.00  0.00    +0.000 C 
ATOM     20  C   UNL     1       3.255   4.780  17.598  0.00  0.00    +0.000 C 
BRANCH  18  21
ATOM     21  O   UNL     1       2.555   1.754  17.713  0.00  0.00    +0.000 OA
ATOM     22  H   UNL     1       2.975   0.990  18.143  0.00  0.00    +0.000 HD
ENDBRANCH  18  21
ENDBRANCH  14  15
ENDBRANCH   2  14
TORSDOF 5
ENDMDL
MODEL 8
REMARK VINA RESULT:      -7.2      0.982      1.095
REMARK  Name = 
REMARK  7 active torsions:
REMARK  status: ('A' for Active; 'I' for Inactive)
REMARK    1  A    between atoms: C_1  and  C_2
REMARK    2  A    between atoms: C_2  and  C_3
REMARK    3  A    between atoms: C_2  and  C_4
REMARK    4  A    between atoms: C_8  and  N_9
REMARK    5  A    between atoms: C_10  and  C_12
REMARK    6  A    between atoms: C_12  and  N_13
REMARK    7  A    between atoms: C_16  and  O_17
REMARK                            x       y       z     vdW  Elec       q    Type
REMARK                         _______ _______ _______ _____ _____    ______ ____
ROOT
ATOM      1  N   UNL     1       5.720   5.037  16.317  0.00  0.00    +0.000 N 
ATOM      2  C   UNL     1       6.373   4.779  17.513  0.00  0.00    +0.000 C 
ATOM      3  O   UNL     1       7.528   4.366  17.638  0.00  0.00    +0.000 OA
ATOM      4  H   UNL     1       4.852   5.555  16.384  0.00  0.00    +0.000 HD
ENDROOT
BRANCH   1   9
ATOM      5  C   UNL     1       5.972   3.565  12.904  0.00  0.00    +0.000 A 
ATOM      6  C   UNL     1       7.112   4.218  12.416  0.00  0.00    +0.000 A 
ATOM      7  C   UNL     1       7.803   5.123  13.214  0.00  0.00    +0.000 A 
ATOM      8  C   UNL     1       7.362   5.399  14.508  0.00  0.00    +0.000 A 
ATOM      9  C   UNL     1       6.219   4.780  15.018  0.00  0.00    +0.000 A 
ATOM     10  C   UNL     1       5.539   3.851  14.216  0.00  0.00    +0.000 A 
BRANCH   5  12
ATOM     11  C   UNL     1       4.135   3.237  11.193  0.00  0.00    +0.000 C 
ATOM     12  C   UNL     1       5.215   2.563  12.048  0.00  0.00    +0.000 C 
ATOM     13  C   UNL     1       6.173   1.754  11.170  0.00  0.00    +0.000 C 
ENDBRANCH   5  12
ENDBRANCH   1   9
BRANCH   2  14
ATOM     14  C   UNL     1       5.529   5.065  18.759  0.00  0.00    +0.000 C 
BRANCH  14  15
ATOM     15  N   UNL     1       4.239   4.336  18.748  0.00  0.00    +0.000 NA
ATOM     16  C   UNL     1       3.231   4.998  19.599  0.00  0.00    +0.000 C 
ATOM     17  C   UNL     1       1.889   4.264  19.510  0.00  0.00    +0.000 C 
ATOM     18  C   UNL     1       2.011   2.782  19.857  0.00  0.00    +0.000 C 
ATOM     19  C   UNL     1       3.184   2.129  19.133  0.00  0.00    +0.000 C 
ATOM     20  C   UNL     1       4.461   2.961  19.234  0.00  0.00    +0.000 C 
BRANCH  18  21
ATOM     21  O   UNL     1       2.138   2.601  21.268  0.00  0.00    +0.000 OA
ATOM     22  H   UNL     1       2.133   3.471  21.700  0.00  0.00    +0.000 HD
ENDBRANCH  18  21
ENDBRANCH  14  15
ENDBRANCH   2  14
TORSDOF 5
ENDMDL
MODEL 9
REMARK VINA RESULT:      -7.2      1.559      1.896
REMARK  Name = 
REMARK  7 active torsions:
REMARK  status: ('A' for Active; 'I' for Inactive)
REMARK    1  A    between atoms: C_1  and  C_2
REMARK    2  A    between atoms: C_2  and  C_3
REMARK    3  A    between atoms: C_2  and  C_4
REMARK    4  A    between atoms: C_8  and  N_9
REMARK    5  A    between atoms: C_10  and  C_12
REMARK    6  A    between atoms: C_12  and  N_13
REMARK    7  A    between atoms: C_16  and  O_17
REMARK                            x       y       z     vdW  Elec       q    Type
REMARK                         _______ _______ _______ _____ _____    ______ ____
ROOT
ATOM      1  N   UNL     1       5.719   5.276  15.787  0.00  0.00    +0.000 N 
ATOM      2  C   UNL     1       6.250   4.947  17.025  0.00  0.00    +0.000 C 
ATOM      3  O   UNL     1       7.310   4.349  17.227  0.00  0.00    +0.000 OA
ATOM      4  H   UNL     1       4.949   5.935  15.791  0.00  0.00    +0.000 HD
ENDROOT
BRANCH   1   9
ATOM      5  C   UNL     1       6.042   3.478  12.541  0.00  0.00    +0.000 A 
ATOM      6  C   UNL     1       7.176   4.101  12.002  0.00  0.00    +0.000 A 
ATOM      7  C   UNL     1       7.840   5.094  12.714  0.00  0.00    +0.000 A 
ATOM      8  C   UNL     1       7.377   5.488  13.969  0.00  0.00    +0.000 A 
ATOM      9  C   UNL     1       6.239   4.901  14.525  0.00  0.00    +0.000 A 
ATOM     10  C   UNL     1       5.586   3.885  13.812  0.00  0.00    +0.000 A 
BRANCH   5  12
ATOM     11  C   UNL     1       4.195   2.943  10.893  0.00  0.00    +0.000 C 
ATOM     12  C   UNL     1       5.313   2.382  11.779  0.00  0.00    +0.000 C 
ATOM     13  C   UNL     1       6.291   1.543  10.952  0.00  0.00    +0.000 C 
ENDBRANCH   5  12
ENDBRANCH   1   9
BRANCH   2  14
ATOM     14  C   UNL     1       5.399   5.406  18.212  0.00  0.00    +0.000 C 
BRANCH  14  15
ATOM     15  N   UNL     1       4.337   4.433  18.558  0.00  0.00    +0.000 NA
ATOM     16  C   UNL     1       4.798   3.457  19.566  0.00  0.00    +0.000 C 
ATOM     17  C   UNL     1       3.658   2.511  19.957  0.00  0.00    +0.000 C 
ATOM     18  C   UNL     1       3.047   1.805  18.749  0.00  0.00    +0.000 C 
ATOM     19  C   UNL     1       2.751   2.781  17.615  0.00  0.00    +0.000 C 
ATOM     20  C   UNL     1       3.928   3.715  17.336  0.00  0.00    +0.000 C 
BRANCH  18  21
ATOM     21  O   UNL     1       3.902   0.757  18.290  0.00  0.00    +0.000 OA
ATOM     22  H   UNL     1       3.619  -0.081  18.691  0.00  0.00    +0.000 HD
ENDBRANCH  18  21
ENDBRANCH  14  15
ENDBRANCH   2  14
TORSDOF 5
ENDMDL
