MODEL 1
REMARK VINA RESULT:      -9.5      0.000      0.000
REMARK  Name = 
REMARK  7 active torsions:
REMARK  status: ('A' for Active; 'I' for Inactive)
REMARK    1  A    between atoms: C_2  and  O_3
REMARK    2  A    between atoms: C_2  and  C_4
REMARK    3  A    between atoms: N_9  and  C_10
REMARK    4  A    between atoms: C_12  and  C_13
REMARK    5  A    between atoms: C_15  and  C_16
REMARK    6  A    between atoms: N_21  and  C_22
REMARK    7  A    between atoms: C_22  and  C_23
REMARK                            x       y       z     vdW  Elec       q    Type
REMARK                         _______ _______ _______ _____ _____    ______ ____
ROOT
ATOM      1  C   UNL     1       2.298   6.505  19.133  0.00  0.00    +0.000 A 
ATOM      2  C   UNL     1       1.887   6.796  20.467  0.00  0.00    +0.000 A 
ATOM      3  C   UNL     1       1.449   8.103  20.467  0.00  0.00    +0.000 A 
ATOM      4  N   UNL     1       1.696   8.560  19.200  0.00  0.00    +0.000 N 
ATOM      5  N   UNL     1       2.189   7.609  18.374  0.00  0.00    +0.000 NA
ENDROOT
BRANCH   1   8
ATOM      6  C   UNL     1       4.304   3.928  17.434  0.00  0.00    +0.000 A 
ATOM      7  N   UNL     1       3.884   5.131  17.874  0.00  0.00    +0.000 NA
ATOM      8  C   UNL     1       2.751   5.196  18.622  0.00  0.00    +0.000 A 
ATOM      9  N   UNL     1       1.984   4.139  18.954  0.00  0.00    +0.000 NA
ATOM     10  C   UNL     1       2.412   2.952  18.501  0.00  0.00    +0.000 A 
ATOM     11  C   UNL     1       3.555   2.793  17.753  0.00  0.00    +0.000 A 
ATOM     12  F   UNL     1       3.947   1.548  17.447  0.00  0.00    +0.000 F 
BRANCH   6  18
ATOM     13  C   UNL     1       6.711   4.707  17.158  0.00  0.00    +0.000 C 
ATOM     14  C   UNL     1       6.923   5.838  16.145  0.00  0.00    +0.000 C 
ATOM     15  C   UNL     1       7.065   5.268  14.737  0.00  0.00    +0.000 C 
ATOM     16  C   UNL     1       5.830   4.452  14.390  0.00  0.00    +0.000 C 
ATOM     17  C   UNL     1       5.582   3.333  15.404  0.00  0.00    +0.000 C 
ATOM     18  N   UNL     1       5.543   3.841  16.795  0.00  0.00    +0.000 N 
BRANCH  13  20
ATOM     19  O   UNL     1       7.496   6.145  18.990  0.00  0.00    +0.000 OA
ATOM     20  C   UNL     1       6.809   5.204  18.613  0.00  0.00    +0.000 C 
BRANCH  20  21
ATOM     21  O   UNL     1       6.196   4.361  19.491  0.00  0.00    +0.000 OA
ATOM     22  H   UNL     1       6.543   3.457  19.355  0.00  0.00    +0.000 HD
ENDBRANCH  20  21
ENDBRANCH  13  20
ENDBRANCH   6  18
ENDBRANCH   1   8
BRANCH   3  23
ATOM     23  C   UNL     1       0.837   8.810  21.627  0.00  0.00    +0.000 A 
ATOM     24  C   UNL     1      -0.528   8.900  21.969  0.00  0.00    +0.000 A 
ATOM     25  C   UNL     1      -0.555   9.663  23.105  0.00  0.00    +0.000 A 
ATOM     26  O   UNL     1       0.711   9.998  23.446  0.00  0.00    +0.000 OA
ATOM     27  N   UNL     1       1.594   9.438  22.539  0.00  0.00    +0.000 NA
ENDBRANCH   3  23
BRANCH   4  28
ATOM     28  C   UNL     1       1.586   9.926  18.686  0.00  0.00    +0.000 C 
BRANCH  28  29
ATOM     29  C   UNL     1       0.159  10.397  18.584  0.00  0.00    +0.000 A 
ATOM     30  C   UNL     1      -0.763   9.825  17.695  0.00  0.00    +0.000 A 
ATOM     31  C   UNL     1      -2.086  10.268  17.660  0.00  0.00    +0.000 A 
ATOM     32  C   UNL     1      -2.502  11.304  18.494  0.00  0.00    +0.000 A 
ATOM     33  C   UNL     1      -1.589  11.908  19.354  0.00  0.00    +0.000 A 
ATOM     34  C   UNL     1      -0.270  11.463  19.382  0.00  0.00    +0.000 A 
ATOM     35  F   UNL     1       0.585  12.038  20.239  0.00  0.00    +0.000 F 
ENDBRANCH  28  29
ENDBRANCH   4  28
TORSDOF 7
ENDMDL
MODEL 2
REMARK VINA RESULT:      -9.5      1.061      1.193
REMARK  Name = 
REMARK  7 active torsions:
REMARK  status: ('A' for Active; 'I' for Inactive)
REMARK    1  A    between atoms: C_2  and  O_3
REMARK    2  A    between atoms: C_2  and  C_4
REMARK    3  A    between atoms: N_9  and  C_10
REMARK    4  A    between atoms: C_12  and  C_13
REMARK    5  A    between atoms: C_15  and  C_16
REMARK    6  A    between atoms: N_21  and  C_22
REMARK    7  A    between atoms: C_22  and  C_23
REMARK                            x       y       z     vdW  Elec       q    Type
REMARK                         _______ _______ _______ _____ _____    ______ ____
ROOT
ATOM      1  C   UNL     1       2.351   7.058  19.712  0.00  0.00    +0.000 A 
ATOM      2  C   UNL     1       1.850   7.610  20.928  0.00  0.00    +0.000 A 
ATOM      3  C   UNL     1       1.255   8.809  20.599  0.00  0.00    +0.000 A 
ATOM      4  N   UNL     1       1.499   8.972  19.262  0.00  0.00    +0.000 N 
ATOM      5  N   UNL     1       2.140   7.920  18.702  0.00  0.00    +0.000 NA
ENDROOT
BRANCH   1   8
ATOM      6  C   UNL     1       4.520   4.361  18.459  0.00  0.00    +0.000 A 
ATOM      7  N   UNL     1       3.929   5.566  18.585  0.00  0.00    +0.000 NA
ATOM      8  C   UNL     1       2.983   5.735  19.546  0.00  0.00    +0.000 A 
ATOM      9  N   UNL     1       2.562   4.773  20.391  0.00  0.00    +0.000 NA
ATOM     10  C   UNL     1       3.153   3.579  20.245  0.00  0.00    +0.000 A 
ATOM     11  C   UNL     1       4.131   3.325  19.312  0.00  0.00    +0.000 A 
ATOM     12  F   UNL     1       4.731   2.126  19.328  0.00  0.00    +0.000 F 
BRANCH   6  18
ATOM     13  C   UNL     1       6.851   5.035  17.694  0.00  0.00    +0.000 C 
ATOM     14  C   UNL     1       6.902   6.170  16.664  0.00  0.00    +0.000 C 
ATOM     15  C   UNL     1       6.722   5.614  15.255  0.00  0.00    +0.000 C 
ATOM     16  C   UNL     1       5.405   4.860  15.167  0.00  0.00    +0.000 C 
ATOM     17  C   UNL     1       5.321   3.739  16.205  0.00  0.00    +0.000 C 
ATOM     18  N   UNL     1       5.594   4.227  17.576  0.00  0.00    +0.000 N 
BRANCH  13  20
ATOM     19  O   UNL     1       6.795   5.095  20.150  0.00  0.00    +0.000 OA
ATOM     20  C   UNL     1       7.272   5.505  19.099  0.00  0.00    +0.000 C 
BRANCH  20  21
ATOM     21  O   UNL     1       8.107   6.580  19.057  0.00  0.00    +0.000 OA
ATOM     22  H   UNL     1       8.155   6.906  18.136  0.00  0.00    +0.000 HD
ENDBRANCH  20  21
ENDBRANCH  13  20
ENDBRANCH   6  18
ENDBRANCH   1   8
BRANCH   3  23
ATOM     23  C   UNL     1       0.511   9.692  21.542  0.00  0.00    +0.000 A 
ATOM     24  C   UNL     1      -0.675   9.407  22.247  0.00  0.00    +0.000 A 
ATOM     25  C   UNL     1      -0.943  10.546  22.958  0.00  0.00    +0.000 A 
ATOM     26  O   UNL     1       0.028  11.457  22.720  0.00  0.00    +0.000 OA
ATOM     27  N   UNL     1       0.964  10.915  21.855  0.00  0.00    +0.000 NA
ENDBRANCH   3  23
BRANCH   4  28
ATOM     28  C   UNL     1       1.244  10.145  18.425  0.00  0.00    +0.000 C 
BRANCH  28  29
ATOM     29  C   UNL     1      -0.224  10.446  18.275  0.00  0.00    +0.000 A 
ATOM     30  C   UNL     1      -1.110   9.578  17.620  0.00  0.00    +0.000 A 
ATOM     31  C   UNL     1      -2.470   9.879  17.538  0.00  0.00    +0.000 A 
ATOM     32  C   UNL     1      -2.962  11.063  18.084  0.00  0.00    +0.000 A 
ATOM     33  C   UNL     1      -2.088  11.953  18.702  0.00  0.00    +0.000 A 
ATOM     34  C   UNL     1      -0.733  11.648  18.780  0.00  0.00    +0.000 A 
ATOM     35  F   UNL     1       0.085  12.505  19.407  0.00  0.00    +0.000 F 
ENDBRANCH  28  29
ENDBRANCH   4  28
TORSDOF 7
ENDMDL
MODEL 3
REMARK VINA RESULT:      -9.1      0.782      1.136
REMARK  Name = 
REMARK  7 active torsions:
REMARK  status: ('A' for Active; 'I' for Inactive)
REMARK    1  A    between atoms: C_2  and  O_3
REMARK    2  A    between atoms: C_2  and  C_4
REMARK    3  A    between atoms: N_9  and  C_10
REMARK    4  A    between atoms: C_12  and  C_13
REMARK    5  A    between atoms: C_15  and  C_16
REMARK    6  A    between atoms: N_21  and  C_22
REMARK    7  A    between atoms: C_22  and  C_23
REMARK                            x       y       z     vdW  Elec       q    Type
REMARK                         _______ _______ _______ _____ _____    ______ ____
ROOT
ATOM      1  C   UNL     1       2.295   6.571  19.139  0.00  0.00    +0.000 A 
ATOM      2  C   UNL     1       1.845   6.841  20.464  0.00  0.00    +0.000 A 
ATOM      3  C   UNL     1       1.451   8.162  20.483  0.00  0.00    +0.000 A 
ATOM      4  N   UNL     1       1.759   8.643  19.238  0.00  0.00    +0.000 N 
ATOM      5  N   UNL     1       2.251   7.697  18.406  0.00  0.00    +0.000 NA
ENDROOT
BRANCH   1   8
ATOM      6  C   UNL     1       4.267   3.975  17.429  0.00  0.00    +0.000 A 
ATOM      7  N   UNL     1       3.870   5.180  17.885  0.00  0.00    +0.000 NA
ATOM      8  C   UNL     1       2.724   5.261  18.610  0.00  0.00    +0.000 A 
ATOM      9  N   UNL     1       1.921   4.219  18.903  0.00  0.00    +0.000 NA
ATOM     10  C   UNL     1       2.326   3.031  18.433  0.00  0.00    +0.000 A 
ATOM     11  C   UNL     1       3.481   2.855  17.707  0.00  0.00    +0.000 A 
ATOM     12  F   UNL     1       3.846   1.606  17.382  0.00  0.00    +0.000 F 
BRANCH   6  18
ATOM     13  C   UNL     1       6.688   4.722  17.192  0.00  0.00    +0.000 C 
ATOM     14  C   UNL     1       6.934   5.841  16.172  0.00  0.00    +0.000 C 
ATOM     15  C   UNL     1       7.096   5.255  14.773  0.00  0.00    +0.000 C 
ATOM     16  C   UNL     1       5.858   4.451  14.410  0.00  0.00    +0.000 C 
ATOM     17  C   UNL     1       5.577   3.345  15.430  0.00  0.00    +0.000 C 
ATOM     18  N   UNL     1       5.517   3.867  16.815  0.00  0.00    +0.000 N 
BRANCH  13  20
ATOM     19  O   UNL     1       7.419   6.198  19.017  0.00  0.00    +0.000 OA
ATOM     20  C   UNL     1       6.764   5.232  18.644  0.00  0.00    +0.000 C 
BRANCH  20  21
ATOM     21  O   UNL     1       6.175   4.376  19.525  0.00  0.00    +0.000 OA
ATOM     22  H   UNL     1       6.840   4.096  20.186  0.00  0.00    +0.000 HD
ENDBRANCH  20  21
ENDBRANCH  13  20
ENDBRANCH   6  18
ENDBRANCH   1   8
BRANCH   3  23
ATOM     23  C   UNL     1       0.819   8.860  21.639  0.00  0.00    +0.000 A 
ATOM     24  C   UNL     1      -0.550   8.936  21.965  0.00  0.00    +0.000 A 
ATOM     25  C   UNL     1      -0.596   9.695  23.103  0.00  0.00    +0.000 A 
ATOM     26  O   UNL     1       0.662  10.041  23.460  0.00  0.00    +0.000 OA
ATOM     27  N   UNL     1       1.560   9.491  22.561  0.00  0.00    +0.000 NA
ENDBRANCH   3  23
BRANCH   4  28
ATOM     28  C   UNL     1       1.714  10.024  18.757  0.00  0.00    +0.000 C 
BRANCH  28  29
ATOM     29  C   UNL     1       0.337  10.629  18.850  0.00  0.00    +0.000 A 
ATOM     30  C   UNL     1       0.027  11.666  19.741  0.00  0.00    +0.000 A 
ATOM     31  C   UNL     1      -1.253  12.223  19.767  0.00  0.00    +0.000 A 
ATOM     32  C   UNL     1      -2.248  11.734  18.923  0.00  0.00    +0.000 A 
ATOM     33  C   UNL     1      -1.966  10.678  18.061  0.00  0.00    +0.000 A 
ATOM     34  C   UNL     1      -0.688  10.127  18.041  0.00  0.00    +0.000 A 
ATOM     35  F   UNL     1      -0.430   9.130  17.182  0.00  0.00    +0.000 F 
ENDBRANCH  28  29
ENDBRANCH   4  28
TORSDOF 7
ENDMDL
MODEL 4
REMARK VINA RESULT:      -9.1      1.327      1.653
REMARK  Name = 
REMARK  7 active torsions:
REMARK  status: ('A' for Active; 'I' for Inactive)
REMARK    1  A    between atoms: C_2  and  O_3
REMARK    2  A    between atoms: C_2  and  C_4
REMARK    3  A    between atoms: N_9  and  C_10
REMARK    4  A    between atoms: C_12  and  C_13
REMARK    5  A    between atoms: C_15  and  C_16
REMARK    6  A    between atoms: N_21  and  C_22
REMARK    7  A    between atoms: C_22  and  C_23
REMARK                            x       y       z     vdW  Elec       q    Type
REMARK                         _______ _______ _______ _____ _____    ______ ____
ROOT
ATOM      1  C   UNL     1       2.322   7.095  19.774  0.00  0.00    +0.000 A 
ATOM      2  C   UNL     1       1.800   7.612  20.996  0.00  0.00    +0.000 A 
ATOM      3  C   UNL     1       1.224   8.827  20.694  0.00  0.00    +0.000 A 
ATOM      4  N   UNL     1       1.497   9.030  19.367  0.00  0.00    +0.000 N 
ATOM      5  N   UNL     1       2.141   7.991  18.788  0.00  0.00    +0.000 NA
ENDROOT
BRANCH   1   8
ATOM      6  C   UNL     1       4.466   4.410  18.454  0.00  0.00    +0.000 A 
ATOM      7  N   UNL     1       3.884   5.615  18.608  0.00  0.00    +0.000 NA
ATOM      8  C   UNL     1       2.945   5.771  19.578  0.00  0.00    +0.000 A 
ATOM      9  N   UNL     1       2.524   4.796  20.408  0.00  0.00    +0.000 NA
ATOM     10  C   UNL     1       3.107   3.601  20.235  0.00  0.00    +0.000 A 
ATOM     11  C   UNL     1       4.078   3.360  19.290  0.00  0.00    +0.000 A 
ATOM     12  F   UNL     1       4.671   2.157  19.279  0.00  0.00    +0.000 F 
BRANCH   6  18
ATOM     13  C   UNL     1       6.801   5.076  17.692  0.00  0.00    +0.000 C 
ATOM     14  C   UNL     1       6.858   6.237  16.691  0.00  0.00    +0.000 C 
ATOM     15  C   UNL     1       6.664   5.720  15.269  0.00  0.00    +0.000 C 
ATOM     16  C   UNL     1       5.337   4.984  15.171  0.00  0.00    +0.000 C 
ATOM     17  C   UNL     1       5.246   3.837  16.180  0.00  0.00    +0.000 C 
ATOM     18  N   UNL     1       5.534   4.286  17.562  0.00  0.00    +0.000 N 
BRANCH  13  20
ATOM     19  O   UNL     1       6.741   5.094  20.149  0.00  0.00    +0.000 OA
ATOM     20  C   UNL     1       7.235   5.505  19.106  0.00  0.00    +0.000 C 
BRANCH  20  21
ATOM     21  O   UNL     1       8.110   6.550  19.084  0.00  0.00    +0.000 OA
ATOM     22  H   UNL     1       8.827   6.347  18.452  0.00  0.00    +0.000 HD
ENDBRANCH  20  21
ENDBRANCH  13  20
ENDBRANCH   6  18
ENDBRANCH   1   8
BRANCH   3  23
ATOM     23  C   UNL     1       0.468   9.687  21.648  0.00  0.00    +0.000 A 
ATOM     24  C   UNL     1      -0.663   9.345  22.417  0.00  0.00    +0.000 A 
ATOM     25  C   UNL     1      -0.972  10.484  23.111  0.00  0.00    +0.000 A 
ATOM     26  O   UNL     1      -0.075  11.449  22.803  0.00  0.00    +0.000 OA
ATOM     27  N   UNL     1       0.852  10.944  21.908  0.00  0.00    +0.000 NA
ENDBRANCH   3  23
BRANCH   4  28
ATOM     28  C   UNL     1       1.272  10.232  18.564  0.00  0.00    +0.000 C 
BRANCH  28  29
ATOM     29  C   UNL     1      -0.189  10.571  18.419  0.00  0.00    +0.000 A 
ATOM     30  C   UNL     1      -0.786  11.641  19.099  0.00  0.00    +0.000 A 
ATOM     31  C   UNL     1      -2.135  11.943  18.906  0.00  0.00    +0.000 A 
ATOM     32  C   UNL     1      -2.913  11.164  18.051  0.00  0.00    +0.000 A 
ATOM     33  C   UNL     1      -2.343  10.074  17.399  0.00  0.00    +0.000 A 
ATOM     34  C   UNL     1      -0.998   9.778  17.597  0.00  0.00    +0.000 A 
ATOM     35  F   UNL     1      -0.462   8.742  16.936  0.00  0.00    +0.000 F 
ENDBRANCH  28  29
ENDBRANCH   4  28
TORSDOF 7
ENDMDL
MODEL 5
REMARK VINA RESULT:      -9.1      2.536      8.980
REMARK  Name = 
REMARK  7 active torsions:
REMARK  status: ('A' for Active; 'I' for Inactive)
REMARK    1  A    between atoms: C_2  and  O_3
REMARK    2  A    between atoms: C_2  and  C_4
REMARK    3  A    between atoms: N_9  and  C_10
REMARK    4  A    between atoms: C_12  and  C_13
REMARK    5  A    between atoms: C_15  and  C_16
REMARK    6  A    between atoms: N_21  and  C_22
REMARK    7  A    between atoms: C_22  and  C_23
REMARK                            x       y       z     vdW  Elec       q    Type
REMARK                         _______ _______ _______ _____ _____    ______ ____
ROOT
ATOM      1  C   UNL     1       2.768   7.742  17.858  0.00  0.00    +0.000 A 
ATOM      2  C   UNL     1       4.120   7.456  17.507  0.00  0.00    +0.000 A 
ATOM      3  C   UNL     1       4.183   6.102  17.254  0.00  0.00    +0.000 A 
ATOM      4  N   UNL     1       2.932   5.628  17.546  0.00  0.00    +0.000 N 
ATOM      5  N   UNL     1       2.058   6.601  17.894  0.00  0.00    +0.000 NA
ENDROOT
BRANCH   1   8
ATOM      6  C   UNL     1       0.494  10.396  19.013  0.00  0.00    +0.000 A 
ATOM      7  N   UNL     1       0.997   9.173  18.755  0.00  0.00    +0.000 NA
ATOM      8  C   UNL     1       2.195   9.076  18.120  0.00  0.00    +0.000 A 
ATOM      9  N   UNL     1       2.931  10.124  17.700  0.00  0.00    +0.000 NA
ATOM     10  C   UNL     1       2.412  11.333  17.957  0.00  0.00    +0.000 A 
ATOM     11  C   UNL     1       1.216  11.522  18.610  0.00  0.00    +0.000 A 
ATOM     12  F   UNL     1       0.846  12.775  18.911  0.00  0.00    +0.000 F 
BRANCH   6  18
ATOM     13  C   UNL     1      -1.943  11.075  19.282  0.00  0.00    +0.000 C 
ATOM     14  C   UNL     1      -2.174  12.503  19.791  0.00  0.00    +0.000 C 
ATOM     15  C   UNL     1      -2.114  12.539  21.315  0.00  0.00    +0.000 C 
ATOM     16  C   UNL     1      -0.770  12.006  21.784  0.00  0.00    +0.000 C 
ATOM     17  C   UNL     1      -0.505  10.591  21.266  0.00  0.00    +0.000 C 
ATOM     18  N   UNL     1      -0.659  10.499  19.796  0.00  0.00    +0.000 N 
BRANCH  13  20
ATOM     19  O   UNL     1      -2.540   9.895  17.210  0.00  0.00    +0.000 OA
ATOM     20  C   UNL     1      -2.238  10.938  17.776  0.00  0.00    +0.000 C 
BRANCH  20  21
ATOM     21  O   UNL     1      -1.940  12.074  17.085  0.00  0.00    +0.000 OA
ATOM     22  H   UNL     1      -2.249  12.846  17.599  0.00  0.00    +0.000 HD
ENDBRANCH  20  21
ENDBRANCH  13  20
ENDBRANCH   6  18
ENDBRANCH   1   8
BRANCH   3  23
ATOM     23  C   UNL     1       5.383   5.370  16.759  0.00  0.00    +0.000 A 
ATOM     24  C   UNL     1       5.525   4.647  15.557  0.00  0.00    +0.000 A 
ATOM     25  C   UNL     1       6.805   4.163  15.590  0.00  0.00    +0.000 A 
ATOM     26  O   UNL     1       7.410   4.581  16.725  0.00  0.00    +0.000 OA
ATOM     27  N   UNL     1       6.531   5.367  17.450  0.00  0.00    +0.000 NA
ENDBRANCH   3  23
BRANCH   4  28
ATOM     28  C   UNL     1       2.478   4.239  17.620  0.00  0.00    +0.000 C 
BRANCH  28  29
ATOM     29  C   UNL     1       2.395   3.728  19.035  0.00  0.00    +0.000 A 
ATOM     30  C   UNL     1       1.226   3.821  19.804  0.00  0.00    +0.000 A 
ATOM     31  C   UNL     1       1.183   3.299  21.098  0.00  0.00    +0.000 A 
ATOM     32  C   UNL     1       2.313   2.702  21.652  0.00  0.00    +0.000 A 
ATOM     33  C   UNL     1       3.492   2.638  20.916  0.00  0.00    +0.000 A 
ATOM     34  C   UNL     1       3.529   3.160  19.627  0.00  0.00    +0.000 A 
ATOM     35  F   UNL     1       4.667   3.061  18.924  0.00  0.00    +0.000 F 
ENDBRANCH  28  29
ENDBRANCH   4  28
TORSDOF 7
ENDMDL
MODEL 6
REMARK VINA RESULT:      -9.1      2.374      8.921
REMARK  Name = 
REMARK  7 active torsions:
REMARK  status: ('A' for Active; 'I' for Inactive)
REMARK    1  A    between atoms: C_2  and  O_3
REMARK    2  A    between atoms: C_2  and  C_4
REMARK    3  A    between atoms: N_9  and  C_10
REMARK    4  A    between atoms: C_12  and  C_13
REMARK    5  A    between atoms: C_15  and  C_16
REMARK    6  A    between atoms: N_21  and  C_22
REMARK    7  A    between atoms: C_22  and  C_23
REMARK                            x       y       z     vdW  Elec       q    Type
REMARK                         _______ _______ _______ _____ _____    ______ ____
ROOT
ATOM      1  C   UNL     1       2.054   8.489  18.599  0.00  0.00    +0.000 A 
ATOM      2  C   UNL     1       3.098   8.421  17.630  0.00  0.00    +0.000 A 
ATOM      3  C   UNL     1       3.739   7.217  17.829  0.00  0.00    +0.000 A 
ATOM      4  N   UNL     1       3.138   6.671  18.932  0.00  0.00    +0.000 N 
ATOM      5  N   UNL     1       2.107   7.412  19.401  0.00  0.00    +0.000 NA
ENDROOT
BRANCH   1   8
ATOM      6  C   UNL     1       0.259  11.492  19.746  0.00  0.00    +0.000 A 
ATOM      7  N   UNL     1       1.180  10.511  19.666  0.00  0.00    +0.000 NA
ATOM      8  C   UNL     1       1.035   9.551  18.715  0.00  0.00    +0.000 A 
ATOM      9  N   UNL     1       0.015   9.484  17.836  0.00  0.00    +0.000 NA
ATOM     10  C   UNL     1      -0.897  10.461  17.937  0.00  0.00    +0.000 A 
ATOM     11  C   UNL     1      -0.819  11.481  18.857  0.00  0.00    +0.000 A 
ATOM     12  F   UNL     1      -1.727  12.465  18.796  0.00  0.00    +0.000 F 
BRANCH   6  18
ATOM     13  C   UNL     1      -0.273  12.736  21.900  0.00  0.00    +0.000 C 
ATOM     14  C   UNL     1      -1.349  13.822  21.783  0.00  0.00    +0.000 C 
ATOM     15  C   UNL     1      -0.729  15.134  21.311  0.00  0.00    +0.000 C 
ATOM     16  C   UNL     1      -0.029  14.917  19.979  0.00  0.00    +0.000 C 
ATOM     17  C   UNL     1       1.032  13.817  20.065  0.00  0.00    +0.000 C 
ATOM     18  N   UNL     1       0.485  12.558  20.620  0.00  0.00    +0.000 N 
BRANCH  13  20
ATOM     19  O   UNL     1      -1.923  11.339  23.068  0.00  0.00    +0.000 OA
ATOM     20  C   UNL     1      -0.797  11.471  22.605  0.00  0.00    +0.000 C 
BRANCH  20  21
ATOM     21  O   UNL     1       0.190  10.562  22.840  0.00  0.00    +0.000 OA
ATOM     22  H   UNL     1       0.344  10.505  23.804  0.00  0.00    +0.000 HD
ENDBRANCH  20  21
ENDBRANCH  13  20
ENDBRANCH   6  18
ENDBRANCH   1   8
BRANCH   3  23
ATOM     23  C   UNL     1       4.839   6.673  16.982  0.00  0.00    +0.000 A 
ATOM     24  C   UNL     1       4.783   5.602  16.068  0.00  0.00    +0.000 A 
ATOM     25  C   UNL     1       6.053   5.503  15.567  0.00  0.00    +0.000 A 
ATOM     26  O   UNL     1       6.827   6.463  16.123  0.00  0.00    +0.000 OA
ATOM     27  N   UNL     1       6.061   7.224  16.990  0.00  0.00    +0.000 NA
ENDBRANCH   3  23
BRANCH   4  28
ATOM     28  C   UNL     1       3.529   5.482  19.689  0.00  0.00    +0.000 C 
BRANCH  28  29
ATOM     29  C   UNL     1       2.728   4.263  19.313  0.00  0.00    +0.000 A 
ATOM     30  C   UNL     1       3.136   3.371  18.310  0.00  0.00    +0.000 A 
ATOM     31  C   UNL     1       2.381   2.233  18.021  0.00  0.00    +0.000 A 
ATOM     32  C   UNL     1       1.196   1.982  18.709  0.00  0.00    +0.000 A 
ATOM     33  C   UNL     1       0.758   2.879  19.680  0.00  0.00    +0.000 A 
ATOM     34  C   UNL     1       1.514   4.012  19.963  0.00  0.00    +0.000 A 
ATOM     35  F   UNL     1       1.089   4.847  20.922  0.00  0.00    +0.000 F 
ENDBRANCH  28  29
ENDBRANCH   4  28
TORSDOF 7
ENDMDL
MODEL 7
REMARK VINA RESULT:      -9.0      2.243      9.068
REMARK  Name = 
REMARK  7 active torsions:
REMARK  status: ('A' for Active; 'I' for Inactive)
REMARK    1  A    between atoms: C_2  and  O_3
REMARK    2  A    between atoms: C_2  and  C_4
REMARK    3  A    between atoms: N_9  and  C_10
REMARK    4  A    between atoms: C_12  and  C_13
REMARK    5  A    between atoms: C_15  and  C_16
REMARK    6  A    between atoms: N_21  and  C_22
REMARK    7  A    between atoms: C_22  and  C_23
REMARK                            x       y       z     vdW  Elec       q    Type
REMARK                         _______ _______ _______ _____ _____    ______ ____
ROOT
ATOM      1  C   UNL     1       1.954   8.465  18.731  0.00  0.00    +0.000 A 
ATOM      2  C   UNL     1       2.910   8.297  17.687  0.00  0.00    +0.000 A 
ATOM      3  C   UNL     1       3.552   7.101  17.932  0.00  0.00    +0.000 A 
ATOM      4  N   UNL     1       3.041   6.661  19.124  0.00  0.00    +0.000 N 
ATOM      5  N   UNL     1       2.063   7.457  19.614  0.00  0.00    +0.000 NA
ENDROOT
BRANCH   1   8
ATOM      6  C   UNL     1       0.215  11.498  19.885  0.00  0.00    +0.000 A 
ATOM      7  N   UNL     1       1.112  10.495  19.809  0.00  0.00    +0.000 NA
ATOM      8  C   UNL     1       0.961   9.552  18.842  0.00  0.00    +0.000 A 
ATOM      9  N   UNL     1      -0.044   9.523  17.944  0.00  0.00    +0.000 NA
ATOM     10  C   UNL     1      -0.932  10.522  18.041  0.00  0.00    +0.000 A 
ATOM     11  C   UNL     1      -0.845  11.527  18.976  0.00  0.00    +0.000 A 
ATOM     12  F   UNL     1      -1.726  12.536  18.911  0.00  0.00    +0.000 F 
BRANCH   6  18
ATOM     13  C   UNL     1      -0.326  12.728  22.046  0.00  0.00    +0.000 C 
ATOM     14  C   UNL     1      -1.371  13.843  21.922  0.00  0.00    +0.000 C 
ATOM     15  C   UNL     1      -0.707  15.144  21.480  0.00  0.00    +0.000 C 
ATOM     16  C   UNL     1       0.013  14.926  20.159  0.00  0.00    +0.000 C 
ATOM     17  C   UNL     1       1.043  13.798  20.252  0.00  0.00    +0.000 C 
ATOM     18  N   UNL     1       0.452  12.546  20.778  0.00  0.00    +0.000 N 
BRANCH  13  20
ATOM     19  O   UNL     1      -2.036  11.360  23.162  0.00  0.00    +0.000 OA
ATOM     20  C   UNL     1      -0.898  11.467  22.723  0.00  0.00    +0.000 C 
BRANCH  20  21
ATOM     21  O   UNL     1       0.060  10.529  22.963  0.00  0.00    +0.000 OA
ATOM     22  H   UNL     1      -0.371   9.658  23.070  0.00  0.00    +0.000 HD
ENDBRANCH  20  21
ENDBRANCH  13  20
ENDBRANCH   6  18
ENDBRANCH   1   8
BRANCH   3  23
ATOM     23  C   UNL     1       4.569   6.469  17.045  0.00  0.00    +0.000 A 
ATOM     24  C   UNL     1       4.514   5.205  16.423  0.00  0.00    +0.000 A 
ATOM     25  C   UNL     1       5.692   5.102  15.734  0.00  0.00    +0.000 A 
ATOM     26  O   UNL     1       6.409   6.236  15.906  0.00  0.00    +0.000 OA
ATOM     27  N   UNL     1       5.693   7.114  16.703  0.00  0.00    +0.000 NA
ENDBRANCH   3  23
BRANCH   4  28
ATOM     28  C   UNL     1       3.482   5.532  19.943  0.00  0.00    +0.000 C 
BRANCH  28  29
ATOM     29  C   UNL     1       2.803   4.240  19.568  0.00  0.00    +0.000 A 
ATOM     30  C   UNL     1       1.412   4.075  19.626  0.00  0.00    +0.000 A 
ATOM     31  C   UNL     1       0.822   2.872  19.233  0.00  0.00    +0.000 A 
ATOM     32  C   UNL     1       1.613   1.810  18.802  0.00  0.00    +0.000 A 
ATOM     33  C   UNL     1       2.999   1.946  18.777  0.00  0.00    +0.000 A 
ATOM     34  C   UNL     1       3.581   3.147  19.171  0.00  0.00    +0.000 A 
ATOM     35  F   UNL     1       4.915   3.266  19.110  0.00  0.00    +0.000 F 
ENDBRANCH  28  29
ENDBRANCH   4  28
TORSDOF 7
ENDMDL
MODEL 8
REMARK VINA RESULT:      -8.8      2.504      3.954
REMARK  Name = 
REMARK  7 active torsions:
REMARK  status: ('A' for Active; 'I' for Inactive)
REMARK    1  A    between atoms: C_2  and  O_3
REMARK    2  A    between atoms: C_2  and  C_4
REMARK    3  A    between atoms: N_9  and  C_10
REMARK    4  A    between atoms: C_12  and  C_13
REMARK    5  A    between atoms: C_15  and  C_16
REMARK    6  A    between atoms: N_21  and  C_22
REMARK    7  A    between atoms: C_22  and  C_23
REMARK                            x       y       z     vdW  Elec       q    Type
REMARK                         _______ _______ _______ _____ _____    ______ ____
ROOT
ATOM      1  C   UNL     1       1.978   8.405  19.107  0.00  0.00    +0.000 A 
ATOM      2  C   UNL     1       1.634   8.766  20.443  0.00  0.00    +0.000 A 
ATOM      3  C   UNL     1       0.759   9.828  20.349  0.00  0.00    +0.000 A 
ATOM      4  N   UNL     1       0.691  10.115  19.012  0.00  0.00    +0.000 N 
ATOM      5  N   UNL     1       1.403   9.259  18.243  0.00  0.00    +0.000 NA
ENDROOT
BRANCH   1   8
ATOM      6  C   UNL     1       3.446   5.032  18.968  0.00  0.00    +0.000 A 
ATOM      7  N   UNL     1       2.698   6.080  19.365  0.00  0.00    +0.000 NA
ATOM      8  C   UNL     1       2.814   7.259  18.698  0.00  0.00    +0.000 A 
ATOM      9  N   UNL     1       3.645   7.479  17.661  0.00  0.00    +0.000 NA
ATOM     10  C   UNL     1       4.388   6.429  17.285  0.00  0.00    +0.000 A 
ATOM     11  C   UNL     1       4.322   5.196  17.892  0.00  0.00    +0.000 A 
ATOM     12  F   UNL     1       5.029   4.187  17.363  0.00  0.00    +0.000 F 
BRANCH   6  18
ATOM     13  C   UNL     1       2.179   2.827  19.055  0.00  0.00    +0.000 C 
ATOM     14  C   UNL     1       0.932   2.821  19.948  0.00  0.00    +0.000 C 
ATOM     15  C   UNL     1       1.319   2.527  21.395  0.00  0.00    +0.000 C 
ATOM     16  C   UNL     1       2.325   3.560  21.874  0.00  0.00    +0.000 C 
ATOM     17  C   UNL     1       3.567   3.604  20.981  0.00  0.00    +0.000 C 
ATOM     18  N   UNL     1       3.220   3.784  19.553  0.00  0.00    +0.000 N 
BRANCH  13  20
ATOM     19  O   UNL     1       2.320   2.160  16.694  0.00  0.00    +0.000 OA
ATOM     20  C   UNL     1       1.822   2.872  17.557  0.00  0.00    +0.000 C 
BRANCH  20  21
ATOM     21  O   UNL     1       1.022   3.929  17.248  0.00  0.00    +0.000 OA
ATOM     22  H   UNL     1       0.375   3.648  16.570  0.00  0.00    +0.000 HD
ENDBRANCH  20  21
ENDBRANCH  13  20
ENDBRANCH   6  18
ENDBRANCH   1   8
BRANCH   3  23
ATOM     23  C   UNL     1       0.060  10.477  21.494  0.00  0.00    +0.000 A 
ATOM     24  C   UNL     1      -0.862   9.898  22.390  0.00  0.00    +0.000 A 
ATOM     25  C   UNL     1      -1.210  10.914  23.239  0.00  0.00    +0.000 A 
ATOM     26  O   UNL     1      -0.528  12.031  22.899  0.00  0.00    +0.000 OA
ATOM     27  N   UNL     1       0.297  11.755  21.822  0.00  0.00    +0.000 NA
ENDBRANCH   3  23
BRANCH   4  28
ATOM     28  C   UNL     1       0.047  11.253  18.355  0.00  0.00    +0.000 C 
BRANCH  28  29
ATOM     29  C   UNL     1      -1.423  11.030  18.113  0.00  0.00    +0.000 A 
ATOM     30  C   UNL     1      -1.901  10.064  17.216  0.00  0.00    +0.000 A 
ATOM     31  C   UNL     1      -3.273   9.865  17.050  0.00  0.00    +0.000 A 
ATOM     32  C   UNL     1      -4.186  10.644  17.758  0.00  0.00    +0.000 A 
ATOM     33  C   UNL     1      -3.726  11.634  18.623  0.00  0.00    +0.000 A 
ATOM     34  C   UNL     1      -2.358  11.828  18.782  0.00  0.00    +0.000 A 
ATOM     35  F   UNL     1      -1.936  12.766  19.643  0.00  0.00    +0.000 F 
ENDBRANCH  28  29
ENDBRANCH   4  28
TORSDOF 7
ENDMDL
MODEL 9
REMARK VINA RESULT:      -8.8      2.031      8.781
REMARK  Name = 
REMARK  7 active torsions:
REMARK  status: ('A' for Active; 'I' for Inactive)
REMARK    1  A    between atoms: C_2  and  O_3
REMARK    2  A    between atoms: C_2  and  C_4
REMARK    3  A    between atoms: N_9  and  C_10
REMARK    4  A    between atoms: C_12  and  C_13
REMARK    5  A    between atoms: C_15  and  C_16
REMARK    6  A    between atoms: N_21  and  C_22
REMARK    7  A    between atoms: C_22  and  C_23
REMARK                            x       y       z     vdW  Elec       q    Type
REMARK                         _______ _______ _______ _____ _____    ______ ____
ROOT
ATOM      1  C   UNL     1       2.305   8.133  18.484  0.00  0.00    +0.000 A 
ATOM      2  C   UNL     1       3.341   8.139  17.504  0.00  0.00    +0.000 A 
ATOM      3  C   UNL     1       4.054   6.972  17.681  0.00  0.00    +0.000 A 
ATOM      4  N   UNL     1       3.499   6.379  18.783  0.00  0.00    +0.000 N 
ATOM      5  N   UNL     1       2.431   7.051  19.272  0.00  0.00    +0.000 NA
ENDROOT
BRANCH   1   8
ATOM      6  C   UNL     1       0.184  10.808  19.862  0.00  0.00    +0.000 A 
ATOM      7  N   UNL     1       1.157   9.880  19.756  0.00  0.00    +0.000 NA
ATOM      8  C   UNL     1       1.227   9.131  18.624  0.00  0.00    +0.000 A 
ATOM      9  N   UNL     1       0.376   9.226  17.583  0.00  0.00    +0.000 NA
ATOM     10  C   UNL     1      -0.590  10.146  17.710  0.00  0.00    +0.000 A 
ATOM     11  C   UNL     1      -0.724  10.959  18.812  0.00  0.00    +0.000 A 
ATOM     12  F   UNL     1      -1.659  11.919  18.785  0.00  0.00    +0.000 F 
BRANCH   6  18
ATOM     13  C   UNL     1      -0.201  11.260  22.336  0.00  0.00    +0.000 C 
ATOM     14  C   UNL     1      -1.604  11.761  22.701  0.00  0.00    +0.000 C 
ATOM     15  C   UNL     1      -1.687  13.274  22.528  0.00  0.00    +0.000 C 
ATOM     16  C   UNL     1      -1.334  13.643  21.096  0.00  0.00    +0.000 C 
ATOM     17  C   UNL     1       0.052  13.129  20.700  0.00  0.00    +0.000 C 
ATOM     18  N   UNL     1       0.201  11.678  20.955  0.00  0.00    +0.000 N 
BRANCH  13  20
ATOM     19  O   UNL     1      -0.887   8.986  22.972  0.00  0.00    +0.000 OA
ATOM     20  C   UNL     1       0.010   9.785  22.729  0.00  0.00    +0.000 C 
BRANCH  20  21
ATOM     21  O   UNL     1       1.319   9.496  22.970  0.00  0.00    +0.000 OA
ATOM     22  H   UNL     1       1.606   8.794  22.352  0.00  0.00    +0.000 HD
ENDBRANCH  20  21
ENDBRANCH  13  20
ENDBRANCH   6  18
ENDBRANCH   1   8
BRANCH   3  23
ATOM     23  C   UNL     1       5.175   6.505  16.816  0.00  0.00    +0.000 A 
ATOM     24  C   UNL     1       5.133   5.550  15.780  0.00  0.00    +0.000 A 
ATOM     25  C   UNL     1       6.420   5.480  15.317  0.00  0.00    +0.000 A 
ATOM     26  O   UNL     1       7.190   6.349  16.010  0.00  0.00    +0.000 OA
ATOM     27  N   UNL     1       6.406   7.021  16.933  0.00  0.00    +0.000 NA
ENDBRANCH   3  23
BRANCH   4  28
ATOM     28  C   UNL     1       3.968   5.206  19.520  0.00  0.00    +0.000 C 
BRANCH  28  29
ATOM     29  C   UNL     1       2.897   4.160  19.693  0.00  0.00    +0.000 A 
ATOM     30  C   UNL     1       2.303   3.886  20.933  0.00  0.00    +0.000 A 
ATOM     31  C   UNL     1       1.287   2.934  21.041  0.00  0.00    +0.000 A 
ATOM     32  C   UNL     1       0.869   2.224  19.917  0.00  0.00    +0.000 A 
ATOM     33  C   UNL     1       1.477   2.457  18.687  0.00  0.00    +0.000 A 
ATOM     34  C   UNL     1       2.489   3.407  18.587  0.00  0.00    +0.000 A 
ATOM     35  F   UNL     1       3.040   3.636  17.386  0.00  0.00    +0.000 F 
ENDBRANCH  28  29
ENDBRANCH   4  28
TORSDOF 7
ENDMDL
