MODEL 1
REMARK VINA RESULT:      -7.1      0.000      0.000
REMARK  Name = 
REMARK  9 active torsions:
REMARK  status: ('A' for Active; 'I' for Inactive)
REMARK    1  A    between atoms: C_1  and  N_2
REMARK    2  A    between atoms: N_2  and  C_3
REMARK    3  A    between atoms: N_2  and  S_18
REMARK    4  A    between atoms: C_6  and  C_7
REMARK    5  A    between atoms: C_7  and  C_9
REMARK    6  A    between atoms: C_9  and  O_10
REMARK    7  A    between atoms: O_10  and  C_11
REMARK    8  A    between atoms: C_11  and  C_13
REMARK    9  A    between atoms: S_18  and  C_19
REMARK                            x       y       z     vdW  Elec       q    Type
REMARK                         _______ _______ _______ _____ _____    ______ ____
ROOT
ATOM      1  C   UNL     1       3.808   4.869  19.184  0.00  0.00    +0.000 A 
ATOM      2  C   UNL     1       3.461   4.721  17.843  0.00  0.00    +0.000 A 
ATOM      3  C   UNL     1       4.424   4.887  16.838  0.00  0.00    +0.000 A 
ATOM      4  C   UNL     1       5.741   5.227  17.156  0.00  0.00    +0.000 A 
ATOM      5  C   UNL     1       6.084   5.415  18.500  0.00  0.00    +0.000 A 
ATOM      6  C   UNL     1       5.121   5.224  19.506  0.00  0.00    +0.000 A 
ENDROOT
BRANCH   1   8
ATOM      7  C   UNL     1       1.862   5.742  20.505  0.00  0.00    +0.000 C 
ATOM      8  N   UNL     1       2.848   4.689  20.231  0.00  0.00    +0.000 N 
BRANCH   8   9
ATOM      9  S   UNL     1       2.537   3.141  20.829  0.00  0.00    +0.000 S 
ATOM     10  C   UNL     1       1.039   2.691  19.973  0.00  0.00    +0.000 C 
ATOM     11  O   UNL     1       3.576   2.238  20.384  0.00  0.00    +0.000 OA
ATOM     12  O   UNL     1       2.195   3.247  22.229  0.00  0.00    +0.000 OA
ENDBRANCH   8   9
ENDBRANCH   1   8
BRANCH   4  13
ATOM     13  C   UNL     1       6.754   5.420  16.064  0.00  0.00    +0.000 C 
ATOM     14  O   UNL     1       7.623   6.271  16.187  0.00  0.00    +0.000 OA
BRANCH  13  15
ATOM     15  C   UNL     1       6.663   4.503  14.836  0.00  0.00    +0.000 C 
BRANCH  15  16
ATOM     16  O   UNL     1       7.018   5.169  13.625  0.00  0.00    +0.000 OA
BRANCH  16  17
ATOM     17  C   UNL     1       6.913   4.366  12.533  0.00  0.00    +0.000 C 
ATOM     18  O   UNL     1       7.607   4.432  11.526  0.00  0.00    +0.000 OA
BRANCH  17  19
ATOM     19  C   UNL     1       5.810   3.382  12.691  0.00  0.00    +0.000 C 
ATOM     20  C   UNL     1       4.588   3.446  11.803  0.00  0.00    +0.000 C 
ATOM     21  C   UNL     1       5.577   2.328  11.634  0.00  0.00    +0.000 C 
ENDBRANCH  17  19
ENDBRANCH  16  17
ENDBRANCH  15  16
ENDBRANCH  13  15
ENDBRANCH   4  13
TORSDOF 7
ENDMDL
MODEL 2
REMARK VINA RESULT:      -7.0      2.989      6.442
REMARK  Name = 
REMARK  9 active torsions:
REMARK  status: ('A' for Active; 'I' for Inactive)
REMARK    1  A    between atoms: C_1  and  N_2
REMARK    2  A    between atoms: N_2  and  C_3
REMARK    3  A    between atoms: N_2  and  S_18
REMARK    4  A    between atoms: C_6  and  C_7
REMARK    5  A    between atoms: C_7  and  C_9
REMARK    6  A    between atoms: C_9  and  O_10
REMARK    7  A    between atoms: O_10  and  C_11
REMARK    8  A    between atoms: C_11  and  C_13
REMARK    9  A    between atoms: S_18  and  C_19
REMARK                            x       y       z     vdW  Elec       q    Type
REMARK                         _______ _______ _______ _____ _____    ______ ____
ROOT
ATOM      1  C   UNL     1       5.464   6.176  17.760  0.00  0.00    +0.000 A 
ATOM      2  C   UNL     1       4.256   6.801  17.458  0.00  0.00    +0.000 A 
ATOM      3  C   UNL     1       3.147   6.649  18.302  0.00  0.00    +0.000 A 
ATOM      4  C   UNL     1       3.221   5.851  19.446  0.00  0.00    +0.000 A 
ATOM      5  C   UNL     1       4.422   5.190  19.732  0.00  0.00    +0.000 A 
ATOM      6  C   UNL     1       5.538   5.365  18.896  0.00  0.00    +0.000 A 
ENDROOT
BRANCH   1   8
ATOM      7  C   UNL     1       7.537   7.449  17.150  0.00  0.00    +0.000 C 
ATOM      8  N   UNL     1       6.616   6.328  16.924  0.00  0.00    +0.000 N 
BRANCH   8   9
ATOM      9  S   UNL     1       7.171   5.021  16.011  0.00  0.00    +0.000 S 
ATOM     10  C   UNL     1       5.679   4.091  15.722  0.00  0.00    +0.000 C 
ATOM     11  O   UNL     1       7.639   5.498  14.728  0.00  0.00    +0.000 OA
ATOM     12  O   UNL     1       8.013   4.198  16.849  0.00  0.00    +0.000 OA
ENDBRANCH   8   9
ENDBRANCH   1   8
BRANCH   4  13
ATOM     13  C   UNL     1       2.016   5.684  20.328  0.00  0.00    +0.000 C 
ATOM     14  O   UNL     1       1.399   6.670  20.702  0.00  0.00    +0.000 OA
BRANCH  13  15
ATOM     15  C   UNL     1       1.594   4.255  20.696  0.00  0.00    +0.000 C 
BRANCH  15  16
ATOM     16  O   UNL     1       0.657   3.703  19.772  0.00  0.00    +0.000 OA
BRANCH  16  17
ATOM     17  C   UNL     1       1.235   3.320  18.602  0.00  0.00    +0.000 C 
ATOM     18  O   UNL     1       1.138   3.905  17.531  0.00  0.00    +0.000 OA
BRANCH  17  19
ATOM     19  C   UNL     1       2.002   2.058  18.768  0.00  0.00    +0.000 C 
ATOM     20  C   UNL     1       3.237   1.793  17.936  0.00  0.00    +0.000 C 
ATOM     21  C   UNL     1       3.372   2.081  19.404  0.00  0.00    +0.000 C 
ENDBRANCH  17  19
ENDBRANCH  16  17
ENDBRANCH  15  16
ENDBRANCH  13  15
ENDBRANCH   4  13
TORSDOF 7
ENDMDL
MODEL 3
REMARK VINA RESULT:      -6.8      1.451      1.995
REMARK  Name = 
REMARK  9 active torsions:
REMARK  status: ('A' for Active; 'I' for Inactive)
REMARK    1  A    between atoms: C_1  and  N_2
REMARK    2  A    between atoms: N_2  and  C_3
REMARK    3  A    between atoms: N_2  and  S_18
REMARK    4  A    between atoms: C_6  and  C_7
REMARK    5  A    between atoms: C_7  and  C_9
REMARK    6  A    between atoms: C_9  and  O_10
REMARK    7  A    between atoms: O_10  and  C_11
REMARK    8  A    between atoms: C_11  and  C_13
REMARK    9  A    between atoms: S_18  and  C_19
REMARK                            x       y       z     vdW  Elec       q    Type
REMARK                         _______ _______ _______ _____ _____    ______ ____
ROOT
ATOM      1  C   UNL     1       4.173   3.510  18.978  0.00  0.00    +0.000 A 
ATOM      2  C   UNL     1       5.183   4.458  19.129  0.00  0.00    +0.000 A 
ATOM      3  C   UNL     1       5.652   5.177  18.020  0.00  0.00    +0.000 A 
ATOM      4  C   UNL     1       5.138   4.942  16.743  0.00  0.00    +0.000 A 
ATOM      5  C   UNL     1       4.151   3.962  16.582  0.00  0.00    +0.000 A 
ATOM      6  C   UNL     1       3.666   3.261  17.699  0.00  0.00    +0.000 A 
ENDROOT
BRANCH   1   8
ATOM      7  C   UNL     1       4.554   1.875  20.842  0.00  0.00    +0.000 C 
ATOM      8  N   UNL     1       3.664   2.774  20.095  0.00  0.00    +0.000 N 
BRANCH   8   9
ATOM      9  S   UNL     1       2.227   3.258  20.837  0.00  0.00    +0.000 S 
ATOM     10  C   UNL     1       2.256   5.026  20.615  0.00  0.00    +0.000 C 
ATOM     11  O   UNL     1       1.104   2.746  20.083  0.00  0.00    +0.000 OA
ATOM     12  O   UNL     1       2.338   3.020  22.258  0.00  0.00    +0.000 OA
ENDBRANCH   8   9
ENDBRANCH   1   8
BRANCH   4  13
ATOM     13  C   UNL     1       5.668   5.709  15.565  0.00  0.00    +0.000 C 
ATOM     14  O   UNL     1       5.165   6.781  15.264  0.00  0.00    +0.000 OA
BRANCH  13  15
ATOM     15  C   UNL     1       6.857   5.110  14.801  0.00  0.00    +0.000 C 
BRANCH  15  16
ATOM     16  O   UNL     1       6.586   3.802  14.299  0.00  0.00    +0.000 OA
BRANCH  16  17
ATOM     17  C   UNL     1       6.445   3.776  12.947  0.00  0.00    +0.000 C 
ATOM     18  O   UNL     1       7.175   4.338  12.140  0.00  0.00    +0.000 OA
BRANCH  17  19
ATOM     19  C   UNL     1       5.254   2.983  12.543  0.00  0.00    +0.000 C 
ATOM     20  C   UNL     1       4.374   3.442  11.403  0.00  0.00    +0.000 C 
ATOM     21  C   UNL     1       5.250   2.234  11.232  0.00  0.00    +0.000 C 
ENDBRANCH  17  19
ENDBRANCH  16  17
ENDBRANCH  15  16
ENDBRANCH  13  15
ENDBRANCH   4  13
TORSDOF 7
ENDMDL
MODEL 4
REMARK VINA RESULT:      -6.7      3.791      5.840
REMARK  Name = 
REMARK  9 active torsions:
REMARK  status: ('A' for Active; 'I' for Inactive)
REMARK    1  A    between atoms: C_1  and  N_2
REMARK    2  A    between atoms: N_2  and  C_3
REMARK    3  A    between atoms: N_2  and  S_18
REMARK    4  A    between atoms: C_6  and  C_7
REMARK    5  A    between atoms: C_7  and  C_9
REMARK    6  A    between atoms: C_9  and  O_10
REMARK    7  A    between atoms: O_10  and  C_11
REMARK    8  A    between atoms: C_11  and  C_13
REMARK    9  A    between atoms: S_18  and  C_19
REMARK                            x       y       z     vdW  Elec       q    Type
REMARK                         _______ _______ _______ _____ _____    ______ ____
ROOT
ATOM      1  C   UNL     1       3.870   5.096  18.813  0.00  0.00    +0.000 A 
ATOM      2  C   UNL     1       3.829   6.143  17.894  0.00  0.00    +0.000 A 
ATOM      3  C   UNL     1       5.015   6.745  17.451  0.00  0.00    +0.000 A 
ATOM      4  C   UNL     1       6.256   6.328  17.938  0.00  0.00    +0.000 A 
ATOM      5  C   UNL     1       6.299   5.302  18.890  0.00  0.00    +0.000 A 
ATOM      6  C   UNL     1       5.109   4.684  19.313  0.00  0.00    +0.000 A 
ENDROOT
BRANCH   1   8
ATOM      7  C   UNL     1       1.939   5.008  20.410  0.00  0.00    +0.000 C 
ATOM      8  N   UNL     1       2.675   4.452  19.269  0.00  0.00    +0.000 N 
BRANCH   8   9
ATOM      9  S   UNL     1       1.866   3.369  18.258  0.00  0.00    +0.000 S 
ATOM     10  C   UNL     1       0.736   2.567  19.379  0.00  0.00    +0.000 C 
ATOM     11  O   UNL     1       1.073   4.109  17.301  0.00  0.00    +0.000 OA
ATOM     12  O   UNL     1       2.801   2.357  17.822  0.00  0.00    +0.000 OA
ENDBRANCH   8   9
ENDBRANCH   1   8
BRANCH   4  13
ATOM     13  C   UNL     1       7.514   6.999  17.466  0.00  0.00    +0.000 C 
ATOM     14  O   UNL     1       7.917   6.801  16.329  0.00  0.00    +0.000 OA
BRANCH  13  15
ATOM     15  C   UNL     1       8.230   7.942  18.443  0.00  0.00    +0.000 C 
BRANCH  15  16
ATOM     16  O   UNL     1       8.186   9.305  18.023  0.00  0.00    +0.000 OA
BRANCH  16  17
ATOM     17  C   UNL     1       9.054  10.095  18.709  0.00  0.00    +0.000 C 
ATOM     18  O   UNL     1       9.160  10.153  19.928  0.00  0.00    +0.000 OA
BRANCH  17  19
ATOM     19  C   UNL     1       9.870  10.928  17.787  0.00  0.00    +0.000 C 
ATOM     20  C   UNL     1       9.743  12.435  17.795  0.00  0.00    +0.000 C 
ATOM     21  C   UNL     1      10.988  11.787  18.330  0.00  0.00    +0.000 C 
ENDBRANCH  17  19
ENDBRANCH  16  17
ENDBRANCH  15  16
ENDBRANCH  13  15
ENDBRANCH   4  13
TORSDOF 7
ENDMDL
MODEL 5
REMARK VINA RESULT:      -6.7      1.335      1.595
REMARK  Name = 
REMARK  9 active torsions:
REMARK  status: ('A' for Active; 'I' for Inactive)
REMARK    1  A    between atoms: C_1  and  N_2
REMARK    2  A    between atoms: N_2  and  C_3
REMARK    3  A    between atoms: N_2  and  S_18
REMARK    4  A    between atoms: C_6  and  C_7
REMARK    5  A    between atoms: C_7  and  C_9
REMARK    6  A    between atoms: C_9  and  O_10
REMARK    7  A    between atoms: O_10  and  C_11
REMARK    8  A    between atoms: C_11  and  C_13
REMARK    9  A    between atoms: S_18  and  C_19
REMARK                            x       y       z     vdW  Elec       q    Type
REMARK                         _______ _______ _______ _____ _____    ______ ____
ROOT
ATOM      1  C   UNL     1       3.862   3.364  19.142  0.00  0.00    +0.000 A 
ATOM      2  C   UNL     1       3.482   3.191  17.813  0.00  0.00    +0.000 A 
ATOM      3  C   UNL     1       4.178   3.842  16.785  0.00  0.00    +0.000 A 
ATOM      4  C   UNL     1       5.249   4.693  17.071  0.00  0.00    +0.000 A 
ATOM      5  C   UNL     1       5.609   4.899  18.407  0.00  0.00    +0.000 A 
ATOM      6  C   UNL     1       4.924   4.226  19.434  0.00  0.00    +0.000 A 
ENDROOT
BRANCH   1   8
ATOM      7  C   UNL     1       3.930   1.837  21.131  0.00  0.00    +0.000 C 
ATOM      8  N   UNL     1       3.179   2.699  20.210  0.00  0.00    +0.000 N 
BRANCH   8   9
ATOM      9  S   UNL     1       1.655   3.239  20.698  0.00  0.00    +0.000 S 
ATOM     10  C   UNL     1       1.892   5.001  20.819  0.00  0.00    +0.000 C 
ATOM     11  O   UNL     1       0.701   3.002  19.637  0.00  0.00    +0.000 OA
ATOM     12  O   UNL     1       1.406   2.763  22.040  0.00  0.00    +0.000 OA
ENDBRANCH   8   9
ENDBRANCH   1   8
BRANCH   4  13
ATOM     13  C   UNL     1       5.970   5.396  15.956  0.00  0.00    +0.000 C 
ATOM     14  O   UNL     1       5.957   6.617  15.903  0.00  0.00    +0.000 OA
BRANCH  13  15
ATOM     15  C   UNL     1       6.726   4.531  14.938  0.00  0.00    +0.000 C 
BRANCH  15  16
ATOM     16  O   UNL     1       7.047   5.244  13.744  0.00  0.00    +0.000 OA
BRANCH  16  17
ATOM     17  C   UNL     1       6.943   4.475  12.628  0.00  0.00    +0.000 C 
ATOM     18  O   UNL     1       7.608   4.600  11.607  0.00  0.00    +0.000 OA
BRANCH  17  19
ATOM     19  C   UNL     1       5.881   3.446  12.779  0.00  0.00    +0.000 C 
ATOM     20  C   UNL     1       4.677   3.442  11.864  0.00  0.00    +0.000 C 
ATOM     21  C   UNL     1       5.716   2.367  11.735  0.00  0.00    +0.000 C 
ENDBRANCH  17  19
ENDBRANCH  16  17
ENDBRANCH  15  16
ENDBRANCH  13  15
ENDBRANCH   4  13
TORSDOF 7
ENDMDL
MODEL 6
REMARK VINA RESULT:      -6.6      1.211      1.488
REMARK  Name = 
REMARK  9 active torsions:
REMARK  status: ('A' for Active; 'I' for Inactive)
REMARK    1  A    between atoms: C_1  and  N_2
REMARK    2  A    between atoms: N_2  and  C_3
REMARK    3  A    between atoms: N_2  and  S_18
REMARK    4  A    between atoms: C_6  and  C_7
REMARK    5  A    between atoms: C_7  and  C_9
REMARK    6  A    between atoms: C_9  and  O_10
REMARK    7  A    between atoms: O_10  and  C_11
REMARK    8  A    between atoms: C_11  and  C_13
REMARK    9  A    between atoms: S_18  and  C_19
REMARK                            x       y       z     vdW  Elec       q    Type
REMARK                         _______ _______ _______ _____ _____    ______ ____
ROOT
ATOM      1  C   UNL     1       3.544   4.743  19.089  0.00  0.00    +0.000 A 
ATOM      2  C   UNL     1       3.344   4.958  17.727  0.00  0.00    +0.000 A 
ATOM      3  C   UNL     1       4.428   5.257  16.890  0.00  0.00    +0.000 A 
ATOM      4  C   UNL     1       5.722   5.369  17.403  0.00  0.00    +0.000 A 
ATOM      5  C   UNL     1       5.920   5.193  18.778  0.00  0.00    +0.000 A 
ATOM      6  C   UNL     1       4.835   4.869  19.610  0.00  0.00    +0.000 A 
ENDROOT
BRANCH   1   8
ATOM      7  C   UNL     1       1.695   5.497  20.606  0.00  0.00    +0.000 C 
ATOM      8  N   UNL     1       2.458   4.420  19.964  0.00  0.00    +0.000 N 
BRANCH   8   9
ATOM      9  S   UNL     1       1.760   2.883  19.906  0.00  0.00    +0.000 S 
ATOM     10  C   UNL     1       3.061   1.896  19.193  0.00  0.00    +0.000 C 
ATOM     11  O   UNL     1       1.545   2.405  21.255  0.00  0.00    +0.000 OA
ATOM     12  O   UNL     1       0.682   2.902  18.944  0.00  0.00    +0.000 OA
ENDBRANCH   8   9
ENDBRANCH   1   8
BRANCH   4  13
ATOM     13  C   UNL     1       6.867   5.710  16.492  0.00  0.00    +0.000 C 
ATOM     14  O   UNL     1       7.523   6.721  16.697  0.00  0.00    +0.000 OA
BRANCH  13  15
ATOM     15  C   UNL     1       7.180   4.739  15.346  0.00  0.00    +0.000 C 
BRANCH  15  16
ATOM     16  O   UNL     1       6.627   5.162  14.100  0.00  0.00    +0.000 OA
BRANCH  16  17
ATOM     17  C   UNL     1       7.536   5.147  13.089  0.00  0.00    +0.000 C 
ATOM     18  O   UNL     1       8.629   5.699  13.101  0.00  0.00    +0.000 OA
BRANCH  17  19
ATOM     19  C   UNL     1       7.030   4.382  11.920  0.00  0.00    +0.000 C 
ATOM     20  C   UNL     1       7.317   2.903  11.784  0.00  0.00    +0.000 C 
ATOM     21  C   UNL     1       5.924   3.368  12.097  0.00  0.00    +0.000 C 
ENDBRANCH  17  19
ENDBRANCH  16  17
ENDBRANCH  15  16
ENDBRANCH  13  15
ENDBRANCH   4  13
TORSDOF 7
ENDMDL
MODEL 7
REMARK VINA RESULT:      -6.6      1.909      2.681
REMARK  Name = 
REMARK  9 active torsions:
REMARK  status: ('A' for Active; 'I' for Inactive)
REMARK    1  A    between atoms: C_1  and  N_2
REMARK    2  A    between atoms: N_2  and  C_3
REMARK    3  A    between atoms: N_2  and  S_18
REMARK    4  A    between atoms: C_6  and  C_7
REMARK    5  A    between atoms: C_7  and  C_9
REMARK    6  A    between atoms: C_9  and  O_10
REMARK    7  A    between atoms: O_10  and  C_11
REMARK    8  A    between atoms: C_11  and  C_13
REMARK    9  A    between atoms: S_18  and  C_19
REMARK                            x       y       z     vdW  Elec       q    Type
REMARK                         _______ _______ _______ _____ _____    ______ ____
ROOT
ATOM      1  C   UNL     1       4.447   4.712  17.275  0.00  0.00    +0.000 A 
ATOM      2  C   UNL     1       4.654   5.943  16.656  0.00  0.00    +0.000 A 
ATOM      3  C   UNL     1       5.478   6.039  15.526  0.00  0.00    +0.000 A 
ATOM      4  C   UNL     1       6.125   4.913  15.012  0.00  0.00    +0.000 A 
ATOM      5  C   UNL     1       5.949   3.682  15.654  0.00  0.00    +0.000 A 
ATOM      6  C   UNL     1       5.103   3.585  16.772  0.00  0.00    +0.000 A 
ENDROOT
BRANCH   1   8
ATOM      7  C   UNL     1       3.711   5.544  19.523  0.00  0.00    +0.000 C 
ATOM      8  N   UNL     1       3.597   4.582  18.420  0.00  0.00    +0.000 N 
BRANCH   8   9
ATOM      9  S   UNL     1       2.191   3.653  18.323  0.00  0.00    +0.000 S 
ATOM     10  C   UNL     1       2.753   2.048  18.854  0.00  0.00    +0.000 C 
ATOM     11  O   UNL     1       1.238   4.124  19.305  0.00  0.00    +0.000 OA
ATOM     12  O   UNL     1       1.820   3.522  16.933  0.00  0.00    +0.000 OA
ENDBRANCH   8   9
ENDBRANCH   1   8
BRANCH   4  13
ATOM     13  C   UNL     1       7.019   5.041  13.812  0.00  0.00    +0.000 C 
ATOM     14  O   UNL     1       8.122   5.555  13.930  0.00  0.00    +0.000 OA
BRANCH  13  15
ATOM     15  C   UNL     1       6.507   4.481  12.477  0.00  0.00    +0.000 C 
BRANCH  15  16
ATOM     16  O   UNL     1       6.658   3.065  12.381  0.00  0.00    +0.000 OA
BRANCH  16  17
ATOM     17  C   UNL     1       5.635   2.471  11.712  0.00  0.00    +0.000 C 
ATOM     18  O   UNL     1       5.664   1.359  11.200  0.00  0.00    +0.000 OA
BRANCH  17  19
ATOM     19  C   UNL     1       4.445   3.360  11.646  0.00  0.00    +0.000 C 
ATOM     20  C   UNL     1       3.936   3.869  10.317  0.00  0.00    +0.000 C 
ATOM     21  C   UNL     1       3.144   2.845  11.077  0.00  0.00    +0.000 C 
ENDBRANCH  17  19
ENDBRANCH  16  17
ENDBRANCH  15  16
ENDBRANCH  13  15
ENDBRANCH   4  13
TORSDOF 7
ENDMDL
MODEL 8
REMARK VINA RESULT:      -6.6      1.009      1.458
REMARK  Name = 
REMARK  9 active torsions:
REMARK  status: ('A' for Active; 'I' for Inactive)
REMARK    1  A    between atoms: C_1  and  N_2
REMARK    2  A    between atoms: N_2  and  C_3
REMARK    3  A    between atoms: N_2  and  S_18
REMARK    4  A    between atoms: C_6  and  C_7
REMARK    5  A    between atoms: C_7  and  C_9
REMARK    6  A    between atoms: C_9  and  O_10
REMARK    7  A    between atoms: O_10  and  C_11
REMARK    8  A    between atoms: C_11  and  C_13
REMARK    9  A    between atoms: S_18  and  C_19
REMARK                            x       y       z     vdW  Elec       q    Type
REMARK                         _______ _______ _______ _____ _____    ______ ____
ROOT
ATOM      1  C   UNL     1       3.503   4.029  18.542  0.00  0.00    +0.000 A 
ATOM      2  C   UNL     1       4.288   5.100  18.967  0.00  0.00    +0.000 A 
ATOM      3  C   UNL     1       5.352   5.556  18.177  0.00  0.00    +0.000 A 
ATOM      4  C   UNL     1       5.663   4.936  16.964  0.00  0.00    +0.000 A 
ATOM      5  C   UNL     1       4.901   3.837  16.553  0.00  0.00    +0.000 A 
ATOM      6  C   UNL     1       3.819   3.397  17.336  0.00  0.00    +0.000 A 
ENDROOT
BRANCH   1   8
ATOM      7  C   UNL     1       1.294   2.848  18.663  0.00  0.00    +0.000 C 
ATOM      8  N   UNL     1       2.400   3.554  19.321  0.00  0.00    +0.000 N 
BRANCH   8   9
ATOM      9  S   UNL     1       2.564   3.381  20.993  0.00  0.00    +0.000 S 
ATOM     10  C   UNL     1       1.073   2.512  21.438  0.00  0.00    +0.000 C 
ATOM     11  O   UNL     1       3.678   2.503  21.276  0.00  0.00    +0.000 OA
ATOM     12  O   UNL     1       2.475   4.689  21.602  0.00  0.00    +0.000 OA
ENDBRANCH   8   9
ENDBRANCH   1   8
BRANCH   4  13
ATOM     13  C   UNL     1       6.820   5.428  16.142  0.00  0.00    +0.000 C 
ATOM     14  O   UNL     1       7.432   6.427  16.494  0.00  0.00    +0.000 OA
BRANCH  13  15
ATOM     15  C   UNL     1       7.203   4.621  14.894  0.00  0.00    +0.000 C 
BRANCH  15  16
ATOM     16  O   UNL     1       6.805   5.260  13.682  0.00  0.00    +0.000 OA
BRANCH  16  17
ATOM     17  C   UNL     1       6.823   4.419  12.614  0.00  0.00    +0.000 C 
ATOM     18  O   UNL     1       7.596   4.482  11.666  0.00  0.00    +0.000 OA
BRANCH  17  19
ATOM     19  C   UNL     1       5.748   3.397  12.713  0.00  0.00    +0.000 C 
ATOM     20  C   UNL     1       4.589   3.401  11.743  0.00  0.00    +0.000 C 
ATOM     21  C   UNL     1       5.628   2.319  11.663  0.00  0.00    +0.000 C 
ENDBRANCH  17  19
ENDBRANCH  16  17
ENDBRANCH  15  16
ENDBRANCH  13  15
ENDBRANCH   4  13
TORSDOF 7
ENDMDL
MODEL 9
REMARK VINA RESULT:      -6.5      4.714      6.987
REMARK  Name = 
REMARK  9 active torsions:
REMARK  status: ('A' for Active; 'I' for Inactive)
REMARK    1  A    between atoms: C_1  and  N_2
REMARK    2  A    between atoms: N_2  and  C_3
REMARK    3  A    between atoms: N_2  and  S_18
REMARK    4  A    between atoms: C_6  and  C_7
REMARK    5  A    between atoms: C_7  and  C_9
REMARK    6  A    between atoms: C_9  and  O_10
REMARK    7  A    between atoms: O_10  and  C_11
REMARK    8  A    between atoms: C_11  and  C_13
REMARK    9  A    between atoms: S_18  and  C_19
REMARK                            x       y       z     vdW  Elec       q    Type
REMARK                         _______ _______ _______ _____ _____    ______ ____
ROOT
ATOM      1  C   UNL     1       1.277   9.292  19.043  0.00  0.00    +0.000 A 
ATOM      2  C   UNL     1       1.374   8.357  20.072  0.00  0.00    +0.000 A 
ATOM      3  C   UNL     1       2.220   7.248  19.943  0.00  0.00    +0.000 A 
ATOM      4  C   UNL     1       2.963   7.042  18.778  0.00  0.00    +0.000 A 
ATOM      5  C   UNL     1       2.838   7.959  17.728  0.00  0.00    +0.000 A 
ATOM      6  C   UNL     1       2.007   9.084  17.870  0.00  0.00    +0.000 A 
ENDROOT
BRANCH   1   8
ATOM      7  C   UNL     1      -1.023  10.294  19.033  0.00  0.00    +0.000 C 
ATOM      8  N   UNL     1       0.432  10.443  19.155  0.00  0.00    +0.000 N 
BRANCH   8   9
ATOM      9  S   UNL     1       1.025  11.855  19.868  0.00  0.00    +0.000 S 
ATOM     10  C   UNL     1      -0.364  12.964  19.737  0.00  0.00    +0.000 C 
ATOM     11  O   UNL     1       1.257  11.618  21.276  0.00  0.00    +0.000 OA
ATOM     12  O   UNL     1       2.066  12.396  19.025  0.00  0.00    +0.000 OA
ENDBRANCH   8   9
ENDBRANCH   1   8
BRANCH   4  13
ATOM     13  C   UNL     1       3.849   5.836  18.652  0.00  0.00    +0.000 C 
ATOM     14  O   UNL     1       4.603   5.541  19.568  0.00  0.00    +0.000 OA
BRANCH  13  15
ATOM     15  C   UNL     1       3.741   5.002  17.369  0.00  0.00    +0.000 C 
BRANCH  15  16
ATOM     16  O   UNL     1       3.276   3.675  17.613  0.00  0.00    +0.000 OA
BRANCH  16  17
ATOM     17  C   UNL     1       1.954   3.630  17.925  0.00  0.00    +0.000 C 
ATOM     18  O   UNL     1       1.056   4.206  17.323  0.00  0.00    +0.000 OA
BRANCH  17  19
ATOM     19  C   UNL     1       1.712   2.798  19.133  0.00  0.00    +0.000 C 
ATOM     20  C   UNL     1       2.166   3.268  20.496  0.00  0.00    +0.000 C 
ATOM     21  C   UNL     1       0.701   3.236  20.166  0.00  0.00    +0.000 C 
ENDBRANCH  17  19
ENDBRANCH  16  17
ENDBRANCH  15  16
ENDBRANCH  13  15
ENDBRANCH   4  13
TORSDOF 7
ENDMDL
