MODEL 1
REMARK VINA RESULT:      -6.7      0.000      0.000
REMARK  Name = 
REMARK  5 active torsions:
REMARK  status: ('A' for Active; 'I' for Inactive)
REMARK    1  A    between atoms: C_1  and  C_2
REMARK    2  A    between atoms: C_2  and  C_3
REMARK    3  A    between atoms: C_2  and  C_4
REMARK    4  A    between atoms: N_14  and  C_15
REMARK    5  A    between atoms: C_17  and  C_18
REMARK                            x       y       z     vdW  Elec       q    Type
REMARK                         _______ _______ _______ _____ _____    ______ ____
ROOT
ATOM      1  C   UNL     1       0.898  10.676  20.986  0.00  0.00    +0.000 A 
ATOM      2  N   UNL     1       1.019  10.124  22.176  0.00  0.00    +0.000 NA
ATOM      3  N   UNL     1       1.294   8.771  22.094  0.00  0.00    +0.000 NA
ATOM      4  C   UNL     1       1.405   8.359  20.850  0.00  0.00    +0.000 A 
ATOM      5  N   UNL     1       1.721   7.057  20.533  0.00  0.00    +0.000 N 
ATOM      6  C   UNL     1       2.158   6.618  19.312  0.00  0.00    +0.000 C 
ATOM      7  O   UNL     1       2.287   7.334  18.320  0.00  0.00    +0.000 OA
ATOM      8  N   UNL     1       2.515   5.273  19.248  0.00  0.00    +0.000 N 
ATOM      9  C   UNL     1       3.179   4.804  18.022  0.00  0.00    +0.000 C 
ATOM     10  C   UNL     1       4.425   3.961  18.349  0.00  0.00    +0.000 C 
ATOM     11  N   UNL     1       4.186   2.834  19.270  0.00  0.00    +0.000 NA
ATOM     12  C   UNL     1       3.586   1.692  18.596  0.00  0.00    +0.000 C 
ATOM     13  C   UNL     1       3.435   3.289  20.454  0.00  0.00    +0.000 C 
ATOM     14  C   UNL     1       2.198   4.202  20.221  0.00  0.00    +0.000 C 
ATOM     15  C   UNL     1       0.945   3.426  19.801  0.00  0.00    +0.000 C 
ATOM     16  S   UNL     1       1.089   9.566  19.688  0.00  0.00    +0.000 S 
ATOM     17  H   UNL     1       1.916   6.510  21.352  0.00  0.00    +0.000 HD
ENDROOT
BRANCH   1  19
ATOM     18  C   UNL     1       1.904  12.894  20.462  0.00  0.00    +0.000 C 
ATOM     19  C   UNL     1       0.608  12.127  20.721  0.00  0.00    +0.000 C 
ATOM     20  C   UNL     1      -0.358  12.286  19.548  0.00  0.00    +0.000 C 
ENDBRANCH   1  19
TORSDOF 1
ENDMDL
MODEL 2
REMARK VINA RESULT:      -6.5      1.740      2.094
REMARK  Name = 
REMARK  5 active torsions:
REMARK  status: ('A' for Active; 'I' for Inactive)
REMARK    1  A    between atoms: C_1  and  C_2
REMARK    2  A    between atoms: C_2  and  C_3
REMARK    3  A    between atoms: C_2  and  C_4
REMARK    4  A    between atoms: N_14  and  C_15
REMARK    5  A    between atoms: C_17  and  C_18
REMARK                            x       y       z     vdW  Elec       q    Type
REMARK                         _______ _______ _______ _____ _____    ______ ____
ROOT
ATOM      1  C   UNL     1      -0.011  10.803  21.735  0.00  0.00    +0.000 A 
ATOM      2  N   UNL     1       0.441  10.107  22.759  0.00  0.00    +0.000 NA
ATOM      3  N   UNL     1       1.127   8.976  22.355  0.00  0.00    +0.000 NA
ATOM      4  C   UNL     1       1.199   8.878  21.044  0.00  0.00    +0.000 A 
ATOM      5  N   UNL     1       1.876   7.853  20.421  0.00  0.00    +0.000 N 
ATOM      6  C   UNL     1       2.265   7.839  19.109  0.00  0.00    +0.000 C 
ATOM      7  O   UNL     1       2.021   8.733  18.300  0.00  0.00    +0.000 OA
ATOM      8  N   UNL     1       3.029   6.741  18.719  0.00  0.00    +0.000 N 
ATOM      9  C   UNL     1       3.639   6.778  17.382  0.00  0.00    +0.000 C 
ATOM     10  C   UNL     1       5.123   6.373  17.433  0.00  0.00    +0.000 C 
ATOM     11  N   UNL     1       5.388   5.077  18.085  0.00  0.00    +0.000 NA
ATOM     12  C   UNL     1       5.109   3.951  17.206  0.00  0.00    +0.000 C 
ATOM     13  C   UNL     1       4.695   5.004  19.384  0.00  0.00    +0.000 C 
ATOM     14  C   UNL     1       3.209   5.459  19.439  0.00  0.00    +0.000 C 
ATOM     15  C   UNL     1       2.232   4.395  18.928  0.00  0.00    +0.000 C 
ATOM     16  S   UNL     1       0.356  10.102  20.210  0.00  0.00    +0.000 S 
ATOM     17  H   UNL     1       2.345   7.260  21.081  0.00  0.00    +0.000 HD
ENDROOT
BRANCH   1  19
ATOM     18  C   UNL     1      -1.765  12.205  20.657  0.00  0.00    +0.000 C 
ATOM     19  C   UNL     1      -0.789  12.086  21.826  0.00  0.00    +0.000 C 
ATOM     20  C   UNL     1      -1.529  12.181  23.159  0.00  0.00    +0.000 C 
ENDBRANCH   1  19
TORSDOF 1
ENDMDL
MODEL 3
REMARK VINA RESULT:      -6.5      1.782      2.523
REMARK  Name = 
REMARK  5 active torsions:
REMARK  status: ('A' for Active; 'I' for Inactive)
REMARK    1  A    between atoms: C_1  and  C_2
REMARK    2  A    between atoms: C_2  and  C_3
REMARK    3  A    between atoms: C_2  and  C_4
REMARK    4  A    between atoms: N_14  and  C_15
REMARK    5  A    between atoms: C_17  and  C_18
REMARK                            x       y       z     vdW  Elec       q    Type
REMARK                         _______ _______ _______ _____ _____    ______ ____
ROOT
ATOM      1  C   UNL     1       0.736  10.053  20.616  0.00  0.00    +0.000 A 
ATOM      2  N   UNL     1       1.088  10.235  19.360  0.00  0.00    +0.000 NA
ATOM      3  N   UNL     1       1.694   9.113  18.823  0.00  0.00    +0.000 NA
ATOM      4  C   UNL     1       1.745   8.117  19.681  0.00  0.00    +0.000 A 
ATOM      5  N   UNL     1       2.266   6.887  19.345  0.00  0.00    +0.000 N 
ATOM      6  C   UNL     1       2.080   5.726  20.046  0.00  0.00    +0.000 C 
ATOM      7  O   UNL     1       1.450   5.641  21.099  0.00  0.00    +0.000 OA
ATOM      8  N   UNL     1       2.618   4.579  19.466  0.00  0.00    +0.000 N 
ATOM      9  C   UNL     1       2.273   3.284  20.072  0.00  0.00    +0.000 C 
ATOM     10  C   UNL     1       1.840   2.264  19.003  0.00  0.00    +0.000 C 
ATOM     11  N   UNL     1       2.803   2.077  17.901  0.00  0.00    +0.000 NA
ATOM     12  C   UNL     1       3.912   1.214  18.281  0.00  0.00    +0.000 C 
ATOM     13  C   UNL     1       3.222   3.382  17.359  0.00  0.00    +0.000 C 
ATOM     14  C   UNL     1       3.613   4.496  18.371  0.00  0.00    +0.000 C 
ATOM     15  C   UNL     1       5.032   4.339  18.924  0.00  0.00    +0.000 C 
ATOM     16  S   UNL     1       1.147   8.502  21.230  0.00  0.00    +0.000 S 
ATOM     17  H   UNL     1       2.523   6.841  18.376  0.00  0.00    +0.000 HD
ENDROOT
BRANCH   1  19
ATOM     18  C   UNL     1      -1.061  11.776  20.714  0.00  0.00    +0.000 C 
ATOM     19  C   UNL     1       0.050  11.068  21.487  0.00  0.00    +0.000 C 
ATOM     20  C   UNL     1      -0.505  10.415  22.753  0.00  0.00    +0.000 C 
ENDBRANCH   1  19
TORSDOF 1
ENDMDL
MODEL 4
REMARK VINA RESULT:      -6.3      1.846      2.355
REMARK  Name = 
REMARK  5 active torsions:
REMARK  status: ('A' for Active; 'I' for Inactive)
REMARK    1  A    between atoms: C_1  and  C_2
REMARK    2  A    between atoms: C_2  and  C_3
REMARK    3  A    between atoms: C_2  and  C_4
REMARK    4  A    between atoms: N_14  and  C_15
REMARK    5  A    between atoms: C_17  and  C_18
REMARK                            x       y       z     vdW  Elec       q    Type
REMARK                         _______ _______ _______ _____ _____    ______ ____
ROOT
ATOM      1  C   UNL     1       0.156  10.043  21.065  0.00  0.00    +0.000 A 
ATOM      2  N   UNL     1       0.462   9.180  22.013  0.00  0.00    +0.000 NA
ATOM      3  N   UNL     1       1.223   8.130  21.532  0.00  0.00    +0.000 NA
ATOM      4  C   UNL     1       1.494   8.256  20.251  0.00  0.00    +0.000 A 
ATOM      5  N   UNL     1       2.278   7.348  19.574  0.00  0.00    +0.000 N 
ATOM      6  C   UNL     1       2.861   7.555  18.353  0.00  0.00    +0.000 C 
ATOM      7  O   UNL     1       2.725   8.576  17.680  0.00  0.00    +0.000 OA
ATOM      8  N   UNL     1       3.696   6.535  17.904  0.00  0.00    +0.000 N 
ATOM      9  C   UNL     1       4.501   6.795  16.700  0.00  0.00    +0.000 C 
ATOM     10  C   UNL     1       5.968   6.378  16.908  0.00  0.00    +0.000 C 
ATOM     11  N   UNL     1       6.157   4.988  17.364  0.00  0.00    +0.000 NA
ATOM     12  C   UNL     1       6.036   4.030  16.274  0.00  0.00    +0.000 C 
ATOM     13  C   UNL     1       5.277   4.699  18.510  0.00  0.00    +0.000 C 
ATOM     14  C   UNL     1       3.791   5.147  18.415  0.00  0.00    +0.000 C 
ATOM     15  C   UNL     1       2.924   4.193  17.588  0.00  0.00    +0.000 C 
ATOM     16  S   UNL     1       0.763   9.610  19.517  0.00  0.00    +0.000 S 
ATOM     17  H   UNL     1       2.654   6.649  20.187  0.00  0.00    +0.000 HD
ENDROOT
BRANCH   1  19
ATOM     18  C   UNL     1      -0.966  11.517  22.730  0.00  0.00    +0.000 C 
ATOM     19  C   UNL     1      -0.651  11.296  21.252  0.00  0.00    +0.000 C 
ATOM     20  C   UNL     1       0.077  12.507  20.668  0.00  0.00    +0.000 C 
ENDBRANCH   1  19
TORSDOF 1
ENDMDL
MODEL 5
REMARK VINA RESULT:      -6.2      2.646      3.619
REMARK  Name = 
REMARK  5 active torsions:
REMARK  status: ('A' for Active; 'I' for Inactive)
REMARK    1  A    between atoms: C_1  and  C_2
REMARK    2  A    between atoms: C_2  and  C_3
REMARK    3  A    between atoms: C_2  and  C_4
REMARK    4  A    between atoms: N_14  and  C_15
REMARK    5  A    between atoms: C_17  and  C_18
REMARK                            x       y       z     vdW  Elec       q    Type
REMARK                         _______ _______ _______ _____ _____    ______ ____
ROOT
ATOM      1  C   UNL     1       0.338   9.621  20.226  0.00  0.00    +0.000 A 
ATOM      2  N   UNL     1       0.455  10.250  19.073  0.00  0.00    +0.000 NA
ATOM      3  N   UNL     1       1.440   9.694  18.278  0.00  0.00    +0.000 NA
ATOM      4  C   UNL     1       2.005   8.647  18.842  0.00  0.00    +0.000 A 
ATOM      5  N   UNL     1       2.981   7.910  18.208  0.00  0.00    +0.000 N 
ATOM      6  C   UNL     1       3.391   6.655  18.570  0.00  0.00    +0.000 C 
ATOM      7  O   UNL     1       2.962   6.036  19.543  0.00  0.00    +0.000 OA
ATOM      8  N   UNL     1       4.322   6.058  17.724  0.00  0.00    +0.000 N 
ATOM      9  C   UNL     1       4.640   4.641  17.954  0.00  0.00    +0.000 C 
ATOM     10  C   UNL     1       4.604   3.839  16.641  0.00  0.00    +0.000 C 
ATOM     11  N   UNL     1       5.444   4.386  15.559  0.00  0.00    +0.000 NA
ATOM     12  C   UNL     1       6.849   4.049  15.730  0.00  0.00    +0.000 C 
ATOM     13  C   UNL     1       5.194   5.830  15.395  0.00  0.00    +0.000 C 
ATOM     14  C   UNL     1       5.145   6.708  16.677  0.00  0.00    +0.000 C 
ATOM     15  C   UNL     1       6.533   7.072  17.213  0.00  0.00    +0.000 C 
ATOM     16  S   UNL     1       1.445   8.322  20.418  0.00  0.00    +0.000 S 
ATOM     17  H   UNL     1       3.140   8.229  17.270  0.00  0.00    +0.000 HD
ENDROOT
BRANCH   1  19
ATOM     18  C   UNL     1      -0.274   9.252  22.612  0.00  0.00    +0.000 C 
ATOM     19  C   UNL     1      -0.641   9.966  21.313  0.00  0.00    +0.000 C 
ATOM     20  C   UNL     1      -0.707  11.478  21.528  0.00  0.00    +0.000 C 
ENDBRANCH   1  19
TORSDOF 1
ENDMDL
MODEL 6
REMARK VINA RESULT:      -6.2      1.998      2.728
REMARK  Name = 
REMARK  5 active torsions:
REMARK  status: ('A' for Active; 'I' for Inactive)
REMARK    1  A    between atoms: C_1  and  C_2
REMARK    2  A    between atoms: C_2  and  C_3
REMARK    3  A    between atoms: C_2  and  C_4
REMARK    4  A    between atoms: N_14  and  C_15
REMARK    5  A    between atoms: C_17  and  C_18
REMARK                            x       y       z     vdW  Elec       q    Type
REMARK                         _______ _______ _______ _____ _____    ______ ____
ROOT
ATOM      1  C   UNL     1       1.187  10.255  18.892  0.00  0.00    +0.000 A 
ATOM      2  N   UNL     1       1.653  10.138  17.665  0.00  0.00    +0.000 NA
ATOM      3  N   UNL     1       2.244   8.906  17.451  0.00  0.00    +0.000 NA
ATOM      4  C   UNL     1       2.173   8.128  18.509  0.00  0.00    +0.000 A 
ATOM      5  N   UNL     1       2.659   6.839  18.506  0.00  0.00    +0.000 N 
ATOM      6  C   UNL     1       2.357   5.873  19.427  0.00  0.00    +0.000 C 
ATOM      7  O   UNL     1       1.635   6.047  20.408  0.00  0.00    +0.000 OA
ATOM      8  N   UNL     1       2.883   4.609  19.169  0.00  0.00    +0.000 N 
ATOM      9  C   UNL     1       2.424   3.496  20.013  0.00  0.00    +0.000 C 
ATOM     10  C   UNL     1       2.033   2.274  19.163  0.00  0.00    +0.000 C 
ATOM     11  N   UNL     1       3.075   1.814  18.225  0.00  0.00    +0.000 NA
ATOM     12  C   UNL     1       4.103   1.027  18.890  0.00  0.00    +0.000 C 
ATOM     13  C   UNL     1       3.604   2.949  17.448  0.00  0.00    +0.000 C 
ATOM     14  C   UNL     1       3.962   4.252  18.219  0.00  0.00    +0.000 C 
ATOM     15  C   UNL     1       5.320   4.182  18.924  0.00  0.00    +0.000 C 
ATOM     16  S   UNL     1       1.466   8.871  19.871  0.00  0.00    +0.000 S 
ATOM     17  H   UNL     1       2.994   6.568  17.600  0.00  0.00    +0.000 HD
ENDROOT
BRANCH   1  19
ATOM     18  C   UNL     1      -0.901  11.612  18.815  0.00  0.00    +0.000 C 
ATOM     19  C   UNL     1       0.481  11.460  19.447  0.00  0.00    +0.000 C 
ATOM     20  C   UNL     1       0.372  11.376  20.969  0.00  0.00    +0.000 C 
ENDBRANCH   1  19
TORSDOF 1
ENDMDL
MODEL 7
REMARK VINA RESULT:      -6.1      2.986      7.388
REMARK  Name = 
REMARK  5 active torsions:
REMARK  status: ('A' for Active; 'I' for Inactive)
REMARK    1  A    between atoms: C_1  and  C_2
REMARK    2  A    between atoms: C_2  and  C_3
REMARK    3  A    between atoms: C_2  and  C_4
REMARK    4  A    between atoms: N_14  and  C_15
REMARK    5  A    between atoms: C_17  and  C_18
REMARK                            x       y       z     vdW  Elec       q    Type
REMARK                         _______ _______ _______ _____ _____    ______ ____
ROOT
ATOM      1  C   UNL     1       5.062   5.556  16.561  0.00  0.00    +0.000 A 
ATOM      2  N   UNL     1       5.317   6.757  16.081  0.00  0.00    +0.000 NA
ATOM      3  N   UNL     1       4.495   7.721  16.636  0.00  0.00    +0.000 NA
ATOM      4  C   UNL     1       3.676   7.222  17.536  0.00  0.00    +0.000 A 
ATOM      5  N   UNL     1       2.799   8.010  18.248  0.00  0.00    +0.000 N 
ATOM      6  C   UNL     1       2.151   7.642  19.396  0.00  0.00    +0.000 C 
ATOM      7  O   UNL     1       2.240   6.533  19.922  0.00  0.00    +0.000 OA
ATOM      8  N   UNL     1       1.389   8.637  20.003  0.00  0.00    +0.000 N 
ATOM      9  C   UNL     1       0.841   8.355  21.338  0.00  0.00    +0.000 C 
ATOM     10  C   UNL     1       1.095   9.524  22.306  0.00  0.00    +0.000 C 
ATOM     11  N   UNL     1       0.629  10.838  21.824  0.00  0.00    +0.000 NA
ATOM     12  C   UNL     1      -0.807  11.008  21.993  0.00  0.00    +0.000 C 
ATOM     13  C   UNL     1       1.099  11.077  20.448  0.00  0.00    +0.000 C 
ATOM     14  C   UNL     1       0.943   9.923  19.418  0.00  0.00    +0.000 C 
ATOM     15  C   UNL     1      -0.474   9.810  18.848  0.00  0.00    +0.000 C 
ATOM     16  S   UNL     1       3.781   5.529  17.706  0.00  0.00    +0.000 S 
ATOM     17  H   UNL     1       2.921   8.984  18.042  0.00  0.00    +0.000 HD
ENDROOT
BRANCH   1  19
ATOM     18  C   UNL     1       5.727   4.085  14.664  0.00  0.00    +0.000 C 
ATOM     19  C   UNL     1       5.777   4.291  16.176  0.00  0.00    +0.000 C 
ATOM     20  C   UNL     1       7.223   4.311  16.671  0.00  0.00    +0.000 C 
ENDBRANCH   1  19
TORSDOF 1
ENDMDL
MODEL 8
REMARK VINA RESULT:      -6.1      1.342      1.363
REMARK  Name = 
REMARK  5 active torsions:
REMARK  status: ('A' for Active; 'I' for Inactive)
REMARK    1  A    between atoms: C_1  and  C_2
REMARK    2  A    between atoms: C_2  and  C_3
REMARK    3  A    between atoms: C_2  and  C_4
REMARK    4  A    between atoms: N_14  and  C_15
REMARK    5  A    between atoms: C_17  and  C_18
REMARK                            x       y       z     vdW  Elec       q    Type
REMARK                         _______ _______ _______ _____ _____    ______ ____
ROOT
ATOM      1  C   UNL     1       1.105  11.211  19.389  0.00  0.00    +0.000 A 
ATOM      2  N   UNL     1       0.723  10.698  20.541  0.00  0.00    +0.000 NA
ATOM      3  N   UNL     1       0.930   9.332  20.594  0.00  0.00    +0.000 NA
ATOM      4  C   UNL     1       1.491   8.870  19.497  0.00  0.00    +0.000 A 
ATOM      5  N   UNL     1       1.829   7.543  19.350  0.00  0.00    +0.000 N 
ATOM      6  C   UNL     1       2.679   7.039  18.403  0.00  0.00    +0.000 C 
ATOM      7  O   UNL     1       3.224   7.711  17.528  0.00  0.00    +0.000 OA
ATOM      8  N   UNL     1       2.956   5.678  18.504  0.00  0.00    +0.000 N 
ATOM      9  C   UNL     1       4.015   5.133  17.641  0.00  0.00    +0.000 C 
ATOM     10  C   UNL     1       4.986   4.246  18.440  0.00  0.00    +0.000 C 
ATOM     11  N   UNL     1       4.344   3.166  19.213  0.00  0.00    +0.000 NA
ATOM     12  C   UNL     1       3.988   2.028  18.377  0.00  0.00    +0.000 C 
ATOM     13  C   UNL     1       3.220   3.699  20.004  0.00  0.00    +0.000 C 
ATOM     14  C   UNL     1       2.225   4.659  19.294  0.00  0.00    +0.000 C 
ATOM     15  C   UNL     1       1.191   3.928  18.431  0.00  0.00    +0.000 C 
ATOM     16  S   UNL     1       1.720  10.047  18.286  0.00  0.00    +0.000 S 
ATOM     17  H   UNL     1       1.660   7.019  20.188  0.00  0.00    +0.000 HD
ENDROOT
BRANCH   1  19
ATOM     18  C   UNL     1       2.223  13.061  18.150  0.00  0.00    +0.000 C 
ATOM     19  C   UNL     1       1.024  12.664  19.009  0.00  0.00    +0.000 C 
ATOM     20  C   UNL     1      -0.286  12.966  18.282  0.00  0.00    +0.000 C 
ENDBRANCH   1  19
TORSDOF 1
ENDMDL
MODEL 9
REMARK VINA RESULT:      -6.1      2.041      2.369
REMARK  Name = 
REMARK  5 active torsions:
REMARK  status: ('A' for Active; 'I' for Inactive)
REMARK    1  A    between atoms: C_1  and  C_2
REMARK    2  A    between atoms: C_2  and  C_3
REMARK    3  A    between atoms: C_2  and  C_4
REMARK    4  A    between atoms: N_14  and  C_15
REMARK    5  A    between atoms: C_17  and  C_18
REMARK                            x       y       z     vdW  Elec       q    Type
REMARK                         _______ _______ _______ _____ _____    ______ ____
ROOT
ATOM      1  C   UNL     1      -0.290  11.221  19.986  0.00  0.00    +0.000 A 
ATOM      2  N   UNL     1      -0.119  10.574  21.121  0.00  0.00    +0.000 NA
ATOM      3  N   UNL     1       0.633   9.425  20.955  0.00  0.00    +0.000 NA
ATOM      4  C   UNL     1       1.031   9.265  19.711  0.00  0.00    +0.000 A 
ATOM      5  N   UNL     1       1.830   8.211  19.327  0.00  0.00    +0.000 N 
ATOM      6  C   UNL     1       2.537   8.134  18.158  0.00  0.00    +0.000 C 
ATOM      7  O   UNL     1       2.516   8.989  17.273  0.00  0.00    +0.000 OA
ATOM      8  N   UNL     1       3.360   7.019  18.024  0.00  0.00    +0.000 N 
ATOM      9  C   UNL     1       4.288   6.991  16.883  0.00  0.00    +0.000 C 
ATOM     10  C   UNL     1       5.706   6.589  17.326  0.00  0.00    +0.000 C 
ATOM     11  N   UNL     1       5.782   5.324  18.083  0.00  0.00    +0.000 NA
ATOM     12  C   UNL     1       5.719   4.159  17.213  0.00  0.00    +0.000 C 
ATOM     13  C   UNL     1       4.783   5.314  19.166  0.00  0.00    +0.000 C 
ATOM     14  C   UNL     1       3.337   5.772  18.824  0.00  0.00    +0.000 C 
ATOM     15  C   UNL     1       2.507   4.686  18.132  0.00  0.00    +0.000 C 
ATOM     16  S   UNL     1       0.441  10.448  18.636  0.00  0.00    +0.000 S 
ATOM     17  H   UNL     1       2.111   7.650  20.110  0.00  0.00    +0.000 HD
ENDROOT
BRANCH   1  19
ATOM     18  C   UNL     1      -0.661  13.193  18.510  0.00  0.00    +0.000 C 
ATOM     19  C   UNL     1      -1.049  12.507  19.818  0.00  0.00    +0.000 C 
ATOM     20  C   UNL     1      -2.557  12.262  19.873  0.00  0.00    +0.000 C 
ENDBRANCH   1  19
TORSDOF 1
ENDMDL
