MODEL 1
REMARK VINA RESULT:      -7.3      0.000      0.000
REMARK  Name = 
REMARK  10 active torsions:
REMARK  status: ('A' for Active; 'I' for Inactive)
REMARK    1  A    between atoms: C_1  and  C_2
REMARK    2  A    between atoms: C_2  and  C_3
REMARK    3  A    between atoms: C_4  and  C_5
REMARK    4  A    between atoms: C_5  and  N_6
REMARK    5  A    between atoms: C_7  and  N_8
REMARK    6  A    between atoms: C_12  and  N_13
REMARK    7  A    between atoms: C_15  and  C_16
REMARK    8  A    between atoms: N_22  and  C_23
REMARK    9  A    between atoms: C_23  and  C_24
REMARK   10  A    between atoms: N_36  and  C_37
REMARK                            x       y       z     vdW  Elec       q    Type
REMARK                         _______ _______ _______ _____ _____    ______ ____
ROOT
ATOM      1  N   UNL     1      -3.303  13.014  20.539  0.00  0.00    +0.000 N 
ATOM      2  C   UNL     1      -4.603  13.094  20.005  0.00  0.00    +0.000 A 
ATOM      3  C   UNL     1      -4.583  12.398  18.805  0.00  0.00    +0.000 A 
ATOM      4  C   UNL     1      -3.298  11.828  18.648  0.00  0.00    +0.000 A 
ATOM      5  C   UNL     1      -2.507  12.245  19.692  0.00  0.00    +0.000 A 
ATOM      6  C   UNL     1      -1.109  11.880  19.789  0.00  0.00    +0.000 A 
ATOM      7  O   UNL     1      -0.376  12.251  20.704  0.00  0.00    +0.000 OA
ATOM      8  N   UNL     1      -0.675  11.017  18.773  0.00  0.00    +0.000 N 
ATOM      9  C   UNL     1      -1.522  10.408  17.842  0.00  0.00    +0.000 A 
ATOM     10  O   UNL     1      -1.176   9.406  17.205  0.00  0.00    +0.000 OA
ATOM     11  N   UNL     1      -2.793  10.957  17.677  0.00  0.00    +0.000 N 
ATOM     12  C   UNL     1      -3.596  10.507  16.553  0.00  0.00    +0.000 C 
ENDROOT
BRANCH   2  13
ATOM     13  N   UNL     1      -5.643  13.704  20.673  0.00  0.00    +0.000 N 
ATOM     14  C   UNL     1      -6.793  12.884  21.129  0.00  0.00    +0.000 C 
ATOM     15  C   UNL     1      -7.468  13.571  22.317  0.00  0.00    +0.000 C 
ATOM     16  C   UNL     1      -7.872  15.013  21.997  0.00  0.00    +0.000 C 
ATOM     17  C   UNL     1      -6.713  15.799  21.365  0.00  0.00    +0.000 C 
ATOM     18  C   UNL     1      -6.129  15.005  20.173  0.00  0.00    +0.000 C 
BRANCH  17  19
ATOM     19  N   UNL     1      -7.171  17.140  20.985  0.00  0.00    +0.000 NA
ATOM     20  H   UNL     1      -7.575  17.615  21.791  0.00  0.00    +0.000 HD
ATOM     21  H   UNL     1      -7.920  17.058  20.295  0.00  0.00    +0.000 HD
ENDBRANCH  17  19
ENDBRANCH   2  13
BRANCH   3  22
ATOM     22  C   UNL     1      -5.697  12.259  17.918  0.00  0.00    +0.000 C 
ATOM     23  N   UNL     1      -6.603  12.153  17.210  0.00  0.00    +0.000 NA
ENDBRANCH   3  22
BRANCH   1  24
ATOM     24  C   UNL     1      -2.894  13.528  21.855  0.00  0.00    +0.000 C 
BRANCH  24  28
ATOM     25  C   UNL     1      -4.734  12.369  25.117  0.00  0.00    +0.000 C 
ATOM     26  C   UNL     1      -4.226  13.285  24.035  0.00  0.00    +0.000 C 
ATOM     27  C   UNL     1      -4.546  14.746  24.168  0.00  0.00    +0.000 C 
ATOM     28  C   UNL     1      -3.522  12.775  23.003  0.00  0.00    +0.000 C 
ENDBRANCH  24  28
ENDBRANCH   1  24
BRANCH   8  29
ATOM     29  C   UNL     1       0.749  10.641  18.707  0.00  0.00    +0.000 C 
BRANCH  29  30
ATOM     30  C   UNL     1       1.104   9.358  19.466  0.00  0.00    +0.000 A 
ATOM     31  N   UNL     1       0.546   9.218  20.704  0.00  0.00    +0.000 NA
ATOM     32  C   UNL     1       0.790   8.077  21.375  0.00  0.00    +0.000 A 
ATOM     33  C   UNL     1       1.598   7.061  20.909  0.00  0.00    +0.000 A 
ATOM     34  C   UNL     1       2.236   7.219  19.679  0.00  0.00    +0.000 A 
ATOM     35  C   UNL     1       3.118   6.223  19.227  0.00  0.00    +0.000 A 
ATOM     36  C   UNL     1       3.761   6.340  18.000  0.00  0.00    +0.000 A 
ATOM     37  C   UNL     1       3.489   7.435  17.192  0.00  0.00    +0.000 A 
ATOM     38  C   UNL     1       2.606   8.438  17.630  0.00  0.00    +0.000 A 
ATOM     39  C   UNL     1       1.975   8.374  18.901  0.00  0.00    +0.000 A 
ENDBRANCH  29  30
ENDBRANCH   8  29
TORSDOF 7
ENDMDL
MODEL 2
REMARK VINA RESULT:      -6.9      1.558      1.821
REMARK  Name = 
REMARK  10 active torsions:
REMARK  status: ('A' for Active; 'I' for Inactive)
REMARK    1  A    between atoms: C_1  and  C_2
REMARK    2  A    between atoms: C_2  and  C_3
REMARK    3  A    between atoms: C_4  and  C_5
REMARK    4  A    between atoms: C_5  and  N_6
REMARK    5  A    between atoms: C_7  and  N_8
REMARK    6  A    between atoms: C_12  and  N_13
REMARK    7  A    between atoms: C_15  and  C_16
REMARK    8  A    between atoms: N_22  and  C_23
REMARK    9  A    between atoms: C_23  and  C_24
REMARK   10  A    between atoms: N_36  and  C_37
REMARK                            x       y       z     vdW  Elec       q    Type
REMARK                         _______ _______ _______ _____ _____    ______ ____
ROOT
ATOM      1  N   UNL     1      -2.444  12.854  21.818  0.00  0.00    +0.000 N 
ATOM      2  C   UNL     1      -3.735  13.214  21.389  0.00  0.00    +0.000 A 
ATOM      3  C   UNL     1      -3.843  12.806  20.067  0.00  0.00    +0.000 A 
ATOM      4  C   UNL     1      -2.652  12.130  19.716  0.00  0.00    +0.000 A 
ATOM      5  C   UNL     1      -1.782  12.201  20.778  0.00  0.00    +0.000 A 
ATOM      6  C   UNL     1      -0.443  11.652  20.713  0.00  0.00    +0.000 A 
ATOM      7  O   UNL     1       0.359  11.714  21.644  0.00  0.00    +0.000 OA
ATOM      8  N   UNL     1      -0.159  10.991  19.510  0.00  0.00    +0.000 N 
ATOM      9  C   UNL     1      -1.106  10.716  18.519  0.00  0.00    +0.000 A 
ATOM     10  O   UNL     1      -0.917   9.847  17.661  0.00  0.00    +0.000 OA
ATOM     11  N   UNL     1      -2.296  11.443  18.552  0.00  0.00    +0.000 N 
ATOM     12  C   UNL     1      -3.184  11.360  17.404  0.00  0.00    +0.000 C 
ENDROOT
BRANCH   2  13
ATOM     13  N   UNL     1      -4.665  13.784  22.233  0.00  0.00    +0.000 N 
ATOM     14  C   UNL     1      -5.913  13.045  22.544  0.00  0.00    +0.000 C 
ATOM     15  C   UNL     1      -6.461  13.514  23.891  0.00  0.00    +0.000 C 
ATOM     16  C   UNL     1      -6.657  15.032  23.937  0.00  0.00    +0.000 C 
ATOM     17  C   UNL     1      -5.407  15.780  23.447  0.00  0.00    +0.000 C 
ATOM     18  C   UNL     1      -4.964  15.220  22.076  0.00  0.00    +0.000 C 
BRANCH  17  19
ATOM     19  N   UNL     1      -5.672  17.223  23.415  0.00  0.00    +0.000 NA
ATOM     20  H   UNL     1      -5.581  17.618  24.350  0.00  0.00    +0.000 HD
ATOM     21  H   UNL     1      -6.639  17.381  23.129  0.00  0.00    +0.000 HD
ENDBRANCH  17  19
ENDBRANCH   2  13
BRANCH   3  22
ATOM     22  C   UNL     1      -4.990  13.010  19.237  0.00  0.00    +0.000 C 
ATOM     23  N   UNL     1      -5.919  13.164  18.569  0.00  0.00    +0.000 NA
ENDBRANCH   3  22
BRANCH   1  24
ATOM     24  C   UNL     1      -1.932  13.006  23.189  0.00  0.00    +0.000 C 
BRANCH  24  28
ATOM     25  C   UNL     1      -0.823  16.548  24.449  0.00  0.00    +0.000 C 
ATOM     26  C   UNL     1      -1.558  15.233  24.404  0.00  0.00    +0.000 C 
ATOM     27  C   UNL     1      -2.577  14.982  25.476  0.00  0.00    +0.000 C 
ATOM     28  C   UNL     1      -1.278  14.345  23.428  0.00  0.00    +0.000 C 
ENDBRANCH  24  28
ENDBRANCH   1  24
BRANCH   8  29
ATOM     29  C   UNL     1       1.199  10.464  19.282  0.00  0.00    +0.000 C 
BRANCH  29  30
ATOM     30  C   UNL     1       1.410   9.022  19.758  0.00  0.00    +0.000 A 
ATOM     31  N   UNL     1       0.832   8.691  20.948  0.00  0.00    +0.000 NA
ATOM     32  C   UNL     1       0.949   7.418  21.369  0.00  0.00    +0.000 A 
ATOM     33  C   UNL     1       1.648   6.440  20.692  0.00  0.00    +0.000 A 
ATOM     34  C   UNL     1       2.308   6.778  19.512  0.00  0.00    +0.000 A 
ATOM     35  C   UNL     1       3.082   5.809  18.853  0.00  0.00    +0.000 A 
ATOM     36  C   UNL     1       3.743   6.107  17.666  0.00  0.00    +0.000 A 
ATOM     37  C   UNL     1       3.594   7.366  17.103  0.00  0.00    +0.000 A 
ATOM     38  C   UNL     1       2.820   8.345  17.750  0.00  0.00    +0.000 A 
ATOM     39  C   UNL     1       2.177   8.089  18.990  0.00  0.00    +0.000 A 
ENDBRANCH  29  30
ENDBRANCH   8  29
TORSDOF 7
ENDMDL
MODEL 3
REMARK VINA RESULT:      -6.9      1.760      3.810
REMARK  Name = 
REMARK  10 active torsions:
REMARK  status: ('A' for Active; 'I' for Inactive)
REMARK    1  A    between atoms: C_1  and  C_2
REMARK    2  A    between atoms: C_2  and  C_3
REMARK    3  A    between atoms: C_4  and  C_5
REMARK    4  A    between atoms: C_5  and  N_6
REMARK    5  A    between atoms: C_7  and  N_8
REMARK    6  A    between atoms: C_12  and  N_13
REMARK    7  A    between atoms: C_15  and  C_16
REMARK    8  A    between atoms: N_22  and  C_23
REMARK    9  A    between atoms: C_23  and  C_24
REMARK   10  A    between atoms: N_36  and  C_37
REMARK                            x       y       z     vdW  Elec       q    Type
REMARK                         _______ _______ _______ _____ _____    ______ ____
ROOT
ATOM      1  N   UNL     1      -3.140  11.904  19.525  0.00  0.00    +0.000 N 
ATOM      2  C   UNL     1      -3.471  12.912  20.451  0.00  0.00    +0.000 A 
ATOM      3  C   UNL     1      -2.280  13.329  21.027  0.00  0.00    +0.000 A 
ATOM      4  C   UNL     1      -1.219  12.636  20.398  0.00  0.00    +0.000 A 
ATOM      5  C   UNL     1      -1.756  11.734  19.510  0.00  0.00    +0.000 A 
ATOM      6  C   UNL     1      -0.928  10.824  18.745  0.00  0.00    +0.000 A 
ATOM      7  O   UNL     1      -1.383   9.999  17.955  0.00  0.00    +0.000 OA
ATOM      8  N   UNL     1       0.448  11.004  18.944  0.00  0.00    +0.000 N 
ATOM      9  C   UNL     1       1.007  12.063  19.667  0.00  0.00    +0.000 A 
ATOM     10  O   UNL     1       2.191  12.391  19.530  0.00  0.00    +0.000 OA
ATOM     11  N   UNL     1       0.167  12.763  20.532  0.00  0.00    +0.000 N 
ATOM     12  C   UNL     1       0.768  13.694  21.471  0.00  0.00    +0.000 C 
ENDROOT
BRANCH   2  13
ATOM     13  N   UNL     1      -4.759  13.375  20.613  0.00  0.00    +0.000 N 
ATOM     14  C   UNL     1      -5.042  14.818  20.413  0.00  0.00    +0.000 C 
ATOM     15  C   UNL     1      -6.511  15.001  20.029  0.00  0.00    +0.000 C 
ATOM     16  C   UNL     1      -7.457  14.358  21.047  0.00  0.00    +0.000 C 
ATOM     17  C   UNL     1      -7.045  12.913  21.371  0.00  0.00    +0.000 C 
ATOM     18  C   UNL     1      -5.547  12.868  21.753  0.00  0.00    +0.000 C 
BRANCH  17  19
ATOM     19  N   UNL     1      -7.917  12.370  22.419  0.00  0.00    +0.000 NA
ATOM     20  H   UNL     1      -7.357  11.939  23.153  0.00  0.00    +0.000 HD
ATOM     21  H   UNL     1      -8.494  11.626  22.024  0.00  0.00    +0.000 HD
ENDBRANCH  17  19
ENDBRANCH   2  13
BRANCH   3  22
ATOM     22  C   UNL     1      -2.168  14.322  22.051  0.00  0.00    +0.000 C 
ATOM     23  N   UNL     1      -2.071  15.130  22.870  0.00  0.00    +0.000 NA
ENDBRANCH   3  22
BRANCH   1  24
ATOM     24  C   UNL     1      -4.087  11.248  18.610  0.00  0.00    +0.000 C 
BRANCH  24  28
ATOM     25  C   UNL     1      -6.798  13.318  16.679  0.00  0.00    +0.000 C 
ATOM     26  C   UNL     1      -6.205  12.290  17.608  0.00  0.00    +0.000 C 
ATOM     27  C   UNL     1      -7.162  11.379  18.321  0.00  0.00    +0.000 C 
ATOM     28  C   UNL     1      -4.867  12.227  17.768  0.00  0.00    +0.000 C 
ENDBRANCH  24  28
ENDBRANCH   1  24
BRANCH   8  29
ATOM     29  C   UNL     1       1.396  10.084  18.293  0.00  0.00    +0.000 C 
BRANCH  29  30
ATOM     30  C   UNL     1       1.685   8.802  19.082  0.00  0.00    +0.000 A 
ATOM     31  N   UNL     1       1.017   8.661  20.264  0.00  0.00    +0.000 NA
ATOM     32  C   UNL     1       1.202   7.521  20.955  0.00  0.00    +0.000 A 
ATOM     33  C   UNL     1       2.052   6.508  20.565  0.00  0.00    +0.000 A 
ATOM     34  C   UNL     1       2.799   6.667  19.399  0.00  0.00    +0.000 A 
ATOM     35  C   UNL     1       3.721   5.673  19.030  0.00  0.00    +0.000 A 
ATOM     36  C   UNL     1       4.473   5.792  17.866  0.00  0.00    +0.000 A 
ATOM     37  C   UNL     1       4.272   6.885  17.036  0.00  0.00    +0.000 A 
ATOM     38  C   UNL     1       3.351   7.886  17.391  0.00  0.00    +0.000 A 
ATOM     39  C   UNL     1       2.607   7.821  18.599  0.00  0.00    +0.000 A 
ENDBRANCH  29  30
ENDBRANCH   8  29
TORSDOF 7
ENDMDL
MODEL 4
REMARK VINA RESULT:      -6.9      1.094      1.708
REMARK  Name = 
REMARK  10 active torsions:
REMARK  status: ('A' for Active; 'I' for Inactive)
REMARK    1  A    between atoms: C_1  and  C_2
REMARK    2  A    between atoms: C_2  and  C_3
REMARK    3  A    between atoms: C_4  and  C_5
REMARK    4  A    between atoms: C_5  and  N_6
REMARK    5  A    between atoms: C_7  and  N_8
REMARK    6  A    between atoms: C_12  and  N_13
REMARK    7  A    between atoms: C_15  and  C_16
REMARK    8  A    between atoms: N_22  and  C_23
REMARK    9  A    between atoms: C_23  and  C_24
REMARK   10  A    between atoms: N_36  and  C_37
REMARK                            x       y       z     vdW  Elec       q    Type
REMARK                         _______ _______ _______ _____ _____    ______ ____
ROOT
ATOM      1  N   UNL     1      -3.238  12.831  20.858  0.00  0.00    +0.000 N 
ATOM      2  C   UNL     1      -4.543  12.972  20.349  0.00  0.00    +0.000 A 
ATOM      3  C   UNL     1      -4.548  12.376  19.096  0.00  0.00    +0.000 A 
ATOM      4  C   UNL     1      -3.273  11.803  18.876  0.00  0.00    +0.000 A 
ATOM      5  C   UNL     1      -2.463  12.123  19.940  0.00  0.00    +0.000 A 
ATOM      6  C   UNL     1      -1.070  11.732  19.989  0.00  0.00    +0.000 A 
ATOM      7  O   UNL     1      -0.320  12.017  20.922  0.00  0.00    +0.000 OA
ATOM      8  N   UNL     1      -0.661  10.949  18.900  0.00  0.00    +0.000 N 
ATOM      9  C   UNL     1      -1.528  10.429  17.934  0.00  0.00    +0.000 A 
ATOM     10  O   UNL     1      -1.205   9.478  17.214  0.00  0.00    +0.000 OA
ATOM     11  N   UNL     1      -2.792  11.008  17.831  0.00  0.00    +0.000 N 
ATOM     12  C   UNL     1      -3.615  10.662  16.685  0.00  0.00    +0.000 C 
ENDROOT
BRANCH   2  13
ATOM     13  N   UNL     1      -5.566  13.540  21.077  0.00  0.00    +0.000 N 
ATOM     14  C   UNL     1      -5.649  15.018  21.184  0.00  0.00    +0.000 C 
ATOM     15  C   UNL     1      -7.096  15.428  21.459  0.00  0.00    +0.000 C 
ATOM     16  C   UNL     1      -7.672  14.723  22.690  0.00  0.00    +0.000 C 
ATOM     17  C   UNL     1      -7.424  13.207  22.642  0.00  0.00    +0.000 C 
ATOM     18  C   UNL     1      -5.928  12.928  22.371  0.00  0.00    +0.000 C 
BRANCH  17  19
ATOM     19  N   UNL     1      -7.904  12.586  23.882  0.00  0.00    +0.000 NA
ATOM     20  H   UNL     1      -8.176  13.303  24.553  0.00  0.00    +0.000 HD
ATOM     21  H   UNL     1      -7.140  12.064  24.314  0.00  0.00    +0.000 HD
ENDBRANCH  17  19
ENDBRANCH   2  13
BRANCH   3  22
ATOM     22  C   UNL     1      -5.674  12.326  18.216  0.00  0.00    +0.000 C 
ATOM     23  N   UNL     1      -6.577  12.280  17.498  0.00  0.00    +0.000 NA
ENDBRANCH   3  22
BRANCH   1  24
ATOM     24  C   UNL     1      -2.806  13.230  22.206  0.00  0.00    +0.000 C 
BRANCH  24  28
ATOM     25  C   UNL     1      -2.099  16.953  23.210  0.00  0.00    +0.000 C 
ATOM     26  C   UNL     1      -2.528  15.514  23.340  0.00  0.00    +0.000 C 
ATOM     27  C   UNL     1      -3.083  15.082  24.666  0.00  0.00    +0.000 C 
ATOM     28  C   UNL     1      -2.396  14.681  22.288  0.00  0.00    +0.000 C 
ENDBRANCH  24  28
ENDBRANCH   1  24
BRANCH   8  29
ATOM     29  C   UNL     1       0.756  10.560  18.786  0.00  0.00    +0.000 C 
BRANCH  29  30
ATOM     30  C   UNL     1       1.115   9.246  19.490  0.00  0.00    +0.000 A 
ATOM     31  N   UNL     1       0.528   9.036  20.704  0.00  0.00    +0.000 NA
ATOM     32  C   UNL     1       0.775   7.867  21.324  0.00  0.00    +0.000 A 
ATOM     33  C   UNL     1       1.613   6.890  20.830  0.00  0.00    +0.000 A 
ATOM     34  C   UNL     1       2.279   7.119  19.627  0.00  0.00    +0.000 A 
ATOM     35  C   UNL     1       3.190   6.161  19.150  0.00  0.00    +0.000 A 
ATOM     36  C   UNL     1       3.863   6.351  17.947  0.00  0.00    +0.000 A 
ATOM     37  C   UNL     1       3.592   7.479  17.188  0.00  0.00    +0.000 A 
ATOM     38  C   UNL     1       2.680   8.445  17.651  0.00  0.00    +0.000 A 
ATOM     39  C   UNL     1       2.018   8.307  18.900  0.00  0.00    +0.000 A 
ENDBRANCH  29  30
ENDBRANCH   8  29
TORSDOF 7
ENDMDL
MODEL 5
REMARK VINA RESULT:      -6.8      1.792      3.624
REMARK  Name = 
REMARK  10 active torsions:
REMARK  status: ('A' for Active; 'I' for Inactive)
REMARK    1  A    between atoms: C_1  and  C_2
REMARK    2  A    between atoms: C_2  and  C_3
REMARK    3  A    between atoms: C_4  and  C_5
REMARK    4  A    between atoms: C_5  and  N_6
REMARK    5  A    between atoms: C_7  and  N_8
REMARK    6  A    between atoms: C_12  and  N_13
REMARK    7  A    between atoms: C_15  and  C_16
REMARK    8  A    between atoms: N_22  and  C_23
REMARK    9  A    between atoms: C_23  and  C_24
REMARK   10  A    between atoms: N_36  and  C_37
REMARK                            x       y       z     vdW  Elec       q    Type
REMARK                         _______ _______ _______ _____ _____    ______ ____
ROOT
ATOM      1  N   UNL     1      -3.185  12.944  20.239  0.00  0.00    +0.000 N 
ATOM      2  C   UNL     1      -3.287  14.020  21.141  0.00  0.00    +0.000 A 
ATOM      3  C   UNL     1      -1.996  14.316  21.555  0.00  0.00    +0.000 A 
ATOM      4  C   UNL     1      -1.104  13.476  20.847  0.00  0.00    +0.000 A 
ATOM      5  C   UNL     1      -1.842  12.610  20.076  0.00  0.00    +0.000 A 
ATOM      6  C   UNL     1      -1.220  11.577  19.272  0.00  0.00    +0.000 A 
ATOM      7  O   UNL     1      -1.857  10.781  18.584  0.00  0.00    +0.000 OA
ATOM      8  N   UNL     1       0.182  11.600  19.304  0.00  0.00    +0.000 N 
ATOM      9  C   UNL     1       0.940  12.613  19.900  0.00  0.00    +0.000 A 
ATOM     10  O   UNL     1       2.129  12.791  19.612  0.00  0.00    +0.000 OA
ATOM     11  N   UNL     1       0.293  13.442  20.816  0.00  0.00    +0.000 N 
ATOM     12  C   UNL     1       1.105  14.332  21.628  0.00  0.00    +0.000 C 
ENDROOT
BRANCH   2  13
ATOM     13  N   UNL     1      -4.485  14.641  21.423  0.00  0.00    +0.000 N 
ATOM     14  C   UNL     1      -4.823  15.913  20.739  0.00  0.00    +0.000 C 
ATOM     15  C   UNL     1      -6.342  16.082  20.700  0.00  0.00    +0.000 C 
ATOM     16  C   UNL     1      -6.970  15.987  22.093  0.00  0.00    +0.000 C 
ATOM     17  C   UNL     1      -6.473  14.747  22.854  0.00  0.00    +0.000 C 
ATOM     18  C   UNL     1      -4.928  14.700  22.829  0.00  0.00    +0.000 C 
BRANCH  17  19
ATOM     19  N   UNL     1      -7.022  14.747  24.215  0.00  0.00    +0.000 NA
ATOM     20  H   UNL     1      -8.040  14.744  24.184  0.00  0.00    +0.000 HD
ATOM     21  H   UNL     1      -6.751  15.611  24.687  0.00  0.00    +0.000 HD
ENDBRANCH  17  19
ENDBRANCH   2  13
BRANCH   3  22
ATOM     22  C   UNL     1      -1.651  15.329  22.503  0.00  0.00    +0.000 C 
ATOM     23  N   UNL     1      -1.371  16.139  23.277  0.00  0.00    +0.000 NA
ENDBRANCH   3  22
BRANCH   1  24
ATOM     24  C   UNL     1      -4.303  12.369  19.475  0.00  0.00    +0.000 C 
BRANCH  24  28
ATOM     25  C   UNL     1      -7.735  11.205  20.967  0.00  0.00    +0.000 C 
ATOM     26  C   UNL     1      -6.636  11.419  19.960  0.00  0.00    +0.000 C 
ATOM     27  C   UNL     1      -6.882  10.929  18.563  0.00  0.00    +0.000 C 
ATOM     28  C   UNL     1      -5.492  12.026  20.339  0.00  0.00    +0.000 C 
ENDBRANCH  24  28
ENDBRANCH   1  24
BRANCH   8  29
ATOM     29  C   UNL     1       0.934  10.547  18.599  0.00  0.00    +0.000 C 
BRANCH  29  30
ATOM     30  C   UNL     1       1.202   9.289  19.432  0.00  0.00    +0.000 A 
ATOM     31  N   UNL     1       0.580   9.228  20.645  0.00  0.00    +0.000 NA
ATOM     32  C   UNL     1       0.746   8.112  21.379  0.00  0.00    +0.000 A 
ATOM     33  C   UNL     1       1.534   7.046  20.999  0.00  0.00    +0.000 A 
ATOM     34  C   UNL     1       2.236   7.121  19.798  0.00  0.00    +0.000 A 
ATOM     35  C   UNL     1       3.098   6.073  19.435  0.00  0.00    +0.000 A 
ATOM     36  C   UNL     1       3.804   6.108  18.238  0.00  0.00    +0.000 A 
ATOM     37  C   UNL     1       3.615   7.173  17.369  0.00  0.00    +0.000 A 
ATOM     38  C   UNL     1       2.753   8.228  17.716  0.00  0.00    +0.000 A 
ATOM     39  C   UNL     1       2.059   8.248  18.955  0.00  0.00    +0.000 A 
ENDBRANCH  29  30
ENDBRANCH   8  29
TORSDOF 7
ENDMDL
MODEL 6
REMARK VINA RESULT:      -6.5      1.715      2.472
REMARK  Name = 
REMARK  10 active torsions:
REMARK  status: ('A' for Active; 'I' for Inactive)
REMARK    1  A    between atoms: C_1  and  C_2
REMARK    2  A    between atoms: C_2  and  C_3
REMARK    3  A    between atoms: C_4  and  C_5
REMARK    4  A    between atoms: C_5  and  N_6
REMARK    5  A    between atoms: C_7  and  N_8
REMARK    6  A    between atoms: C_12  and  N_13
REMARK    7  A    between atoms: C_15  and  C_16
REMARK    8  A    between atoms: N_22  and  C_23
REMARK    9  A    between atoms: C_23  and  C_24
REMARK   10  A    between atoms: N_36  and  C_37
REMARK                            x       y       z     vdW  Elec       q    Type
REMARK                         _______ _______ _______ _____ _____    ______ ____
ROOT
ATOM      1  N   UNL     1      -1.735  12.224  20.923  0.00  0.00    +0.000 N 
ATOM      2  C   UNL     1      -3.024  12.522  20.441  0.00  0.00    +0.000 A 
ATOM      3  C   UNL     1      -3.109  11.974  19.169  0.00  0.00    +0.000 A 
ATOM      4  C   UNL     1      -1.907  11.277  18.908  0.00  0.00    +0.000 A 
ATOM      5  C   UNL     1      -1.053  11.470  19.969  0.00  0.00    +0.000 A 
ATOM      6  C   UNL     1       0.291  10.931  19.980  0.00  0.00    +0.000 A 
ATOM      7  O   UNL     1       1.079  11.102  20.909  0.00  0.00    +0.000 OA
ATOM      8  N   UNL     1       0.599  10.148  18.859  0.00  0.00    +0.000 N 
ATOM      9  C   UNL     1      -0.332   9.759  17.890  0.00  0.00    +0.000 A 
ATOM     10  O   UNL     1      -0.122   8.805  17.133  0.00  0.00    +0.000 OA
ATOM     11  N   UNL     1      -1.528  10.472  17.829  0.00  0.00    +0.000 N 
ATOM     12  C   UNL     1      -2.398  10.258  16.686  0.00  0.00    +0.000 C 
ENDROOT
BRANCH   2  13
ATOM     13  N   UNL     1      -3.970  13.169  21.206  0.00  0.00    +0.000 N 
ATOM     14  C   UNL     1      -3.952  14.651  21.283  0.00  0.00    +0.000 C 
ATOM     15  C   UNL     1      -5.354  15.161  21.619  0.00  0.00    +0.000 C 
ATOM     16  C   UNL     1      -5.911  14.519  22.893  0.00  0.00    +0.000 C 
ATOM     17  C   UNL     1      -5.764  12.989  22.868  0.00  0.00    +0.000 C 
ATOM     18  C   UNL     1      -4.304  12.608  22.530  0.00  0.00    +0.000 C 
BRANCH  17  19
ATOM     19  N   UNL     1      -6.219  12.425  24.144  0.00  0.00    +0.000 NA
ATOM     20  H   UNL     1      -5.483  12.502  24.845  0.00  0.00    +0.000 HD
ATOM     21  H   UNL     1      -6.399  11.427  24.025  0.00  0.00    +0.000 HD
ENDBRANCH  17  19
ENDBRANCH   2  13
BRANCH   3  22
ATOM     22  C   UNL     1      -4.246  12.076  18.307  0.00  0.00    +0.000 C 
ATOM     23  N   UNL     1      -5.170  12.163  17.620  0.00  0.00    +0.000 NA
ENDBRANCH   3  22
BRANCH   1  24
ATOM     24  C   UNL     1      -1.244  12.527  22.276  0.00  0.00    +0.000 C 
BRANCH  24  28
ATOM     25  C   UNL     1      -0.023  16.149  23.144  0.00  0.00    +0.000 C 
ATOM     26  C   UNL     1      -0.793  14.858  23.247  0.00  0.00    +0.000 C 
ATOM     27  C   UNL     1      -1.802  14.748  24.353  0.00  0.00    +0.000 C 
ATOM     28  C   UNL     1      -0.552  13.865  22.366  0.00  0.00    +0.000 C 
ENDBRANCH  24  28
ENDBRANCH   1  24
BRANCH   8  29
ATOM     29  C   UNL     1       1.964   9.614  18.707  0.00  0.00    +0.000 C 
BRANCH  29  30
ATOM     30  C   UNL     1       2.141   8.170  19.189  0.00  0.00    +0.000 A 
ATOM     31  N   UNL     1       1.471   7.831  20.328  0.00  0.00    +0.000 NA
ATOM     32  C   UNL     1       1.557   6.556  20.749  0.00  0.00    +0.000 A 
ATOM     33  C   UNL     1       2.309   5.583  20.124  0.00  0.00    +0.000 A 
ATOM     34  C   UNL     1       3.058   5.929  19.001  0.00  0.00    +0.000 A 
ATOM     35  C   UNL     1       3.884   4.964  18.399  0.00  0.00    +0.000 A 
ATOM     36  C   UNL     1       4.635   5.270  17.270  0.00  0.00    +0.000 A 
ATOM     37  C   UNL     1       4.529   6.532  16.704  0.00  0.00    +0.000 A 
ATOM     38  C   UNL     1       3.704   7.507  17.294  0.00  0.00    +0.000 A 
ATOM     39  C   UNL     1       2.966   7.243  18.478  0.00  0.00    +0.000 A 
ENDBRANCH  29  30
ENDBRANCH   8  29
TORSDOF 7
ENDMDL
MODEL 7
REMARK VINA RESULT:      -6.4      5.296      8.894
REMARK  Name = 
REMARK  10 active torsions:
REMARK  status: ('A' for Active; 'I' for Inactive)
REMARK    1  A    between atoms: C_1  and  C_2
REMARK    2  A    between atoms: C_2  and  C_3
REMARK    3  A    between atoms: C_4  and  C_5
REMARK    4  A    between atoms: C_5  and  N_6
REMARK    5  A    between atoms: C_7  and  N_8
REMARK    6  A    between atoms: C_12  and  N_13
REMARK    7  A    between atoms: C_15  and  C_16
REMARK    8  A    between atoms: N_22  and  C_23
REMARK    9  A    between atoms: C_23  and  C_24
REMARK   10  A    between atoms: N_36  and  C_37
REMARK                            x       y       z     vdW  Elec       q    Type
REMARK                         _______ _______ _______ _____ _____    ______ ____
ROOT
ATOM      1  N   UNL     1       2.868  14.631  20.197  0.00  0.00    +0.000 N 
ATOM      2  C   UNL     1       3.394  15.498  19.220  0.00  0.00    +0.000 A 
ATOM      3  C   UNL     1       2.311  16.111  18.607  0.00  0.00    +0.000 A 
ATOM      4  C   UNL     1       1.133  15.681  19.262  0.00  0.00    +0.000 A 
ATOM      5  C   UNL     1       1.478  14.742  20.205  0.00  0.00    +0.000 A 
ATOM      6  C   UNL     1       0.484  14.061  21.009  0.00  0.00    +0.000 A 
ATOM      7  O   UNL     1       0.765  13.207  21.849  0.00  0.00    +0.000 OA
ATOM      8  N   UNL     1      -0.828  14.500  20.784  0.00  0.00    +0.000 N 
ATOM      9  C   UNL     1      -1.164  15.607  19.997  0.00  0.00    +0.000 A 
ATOM     10  O   UNL     1      -2.258  16.172  20.102  0.00  0.00    +0.000 OA
ATOM     11  N   UNL     1      -0.200  16.074  19.105  0.00  0.00    +0.000 N 
ATOM     12  C   UNL     1      -0.602  17.052  18.109  0.00  0.00    +0.000 C 
ENDROOT
BRANCH   2  13
ATOM     13  N   UNL     1       4.749  15.685  19.048  0.00  0.00    +0.000 N 
ATOM     14  C   UNL     1       5.319  17.046  19.200  0.00  0.00    +0.000 C 
ATOM     15  C   UNL     1       6.796  16.940  19.583  0.00  0.00    +0.000 C 
ATOM     16  C   UNL     1       7.589  16.085  18.592  0.00  0.00    +0.000 C 
ATOM     17  C   UNL     1       6.891  14.744  18.315  0.00  0.00    +0.000 C 
ATOM     18  C   UNL     1       5.414  14.990  17.928  0.00  0.00    +0.000 C 
BRANCH  17  19
ATOM     19  N   UNL     1       7.632  14.000  17.289  0.00  0.00    +0.000 NA
ATOM     20  H   UNL     1       7.065  13.230  16.936  0.00  0.00    +0.000 HD
ATOM     21  H   UNL     1       8.459  13.577  17.712  0.00  0.00    +0.000 HD
ENDBRANCH  17  19
ENDBRANCH   2  13
BRANCH   3  22
ATOM     22  C   UNL     1       2.400  17.047  17.529  0.00  0.00    +0.000 C 
ATOM     23  N   UNL     1       2.479  17.795  16.653  0.00  0.00    +0.000 NA
ENDBRANCH   3  22
BRANCH   1  24
ATOM     24  C   UNL     1       3.664  13.852  21.157  0.00  0.00    +0.000 C 
BRANCH  24  28
ATOM     25  C   UNL     1       5.741  15.663  23.945  0.00  0.00    +0.000 C 
ATOM     26  C   UNL     1       5.442  14.825  22.729  0.00  0.00    +0.000 C 
ATOM     27  C   UNL     1       6.610  14.191  22.031  0.00  0.00    +0.000 C 
ATOM     28  C   UNL     1       4.166  14.680  22.315  0.00  0.00    +0.000 C 
ENDBRANCH  24  28
ENDBRANCH   1  24
BRANCH   8  29
ATOM     29  C   UNL     1      -1.941  13.826  21.475  0.00  0.00    +0.000 C 
BRANCH  29  30
ATOM     30  C   UNL     1      -2.975  13.186  20.542  0.00  0.00    +0.000 A 
ATOM     31  N   UNL     1      -4.260  13.624  20.678  0.00  0.00    +0.000 NA
ATOM     32  C   UNL     1      -5.184  13.125  19.836  0.00  0.00    +0.000 A 
ATOM     33  C   UNL     1      -4.922  12.173  18.874  0.00  0.00    +0.000 A 
ATOM     34  C   UNL     1      -3.631  11.659  18.770  0.00  0.00    +0.000 A 
ATOM     35  C   UNL     1      -3.368  10.636  17.842  0.00  0.00    +0.000 A 
ATOM     36  C   UNL     1      -2.089  10.109  17.702  0.00  0.00    +0.000 A 
ATOM     37  C   UNL     1      -1.050  10.636  18.456  0.00  0.00    +0.000 A 
ATOM     38  C   UNL     1      -1.297  11.661  19.386  0.00  0.00    +0.000 A 
ATOM     39  C   UNL     1      -2.602  12.183  19.592  0.00  0.00    +0.000 A 
ENDBRANCH  29  30
ENDBRANCH   8  29
TORSDOF 7
ENDMDL
MODEL 8
REMARK VINA RESULT:      -6.4      2.704      9.244
REMARK  Name = 
REMARK  10 active torsions:
REMARK  status: ('A' for Active; 'I' for Inactive)
REMARK    1  A    between atoms: C_1  and  C_2
REMARK    2  A    between atoms: C_2  and  C_3
REMARK    3  A    between atoms: C_4  and  C_5
REMARK    4  A    between atoms: C_5  and  N_6
REMARK    5  A    between atoms: C_7  and  N_8
REMARK    6  A    between atoms: C_12  and  N_13
REMARK    7  A    between atoms: C_15  and  C_16
REMARK    8  A    between atoms: N_22  and  C_23
REMARK    9  A    between atoms: C_23  and  C_24
REMARK   10  A    between atoms: N_36  and  C_37
REMARK                            x       y       z     vdW  Elec       q    Type
REMARK                         _______ _______ _______ _____ _____    ______ ____
ROOT
ATOM      1  N   UNL     1      -2.481  12.037  19.899  0.00  0.00    +0.000 N 
ATOM      2  C   UNL     1      -1.136  12.066  20.313  0.00  0.00    +0.000 A 
ATOM      3  C   UNL     1      -0.955  13.262  20.992  0.00  0.00    +0.000 A 
ATOM      4  C   UNL     1      -2.203  13.922  21.062  0.00  0.00    +0.000 A 
ATOM      5  C   UNL     1      -3.125  13.187  20.354  0.00  0.00    +0.000 A 
ATOM      6  C   UNL     1      -4.493  13.629  20.184  0.00  0.00    +0.000 A 
ATOM      7  O   UNL     1      -5.333  12.998  19.544  0.00  0.00    +0.000 OA
ATOM      8  N   UNL     1      -4.795  14.819  20.863  0.00  0.00    +0.000 N 
ATOM      9  C   UNL     1      -3.934  15.449  21.767  0.00  0.00    +0.000 A 
ATOM     10  O   UNL     1      -4.347  16.269  22.595  0.00  0.00    +0.000 OA
ATOM     11  N   UNL     1      -2.586  15.095  21.721  0.00  0.00    +0.000 N 
ATOM     12  C   UNL     1      -1.637  15.904  22.466  0.00  0.00    +0.000 C 
ENDROOT
BRANCH   2  13
ATOM     13  N   UNL     1      -0.272  11.014  20.100  0.00  0.00    +0.000 N 
ATOM     14  C   UNL     1       0.297  10.294  21.267  0.00  0.00    +0.000 C 
ATOM     15  C   UNL     1       0.678   8.872  20.852  0.00  0.00    +0.000 C 
ATOM     16  C   UNL     1       1.619   8.857  19.644  0.00  0.00    +0.000 C 
ATOM     17  C   UNL     1       1.095   9.748  18.506  0.00  0.00    +0.000 C 
ATOM     18  C   UNL     1       0.759  11.154  19.053  0.00  0.00    +0.000 C 
BRANCH  17  19
ATOM     19  N   UNL     1       2.072   9.781  17.411  0.00  0.00    +0.000 NA
ATOM     20  H   UNL     1       1.827  10.511  16.744  0.00  0.00    +0.000 HD
ATOM     21  H   UNL     1       2.033   8.899  16.899  0.00  0.00    +0.000 HD
ENDBRANCH  17  19
ENDBRANCH   2  13
BRANCH   3  22
ATOM     22  C   UNL     1       0.284  13.708  21.552  0.00  0.00    +0.000 C 
ATOM     23  N   UNL     1       1.289  14.061  21.997  0.00  0.00    +0.000 NA
ENDBRANCH   3  22
BRANCH   1  24
ATOM     24  C   UNL     1      -3.139  10.903  19.231  0.00  0.00    +0.000 C 
BRANCH  24  28
ATOM     25  C   UNL     1      -2.852  10.735  15.325  0.00  0.00    +0.000 C 
ATOM     26  C   UNL     1      -3.438  11.010  16.685  0.00  0.00    +0.000 C 
ATOM     27  C   UNL     1      -4.824  11.584  16.730  0.00  0.00    +0.000 C 
ATOM     28  C   UNL     1      -2.714  10.742  17.791  0.00  0.00    +0.000 C 
ENDBRANCH  24  28
ENDBRANCH   1  24
BRANCH   8  29
ATOM     29  C   UNL     1      -6.129  15.422  20.700  0.00  0.00    +0.000 C 
BRANCH  29  30
ATOM     30  C   UNL     1      -6.228  16.454  19.571  0.00  0.00    +0.000 A 
ATOM     31  N   UNL     1      -5.795  17.713  19.868  0.00  0.00    +0.000 NA
ATOM     32  C   UNL     1      -5.814  18.630  18.883  0.00  0.00    +0.000 A 
ATOM     33  C   UNL     1      -6.278  18.387  17.607  0.00  0.00    +0.000 A 
ATOM     34  C   UNL     1      -6.793  17.128  17.306  0.00  0.00    +0.000 A 
ATOM     35  C   UNL     1      -7.335  16.890  16.032  0.00  0.00    +0.000 A 
ATOM     36  C   UNL     1      -7.846  15.642  15.693  0.00  0.00    +0.000 A 
ATOM     37  C   UNL     1      -7.773  14.606  16.612  0.00  0.00    +0.000 A 
ATOM     38  C   UNL     1      -7.230  14.827  17.890  0.00  0.00    +0.000 A 
ATOM     39  C   UNL     1      -6.751  16.104  18.286  0.00  0.00    +0.000 A 
ENDBRANCH  29  30
ENDBRANCH   8  29
TORSDOF 7
ENDMDL
MODEL 9
REMARK VINA RESULT:      -6.4      2.305      9.167
REMARK  Name = 
REMARK  10 active torsions:
REMARK  status: ('A' for Active; 'I' for Inactive)
REMARK    1  A    between atoms: C_1  and  C_2
REMARK    2  A    between atoms: C_2  and  C_3
REMARK    3  A    between atoms: C_4  and  C_5
REMARK    4  A    between atoms: C_5  and  N_6
REMARK    5  A    between atoms: C_7  and  N_8
REMARK    6  A    between atoms: C_12  and  N_13
REMARK    7  A    between atoms: C_15  and  C_16
REMARK    8  A    between atoms: N_22  and  C_23
REMARK    9  A    between atoms: C_23  and  C_24
REMARK   10  A    between atoms: N_36  and  C_37
REMARK                            x       y       z     vdW  Elec       q    Type
REMARK                         _______ _______ _______ _____ _____    ______ ____
ROOT
ATOM      1  N   UNL     1      -1.893  11.330  19.508  0.00  0.00    +0.000 N 
ATOM      2  C   UNL     1      -0.512  11.402  19.772  0.00  0.00    +0.000 A 
ATOM      3  C   UNL     1      -0.303  12.577  20.480  0.00  0.00    +0.000 A 
ATOM      4  C   UNL     1      -1.561  13.178  20.717  0.00  0.00    +0.000 A 
ATOM      5  C   UNL     1      -2.526  12.432  20.082  0.00  0.00    +0.000 A 
ATOM      6  C   UNL     1      -3.921  12.820  20.084  0.00  0.00    +0.000 A 
ATOM      7  O   UNL     1      -4.802  12.179  19.512  0.00  0.00    +0.000 OA
ATOM      8  N   UNL     1      -4.191  13.967  20.844  0.00  0.00    +0.000 N 
ATOM      9  C   UNL     1      -3.260  14.598  21.675  0.00  0.00    +0.000 A 
ATOM     10  O   UNL     1      -3.609  15.365  22.579  0.00  0.00    +0.000 OA
ATOM     11  N   UNL     1      -1.913  14.306  21.465  0.00  0.00    +0.000 N 
ATOM     12  C   UNL     1      -0.919  15.125  22.137  0.00  0.00    +0.000 C 
ENDROOT
BRANCH   2  13
ATOM     13  N   UNL     1       0.364  10.398  19.419  0.00  0.00    +0.000 N 
ATOM     14  C   UNL     1       0.621  10.130  17.982  0.00  0.00    +0.000 C 
ATOM     15  C   UNL     1       1.995   9.478  17.823  0.00  0.00    +0.000 C 
ATOM     16  C   UNL     1       2.140   8.220  18.684  0.00  0.00    +0.000 C 
ATOM     17  C   UNL     1       1.705   8.475  20.136  0.00  0.00    +0.000 C 
ATOM     18  C   UNL     1       0.301   9.122  20.158  0.00  0.00    +0.000 C 
BRANCH  17  19
ATOM     19  N   UNL     1       1.767   7.223  20.900  0.00  0.00    +0.000 NA
ATOM     20  H   UNL     1       2.426   6.578  20.466  0.00  0.00    +0.000 HD
ATOM     21  H   UNL     1       0.855   6.765  20.870  0.00  0.00    +0.000 HD
ENDBRANCH  17  19
ENDBRANCH   2  13
BRANCH   3  22
ATOM     22  C   UNL     1       0.972  13.053  20.920  0.00  0.00    +0.000 C 
ATOM     23  N   UNL     1       1.998  13.448  21.275  0.00  0.00    +0.000 NA
ENDBRANCH   3  22
BRANCH   1  24
ATOM     24  C   UNL     1      -2.576  10.197  18.866  0.00  0.00    +0.000 C 
BRANCH  24  28
ATOM     25  C   UNL     1      -2.881  10.412  14.964  0.00  0.00    +0.000 C 
ATOM     26  C   UNL     1      -3.242  10.574  16.417  0.00  0.00    +0.000 C 
ATOM     27  C   UNL     1      -4.568  11.206  16.728  0.00  0.00    +0.000 C 
ATOM     28  C   UNL     1      -2.379  10.162  17.370  0.00  0.00    +0.000 C 
ENDBRANCH  24  28
ENDBRANCH   1  24
BRANCH   8  29
ATOM     29  C   UNL     1      -5.558  14.517  20.856  0.00  0.00    +0.000 C 
BRANCH  29  30
ATOM     30  C   UNL     1      -5.795  15.656  19.857  0.00  0.00    +0.000 A 
ATOM     31  N   UNL     1      -5.394  16.898  20.256  0.00  0.00    +0.000 NA
ATOM     32  C   UNL     1      -5.534  17.912  19.382  0.00  0.00    +0.000 A 
ATOM     33  C   UNL     1      -6.092  17.781  18.128  0.00  0.00    +0.000 A 
ATOM     34  C   UNL     1      -6.575  16.536  17.731  0.00  0.00    +0.000 A 
ATOM     35  C   UNL     1      -7.210  16.406  16.485  0.00  0.00    +0.000 A 
ATOM     36  C   UNL     1      -7.692  15.176  16.051  0.00  0.00    +0.000 A 
ATOM     37  C   UNL     1      -7.498  14.054  16.843  0.00  0.00    +0.000 A 
ATOM     38  C   UNL     1      -6.862  14.167  18.091  0.00  0.00    +0.000 A 
ATOM     39  C   UNL     1      -6.407  15.417  18.586  0.00  0.00    +0.000 A 
ENDBRANCH  29  30
ENDBRANCH   8  29
TORSDOF 7
ENDMDL
