MODEL 1
REMARK VINA RESULT:      -8.2      0.000      0.000
REMARK  Name = 
REMARK  2 active torsions:
REMARK  status: ('A' for Active; 'I' for Inactive)
REMARK    1  A    between atoms: C_7  and  C_8
REMARK    2  A    between atoms: N_25  and  C_26
REMARK                            x       y       z     vdW  Elec       q    Type
REMARK                         _______ _______ _______ _____ _____    ______ ____
ROOT
ATOM      1  O   UNL     1       6.065   4.499  14.738  0.00  0.00    +0.000 OA
ATOM      2  C   UNL     1       5.315   4.915  15.616  0.00  0.00    +0.000 A 
ATOM      3  O   UNL     1       4.959   6.250  15.739  0.00  0.00    +0.000 OA
ATOM      4  C   UNL     1       4.118   6.704  16.783  0.00  0.00    +0.000 A 
ATOM      5  C   UNL     1       3.884   8.077  16.815  0.00  0.00    +0.000 A 
ATOM      6  C   UNL     1       3.074   8.600  17.816  0.00  0.00    +0.000 A 
ATOM      7  C   UNL     1       2.520   7.763  18.794  0.00  0.00    +0.000 A 
ATOM      8  C   UNL     1       2.815   6.384  18.746  0.00  0.00    +0.000 A 
ATOM      9  C   UNL     1       3.580   5.823  17.729  0.00  0.00    +0.000 A 
ATOM     10  C   UNL     1       3.894   4.410  17.593  0.00  0.00    +0.000 A 
ATOM     11  C   UNL     1       4.725   4.024  16.620  0.00  0.00    +0.000 A 
ATOM     12  N   UNL     1       4.980   2.687  16.721  0.00  0.00    +0.000 N 
ATOM     13  C   UNL     1       4.288   2.173  17.826  0.00  0.00    +0.000 A 
ATOM     14  O   UNL     1       4.295   1.006  18.178  0.00  0.00    +0.000 OA
ATOM     15  N   UNL     1       3.582   3.298  18.373  0.00  0.00    +0.000 N 
ATOM     16  H   UNL     1       5.568   2.149  16.101  0.00  0.00    +0.000 HD
ENDROOT
BRANCH   7  17
ATOM     17  C   UNL     1       1.627   8.287  19.837  0.00  0.00    +0.000 A 
ATOM     18  C   UNL     1       1.435   7.633  21.052  0.00  0.00    +0.000 A 
ATOM     19  N   UNL     1       0.684   8.097  22.075  0.00  0.00    +0.000 NA
ATOM     20  C   UNL     1       0.098   9.293  21.917  0.00  0.00    +0.000 A 
ATOM     21  C   UNL     1      -0.624   9.841  22.963  0.00  0.00    +0.000 A 
ATOM     22  C   UNL     1      -1.204  11.109  22.863  0.00  0.00    +0.000 A 
ATOM     23  C   UNL     1      -1.101  11.835  21.682  0.00  0.00    +0.000 A 
ATOM     24  C   UNL     1      -0.409  11.294  20.603  0.00  0.00    +0.000 A 
ATOM     25  C   UNL     1       0.207  10.040  20.728  0.00  0.00    +0.000 A 
ATOM     26  C   UNL     1       0.966   9.511  19.687  0.00  0.00    +0.000 A 
ENDBRANCH   7  17
BRANCH  15  27
ATOM     27  C   UNL     1       2.699   3.130  19.459  0.00  0.00    +0.000 A 
ATOM     28  C   UNL     1       1.318   3.166  19.239  0.00  0.00    +0.000 A 
ATOM     29  C   UNL     1       0.427   2.999  20.302  0.00  0.00    +0.000 A 
ATOM     30  C   UNL     1       0.911   2.820  21.595  0.00  0.00    +0.000 A 
ATOM     31  C   UNL     1       2.287   2.808  21.827  0.00  0.00    +0.000 A 
ATOM     32  C   UNL     1       3.180   2.966  20.763  0.00  0.00    +0.000 A 
ENDBRANCH  15  27
TORSDOF 2
ENDMDL
MODEL 2
REMARK VINA RESULT:      -7.6      9.210     11.056
REMARK  Name = 
REMARK  2 active torsions:
REMARK  status: ('A' for Active; 'I' for Inactive)
REMARK    1  A    between atoms: C_7  and  C_8
REMARK    2  A    between atoms: N_25  and  C_26
REMARK                            x       y       z     vdW  Elec       q    Type
REMARK                         _______ _______ _______ _____ _____    ______ ____
ROOT
ATOM      1  O   UNL     1      10.475  18.417  17.032  0.00  0.00    +0.000 OA
ATOM      2  C   UNL     1      10.012  17.589  17.812  0.00  0.00    +0.000 A 
ATOM      3  O   UNL     1       9.243  17.933  18.914  0.00  0.00    +0.000 OA
ATOM      4  C   UNL     1       8.751  16.957  19.813  0.00  0.00    +0.000 A 
ATOM      5  C   UNL     1       8.037  17.447  20.904  0.00  0.00    +0.000 A 
ATOM      6  C   UNL     1       7.529  16.550  21.835  0.00  0.00    +0.000 A 
ATOM      7  C   UNL     1       7.752  15.174  21.695  0.00  0.00    +0.000 A 
ATOM      8  C   UNL     1       8.514  14.724  20.596  0.00  0.00    +0.000 A 
ATOM      9  C   UNL     1       8.993  15.591  19.619  0.00  0.00    +0.000 A 
ATOM     10  C   UNL     1       9.752  15.198  18.443  0.00  0.00    +0.000 A 
ATOM     11  C   UNL     1      10.236  16.150  17.639  0.00  0.00    +0.000 A 
ATOM     12  N   UNL     1      11.003  15.593  16.658  0.00  0.00    +0.000 N 
ATOM     13  C   UNL     1      11.034  14.203  16.836  0.00  0.00    +0.000 A 
ATOM     14  O   UNL     1      11.622  13.416  16.116  0.00  0.00    +0.000 OA
ATOM     15  N   UNL     1      10.211  13.963  17.990  0.00  0.00    +0.000 N 
ATOM     16  H   UNL     1      11.474  16.095  15.920  0.00  0.00    +0.000 HD
ENDROOT
BRANCH   7  17
ATOM     17  C   UNL     1       7.188  14.203  22.645  0.00  0.00    +0.000 A 
ATOM     18  C   UNL     1       7.327  12.828  22.473  0.00  0.00    +0.000 A 
ATOM     19  N   UNL     1       6.894  11.888  23.344  0.00  0.00    +0.000 NA
ATOM     20  C   UNL     1       6.307  12.317  24.472  0.00  0.00    +0.000 A 
ATOM     21  C   UNL     1       5.910  11.396  25.424  0.00  0.00    +0.000 A 
ATOM     22  C   UNL     1       5.346  11.799  26.638  0.00  0.00    +0.000 A 
ATOM     23  C   UNL     1       5.132  13.148  26.897  0.00  0.00    +0.000 A 
ATOM     24  C   UNL     1       5.493  14.094  25.943  0.00  0.00    +0.000 A 
ATOM     25  C   UNL     1       6.098  13.682  24.747  0.00  0.00    +0.000 A 
ATOM     26  C   UNL     1       6.532  14.615  23.809  0.00  0.00    +0.000 A 
ENDBRANCH   7  17
BRANCH  15  27
ATOM     27  C   UNL     1       9.939  12.647  18.413  0.00  0.00    +0.000 A 
ATOM     28  C   UNL     1       8.920  11.917  17.792  0.00  0.00    +0.000 A 
ATOM     29  C   UNL     1       8.637  10.610  18.197  0.00  0.00    +0.000 A 
ATOM     30  C   UNL     1       9.355  10.033  19.242  0.00  0.00    +0.000 A 
ATOM     31  C   UNL     1      10.356  10.762  19.883  0.00  0.00    +0.000 A 
ATOM     32  C   UNL     1      10.646  12.068  19.474  0.00  0.00    +0.000 A 
ENDBRANCH  15  27
TORSDOF 2
ENDMDL
MODEL 3
REMARK VINA RESULT:      -7.5      5.354      9.735
REMARK  Name = 
REMARK  2 active torsions:
REMARK  status: ('A' for Active; 'I' for Inactive)
REMARK    1  A    between atoms: C_7  and  C_8
REMARK    2  A    between atoms: N_25  and  C_26
REMARK                            x       y       z     vdW  Elec       q    Type
REMARK                         _______ _______ _______ _____ _____    ______ ____
ROOT
ATOM      1  O   UNL     1      -4.379  14.158  22.604  0.00  0.00    +0.000 OA
ATOM      2  C   UNL     1      -3.660  13.408  21.950  0.00  0.00    +0.000 A 
ATOM      3  O   UNL     1      -2.450  12.919  22.420  0.00  0.00    +0.000 OA
ATOM      4  C   UNL     1      -1.627  12.082  21.629  0.00  0.00    +0.000 A 
ATOM      5  C   UNL     1      -0.416  11.707  22.206  0.00  0.00    +0.000 A 
ATOM      6  C   UNL     1       0.450  10.892  21.487  0.00  0.00    +0.000 A 
ATOM      7  C   UNL     1       0.124  10.474  20.190  0.00  0.00    +0.000 A 
ATOM      8  C   UNL     1      -1.096  10.910  19.629  0.00  0.00    +0.000 A 
ATOM      9  C   UNL     1      -2.007  11.683  20.341  0.00  0.00    +0.000 A 
ATOM     10  C   UNL     1      -3.295  12.138  19.844  0.00  0.00    +0.000 A 
ATOM     11  C   UNL     1      -4.025  12.961  20.602  0.00  0.00    +0.000 A 
ATOM     12  N   UNL     1      -5.142  13.359  19.925  0.00  0.00    +0.000 N 
ATOM     13  C   UNL     1      -5.135  12.776  18.651  0.00  0.00    +0.000 A 
ATOM     14  O   UNL     1      -6.002  12.921  17.808  0.00  0.00    +0.000 OA
ATOM     15  N   UNL     1      -3.938  11.981  18.618  0.00  0.00    +0.000 N 
ATOM     16  H   UNL     1      -5.860  13.972  20.281  0.00  0.00    +0.000 HD
ENDROOT
BRANCH   7  17
ATOM     17  C   UNL     1       1.005   9.578  19.428  0.00  0.00    +0.000 A 
ATOM     18  C   UNL     1       1.557   9.943  18.202  0.00  0.00    +0.000 A 
ATOM     19  N   UNL     1       2.427   9.194  17.487  0.00  0.00    +0.000 NA
ATOM     20  C   UNL     1       2.806   8.019  18.012  0.00  0.00    +0.000 A 
ATOM     21  C   UNL     1       3.747   7.251  17.351  0.00  0.00    +0.000 A 
ATOM     22  C   UNL     1       4.213   6.047  17.889  0.00  0.00    +0.000 A 
ATOM     23  C   UNL     1       3.703   5.574  19.092  0.00  0.00    +0.000 A 
ATOM     24  C   UNL     1       2.732   6.311  19.762  0.00  0.00    +0.000 A 
ATOM     25  C   UNL     1       2.303   7.538  19.237  0.00  0.00    +0.000 A 
ATOM     26  C   UNL     1       1.385   8.328  19.926  0.00  0.00    +0.000 A 
ENDBRANCH   7  17
BRANCH  15  27
ATOM     27  C   UNL     1      -3.649  11.170  17.502  0.00  0.00    +0.000 A 
ATOM     28  C   UNL     1      -3.510   9.788  17.669  0.00  0.00    +0.000 A 
ATOM     29  C   UNL     1      -3.225   8.967  16.575  0.00  0.00    +0.000 A 
ATOM     30  C   UNL     1      -3.052   9.527  15.311  0.00  0.00    +0.000 A 
ATOM     31  C   UNL     1      -3.164  10.906  15.140  0.00  0.00    +0.000 A 
ATOM     32  C   UNL     1      -3.458  11.728  16.233  0.00  0.00    +0.000 A 
ENDBRANCH  15  27
TORSDOF 2
ENDMDL
MODEL 4
REMARK VINA RESULT:      -7.4      7.768     11.938
REMARK  Name = 
REMARK  2 active torsions:
REMARK  status: ('A' for Active; 'I' for Inactive)
REMARK    1  A    between atoms: C_7  and  C_8
REMARK    2  A    between atoms: N_25  and  C_26
REMARK                            x       y       z     vdW  Elec       q    Type
REMARK                         _______ _______ _______ _____ _____    ______ ____
ROOT
ATOM      1  O   UNL     1      -2.773  15.500  26.046  0.00  0.00    +0.000 OA
ATOM      2  C   UNL     1      -2.826  14.916  24.967  0.00  0.00    +0.000 A 
ATOM      3  O   UNL     1      -1.736  14.275  24.398  0.00  0.00    +0.000 OA
ATOM      4  C   UNL     1      -1.821  13.639  23.136  0.00  0.00    +0.000 A 
ATOM      5  C   UNL     1      -0.636  13.079  22.662  0.00  0.00    +0.000 A 
ATOM      6  C   UNL     1      -0.639  12.444  21.426  0.00  0.00    +0.000 A 
ATOM      7  C   UNL     1      -1.808  12.387  20.655  0.00  0.00    +0.000 A 
ATOM      8  C   UNL     1      -2.975  13.001  21.157  0.00  0.00    +0.000 A 
ATOM      9  C   UNL     1      -3.019  13.600  22.412  0.00  0.00    +0.000 A 
ATOM     10  C   UNL     1      -4.191  14.219  23.009  0.00  0.00    +0.000 A 
ATOM     11  C   UNL     1      -4.063  14.846  24.182  0.00  0.00    +0.000 A 
ATOM     12  N   UNL     1      -5.238  15.450  24.525  0.00  0.00    +0.000 N 
ATOM     13  C   UNL     1      -6.183  15.214  23.516  0.00  0.00    +0.000 A 
ATOM     14  O   UNL     1      -7.336  15.607  23.529  0.00  0.00    +0.000 OA
ATOM     15  N   UNL     1      -5.492  14.408  22.548  0.00  0.00    +0.000 N 
ATOM     16  H   UNL     1      -5.407  15.978  25.368  0.00  0.00    +0.000 HD
ENDROOT
BRANCH   7  17
ATOM     17  C   UNL     1      -1.844  11.684  19.365  0.00  0.00    +0.000 A 
ATOM     18  C   UNL     1      -0.919  10.698  19.029  0.00  0.00    +0.000 A 
ATOM     19  N   UNL     1      -0.940   9.968  17.891  0.00  0.00    +0.000 NA
ATOM     20  C   UNL     1      -1.945  10.194  17.031  0.00  0.00    +0.000 A 
ATOM     21  C   UNL     1      -2.048   9.424  15.887  0.00  0.00    +0.000 A 
ATOM     22  C   UNL     1      -3.109   9.587  14.992  0.00  0.00    +0.000 A 
ATOM     23  C   UNL     1      -4.070  10.566  15.215  0.00  0.00    +0.000 A 
ATOM     24  C   UNL     1      -3.973  11.377  16.342  0.00  0.00    +0.000 A 
ATOM     25  C   UNL     1      -2.929  11.177  17.257  0.00  0.00    +0.000 A 
ATOM     26  C   UNL     1      -2.852  11.927  18.427  0.00  0.00    +0.000 A 
ENDBRANCH   7  17
BRANCH  15  27
ATOM     27  C   UNL     1      -6.173  13.902  21.423  0.00  0.00    +0.000 A 
ATOM     28  C   UNL     1      -6.286  14.687  20.270  0.00  0.00    +0.000 A 
ATOM     29  C   UNL     1      -6.956  14.201  19.145  0.00  0.00    +0.000 A 
ATOM     30  C   UNL     1      -7.539  12.937  19.173  0.00  0.00    +0.000 A 
ATOM     31  C   UNL     1      -7.453  12.157  20.326  0.00  0.00    +0.000 A 
ATOM     32  C   UNL     1      -6.775  12.638  21.451  0.00  0.00    +0.000 A 
ENDBRANCH  15  27
TORSDOF 2
ENDMDL
MODEL 5
REMARK VINA RESULT:      -7.2      5.150     10.228
REMARK  Name = 
REMARK  2 active torsions:
REMARK  status: ('A' for Active; 'I' for Inactive)
REMARK    1  A    between atoms: C_7  and  C_8
REMARK    2  A    between atoms: N_25  and  C_26
REMARK                            x       y       z     vdW  Elec       q    Type
REMARK                         _______ _______ _______ _____ _____    ______ ____
ROOT
ATOM      1  O   UNL     1      -2.185  14.583  24.658  0.00  0.00    +0.000 OA
ATOM      2  C   UNL     1      -1.579  13.885  23.849  0.00  0.00    +0.000 A 
ATOM      3  O   UNL     1      -1.715  12.506  23.787  0.00  0.00    +0.000 OA
ATOM      4  C   UNL     1      -0.977  11.725  22.866  0.00  0.00    +0.000 A 
ATOM      5  C   UNL     1      -1.174  10.349  22.948  0.00  0.00    +0.000 A 
ATOM      6  C   UNL     1      -0.479   9.515  22.080  0.00  0.00    +0.000 A 
ATOM      7  C   UNL     1       0.427  10.048  21.153  0.00  0.00    +0.000 A 
ATOM      8  C   UNL     1       0.624  11.445  21.130  0.00  0.00    +0.000 A 
ATOM      9  C   UNL     1      -0.093  12.310  21.950  0.00  0.00    +0.000 A 
ATOM     10  C   UNL     1       0.029  13.758  21.958  0.00  0.00    +0.000 A 
ATOM     11  C   UNL     1      -0.651  14.459  22.870  0.00  0.00    +0.000 A 
ATOM     12  N   UNL     1      -0.327  15.782  22.787  0.00  0.00    +0.000 N 
ATOM     13  C   UNL     1       0.626  15.955  21.774  0.00  0.00    +0.000 A 
ATOM     14  O   UNL     1       1.111  17.022  21.440  0.00  0.00    +0.000 OA
ATOM     15  N   UNL     1       0.838  14.637  21.240  0.00  0.00    +0.000 N 
ATOM     16  H   UNL     1      -0.709  16.521  23.357  0.00  0.00    +0.000 HD
ENDROOT
BRANCH   7  17
ATOM     17  C   UNL     1       1.142   9.189  20.198  0.00  0.00    +0.000 A 
ATOM     18  C   UNL     1       1.538   9.643  18.941  0.00  0.00    +0.000 A 
ATOM     19  N   UNL     1       2.256   8.927  18.047  0.00  0.00    +0.000 NA
ATOM     20  C   UNL     1       2.639   7.693  18.410  0.00  0.00    +0.000 A 
ATOM     21  C   UNL     1       3.435   6.950  17.557  0.00  0.00    +0.000 A 
ATOM     22  C   UNL     1       3.904   5.682  17.917  0.00  0.00    +0.000 A 
ATOM     23  C   UNL     1       3.541   5.121  19.136  0.00  0.00    +0.000 A 
ATOM     24  C   UNL     1       2.715   5.834  19.999  0.00  0.00    +0.000 A 
ATOM     25  C   UNL     1       2.285   7.123  19.648  0.00  0.00    +0.000 A 
ATOM     26  C   UNL     1       1.518   7.883  20.527  0.00  0.00    +0.000 A 
ENDBRANCH   7  17
BRANCH  15  27
ATOM     27  C   UNL     1       1.682  14.443  20.129  0.00  0.00    +0.000 A 
ATOM     28  C   UNL     1       3.049  14.721  20.240  0.00  0.00    +0.000 A 
ATOM     29  C   UNL     1       3.901  14.533  19.150  0.00  0.00    +0.000 A 
ATOM     30  C   UNL     1       3.389  14.088  17.933  0.00  0.00    +0.000 A 
ATOM     31  C   UNL     1       2.024  13.832  17.806  0.00  0.00    +0.000 A 
ATOM     32  C   UNL     1       1.170  14.012  18.899  0.00  0.00    +0.000 A 
ENDBRANCH  15  27
TORSDOF 2
ENDMDL
MODEL 6
REMARK VINA RESULT:      -7.2      5.780     10.871
REMARK  Name = 
REMARK  2 active torsions:
REMARK  status: ('A' for Active; 'I' for Inactive)
REMARK    1  A    between atoms: C_7  and  C_8
REMARK    2  A    between atoms: N_25  and  C_26
REMARK                            x       y       z     vdW  Elec       q    Type
REMARK                         _______ _______ _______ _____ _____    ______ ____
ROOT
ATOM      1  O   UNL     1      -1.926  16.264  24.689  0.00  0.00    +0.000 OA
ATOM      2  C   UNL     1      -1.403  15.479  23.903  0.00  0.00    +0.000 A 
ATOM      3  O   UNL     1      -1.748  14.138  23.831  0.00  0.00    +0.000 OA
ATOM      4  C   UNL     1      -1.103  13.249  22.937  0.00  0.00    +0.000 A 
ATOM      5  C   UNL     1      -1.513  11.920  23.006  0.00  0.00    +0.000 A 
ATOM      6  C   UNL     1      -0.921  10.987  22.165  0.00  0.00    +0.000 A 
ATOM      7  C   UNL     1       0.093  11.370  21.276  0.00  0.00    +0.000 A 
ATOM      8  C   UNL     1       0.505  12.720  21.267  0.00  0.00    +0.000 A 
ATOM      9  C   UNL     1      -0.103  13.688  22.060  0.00  0.00    +0.000 A 
ATOM     10  C   UNL     1       0.241  15.100  22.077  0.00  0.00    +0.000 A 
ATOM     11  C   UNL     1      -0.358  15.900  22.964  0.00  0.00    +0.000 A 
ATOM     12  N   UNL     1       0.170  17.156  22.899  0.00  0.00    +0.000 N 
ATOM     13  C   UNL     1       1.178  17.177  21.925  0.00  0.00    +0.000 A 
ATOM     14  O   UNL     1       1.835  18.155  21.615  0.00  0.00    +0.000 OA
ATOM     15  N   UNL     1       1.205  15.841  21.396  0.00  0.00    +0.000 N 
ATOM     16  H   UNL     1      -0.116  17.947  23.456  0.00  0.00    +0.000 HD
ENDROOT
BRANCH   7  17
ATOM     17  C   UNL     1       0.705  10.409  20.348  0.00  0.00    +0.000 A 
ATOM     18  C   UNL     1       1.118  10.771  19.067  0.00  0.00    +0.000 A 
ATOM     19  N   UNL     1       1.748   9.953  18.194  0.00  0.00    +0.000 NA
ATOM     20  C   UNL     1       2.018   8.704  18.603  0.00  0.00    +0.000 A 
ATOM     21  C   UNL     1       2.723   7.854  17.770  0.00  0.00    +0.000 A 
ATOM     22  C   UNL     1       3.075   6.563  18.176  0.00  0.00    +0.000 A 
ATOM     23  C   UNL     1       2.683   6.089  19.423  0.00  0.00    +0.000 A 
ATOM     24  C   UNL     1       1.946   6.913  20.268  0.00  0.00    +0.000 A 
ATOM     25  C   UNL     1       1.635   8.221  19.869  0.00  0.00    +0.000 A 
ATOM     26  C   UNL     1       0.961   9.087  20.726  0.00  0.00    +0.000 A 
ENDBRANCH   7  17
BRANCH  15  27
ATOM     27  C   UNL     1       2.053  15.515  20.319  0.00  0.00    +0.000 A 
ATOM     28  C   UNL     1       3.381  15.152  20.569  0.00  0.00    +0.000 A 
ATOM     29  C   UNL     1       4.236  14.824  19.514  0.00  0.00    +0.000 A 
ATOM     30  C   UNL     1       3.776  14.881  18.200  0.00  0.00    +0.000 A 
ATOM     31  C   UNL     1       2.461  15.266  17.940  0.00  0.00    +0.000 A 
ATOM     32  C   UNL     1       1.601  15.587  18.996  0.00  0.00    +0.000 A 
ENDBRANCH  15  27
TORSDOF 2
ENDMDL
MODEL 7
REMARK VINA RESULT:      -7.2      5.742     10.859
REMARK  Name = 
REMARK  2 active torsions:
REMARK  status: ('A' for Active; 'I' for Inactive)
REMARK    1  A    between atoms: C_7  and  C_8
REMARK    2  A    between atoms: N_25  and  C_26
REMARK                            x       y       z     vdW  Elec       q    Type
REMARK                         _______ _______ _______ _____ _____    ______ ____
ROOT
ATOM      1  O   UNL     1      -3.085  16.796  23.907  0.00  0.00    +0.000 OA
ATOM      2  C   UNL     1      -2.427  15.895  23.395  0.00  0.00    +0.000 A 
ATOM      3  O   UNL     1      -2.712  14.550  23.580  0.00  0.00    +0.000 OA
ATOM      4  C   UNL     1      -1.913  13.534  23.002  0.00  0.00    +0.000 A 
ATOM      5  C   UNL     1      -2.284  12.227  23.312  0.00  0.00    +0.000 A 
ATOM      6  C   UNL     1      -1.543  11.174  22.789  0.00  0.00    +0.000 A 
ATOM      7  C   UNL     1      -0.425  11.421  21.982  0.00  0.00    +0.000 A 
ATOM      8  C   UNL     1      -0.062  12.761  21.725  0.00  0.00    +0.000 A 
ATOM      9  C   UNL     1      -0.812  13.835  22.192  0.00  0.00    +0.000 A 
ATOM     10  C   UNL     1      -0.522  15.237  21.939  0.00  0.00    +0.000 A 
ATOM     11  C   UNL     1      -1.272  16.170  22.534  0.00  0.00    +0.000 A 
ATOM     12  N   UNL     1      -0.782  17.414  22.261  0.00  0.00    +0.000 N 
ATOM     13  C   UNL     1       0.356  17.289  21.452  0.00  0.00    +0.000 A 
ATOM     14  O   UNL     1       1.016  18.217  21.022  0.00  0.00    +0.000 OA
ATOM     15  N   UNL     1       0.505  15.874  21.245  0.00  0.00    +0.000 N 
ATOM     16  H   UNL     1      -1.174  18.286  22.583  0.00  0.00    +0.000 HD
ENDROOT
BRANCH   7  17
ATOM     17  C   UNL     1       0.348  10.323  21.383  0.00  0.00    +0.000 A 
ATOM     18  C   UNL     1       0.628   9.147  22.074  0.00  0.00    +0.000 A 
ATOM     19  N   UNL     1       1.271   8.076  21.558  0.00  0.00    +0.000 NA
ATOM     20  C   UNL     1       1.647   8.143  20.271  0.00  0.00    +0.000 A 
ATOM     21  C   UNL     1       2.246   7.046  19.679  0.00  0.00    +0.000 A 
ATOM     22  C   UNL     1       2.603   7.051  18.327  0.00  0.00    +0.000 A 
ATOM     23  C   UNL     1       2.398   8.188  17.554  0.00  0.00    +0.000 A 
ATOM     24  C   UNL     1       1.826   9.317  18.132  0.00  0.00    +0.000 A 
ATOM     25  C   UNL     1       1.432   9.287  19.478  0.00  0.00    +0.000 A 
ATOM     26  C   UNL     1       0.792  10.379  20.058  0.00  0.00    +0.000 A 
ENDBRANCH   7  17
BRANCH  15  27
ATOM     27  C   UNL     1       1.511  15.379  20.392  0.00  0.00    +0.000 A 
ATOM     28  C   UNL     1       1.172  14.923  19.114  0.00  0.00    +0.000 A 
ATOM     29  C   UNL     1       2.156  14.429  18.253  0.00  0.00    +0.000 A 
ATOM     30  C   UNL     1       3.482  14.366  18.675  0.00  0.00    +0.000 A 
ATOM     31  C   UNL     1       3.825  14.796  19.956  0.00  0.00    +0.000 A 
ATOM     32  C   UNL     1       2.843  15.298  20.816  0.00  0.00    +0.000 A 
ENDBRANCH  15  27
TORSDOF 2
ENDMDL
MODEL 8
REMARK VINA RESULT:      -7.2      7.974     11.159
REMARK  Name = 
REMARK  2 active torsions:
REMARK  status: ('A' for Active; 'I' for Inactive)
REMARK    1  A    between atoms: C_7  and  C_8
REMARK    2  A    between atoms: N_25  and  C_26
REMARK                            x       y       z     vdW  Elec       q    Type
REMARK                         _______ _______ _______ _____ _____    ______ ____
ROOT
ATOM      1  O   UNL     1      -7.536  11.251  20.007  0.00  0.00    +0.000 OA
ATOM      2  C   UNL     1      -6.374  11.650  19.982  0.00  0.00    +0.000 A 
ATOM      3  O   UNL     1      -5.491  11.342  18.958  0.00  0.00    +0.000 OA
ATOM      4  C   UNL     1      -4.147  11.789  18.974  0.00  0.00    +0.000 A 
ATOM      5  C   UNL     1      -3.358  11.364  17.908  0.00  0.00    +0.000 A 
ATOM      6  C   UNL     1      -2.025  11.755  17.859  0.00  0.00    +0.000 A 
ATOM      7  C   UNL     1      -1.475  12.545  18.877  0.00  0.00    +0.000 A 
ATOM      8  C   UNL     1      -2.302  12.921  19.958  0.00  0.00    +0.000 A 
ATOM      9  C   UNL     1      -3.651  12.588  20.012  0.00  0.00    +0.000 A 
ATOM     10  C   UNL     1      -4.571  12.969  21.071  0.00  0.00    +0.000 A 
ATOM     11  C   UNL     1      -5.820  12.494  21.044  0.00  0.00    +0.000 A 
ATOM     12  N   UNL     1      -6.493  12.873  22.170  0.00  0.00    +0.000 N 
ATOM     13  C   UNL     1      -5.635  13.627  22.982  0.00  0.00    +0.000 A 
ATOM     14  O   UNL     1      -5.938  14.124  24.052  0.00  0.00    +0.000 OA
ATOM     15  N   UNL     1      -4.398  13.688  22.253  0.00  0.00    +0.000 N 
ATOM     16  H   UNL     1      -7.453  12.652  22.386  0.00  0.00    +0.000 HD
ENDROOT
BRANCH   7  17
ATOM     17  C   UNL     1      -0.081  13.006  18.824  0.00  0.00    +0.000 A 
ATOM     18  C   UNL     1       0.986  12.129  18.643  0.00  0.00    +0.000 A 
ATOM     19  N   UNL     1       2.282  12.496  18.516  0.00  0.00    +0.000 NA
ATOM     20  C   UNL     1       2.556  13.810  18.542  0.00  0.00    +0.000 A 
ATOM     21  C   UNL     1       3.856  14.237  18.346  0.00  0.00    +0.000 A 
ATOM     22  C   UNL     1       4.179  15.597  18.309  0.00  0.00    +0.000 A 
ATOM     23  C   UNL     1       3.194  16.556  18.512  0.00  0.00    +0.000 A 
ATOM     24  C   UNL     1       1.883  16.153  18.743  0.00  0.00    +0.000 A 
ATOM     25  C   UNL     1       1.561  14.788  18.735  0.00  0.00    +0.000 A 
ATOM     26  C   UNL     1       0.244  14.364  18.892  0.00  0.00    +0.000 A 
ENDBRANCH   7  17
BRANCH  15  27
ATOM     27  C   UNL     1      -3.319  14.453  22.737  0.00  0.00    +0.000 A 
ATOM     28  C   UNL     1      -2.389  13.868  23.604  0.00  0.00    +0.000 A 
ATOM     29  C   UNL     1      -1.312  14.610  24.093  0.00  0.00    +0.000 A 
ATOM     30  C   UNL     1      -1.171  15.950  23.739  0.00  0.00    +0.000 A 
ATOM     31  C   UNL     1      -2.107  16.549  22.896  0.00  0.00    +0.000 A 
ATOM     32  C   UNL     1      -3.181  15.805  22.398  0.00  0.00    +0.000 A 
ENDBRANCH  15  27
TORSDOF 2
ENDMDL
MODEL 9
REMARK VINA RESULT:      -7.1      5.967      9.079
REMARK  Name = 
REMARK  2 active torsions:
REMARK  status: ('A' for Active; 'I' for Inactive)
REMARK    1  A    between atoms: C_7  and  C_8
REMARK    2  A    between atoms: N_25  and  C_26
REMARK                            x       y       z     vdW  Elec       q    Type
REMARK                         _______ _______ _______ _____ _____    ______ ____
ROOT
ATOM      1  O   UNL     1       1.330   9.464  17.690  0.00  0.00    +0.000 OA
ATOM      2  C   UNL     1       0.432  10.073  18.265  0.00  0.00    +0.000 A 
ATOM      3  O   UNL     1       0.626  10.766  19.451  0.00  0.00    +0.000 OA
ATOM      4  C   UNL     1      -0.437  11.431  20.108  0.00  0.00    +0.000 A 
ATOM      5  C   UNL     1      -0.110  12.043  21.316  0.00  0.00    +0.000 A 
ATOM      6  C   UNL     1      -1.103  12.709  22.024  0.00  0.00    +0.000 A 
ATOM      7  C   UNL     1      -2.420  12.744  21.545  0.00  0.00    +0.000 A 
ATOM      8  C   UNL     1      -2.714  12.077  20.337  0.00  0.00    +0.000 A 
ATOM      9  C   UNL     1      -1.733  11.445  19.579  0.00  0.00    +0.000 A 
ATOM     10  C   UNL     1      -1.954  10.771  18.310  0.00  0.00    +0.000 A 
ATOM     11  C   UNL     1      -0.936  10.119  17.740  0.00  0.00    +0.000 A 
ATOM     12  N   UNL     1      -1.363   9.466  16.620  0.00  0.00    +0.000 N 
ATOM     13  C   UNL     1      -2.736   9.693  16.455  0.00  0.00    +0.000 A 
ATOM     14  O   UNL     1      -3.414   9.260  15.540  0.00  0.00    +0.000 OA
ATOM     15  N   UNL     1      -3.101  10.548  17.551  0.00  0.00    +0.000 N 
ATOM     16  H   UNL     1      -0.787   8.911  16.005  0.00  0.00    +0.000 HD
ENDROOT
BRANCH   7  17
ATOM     17  C   UNL     1      -3.476  13.478  22.256  0.00  0.00    +0.000 A 
ATOM     18  C   UNL     1      -3.413  14.853  22.469  0.00  0.00    +0.000 A 
ATOM     19  N   UNL     1      -4.382  15.595  23.052  0.00  0.00    +0.000 NA
ATOM     20  C   UNL     1      -5.501  14.959  23.432  0.00  0.00    +0.000 A 
ATOM     21  C   UNL     1      -6.547  15.687  23.969  0.00  0.00    +0.000 A 
ATOM     22  C   UNL     1      -7.753  15.075  24.325  0.00  0.00    +0.000 A 
ATOM     23  C   UNL     1      -7.910  13.701  24.184  0.00  0.00    +0.000 A 
ATOM     24  C   UNL     1      -6.862  12.941  23.676  0.00  0.00    +0.000 A 
ATOM     25  C   UNL     1      -5.672  13.569  23.281  0.00  0.00    +0.000 A 
ATOM     26  C   UNL     1      -4.637  12.838  22.703  0.00  0.00    +0.000 A 
ENDBRANCH   7  17
BRANCH  15  27
ATOM     27  C   UNL     1      -4.410  11.058  17.655  0.00  0.00    +0.000 A 
ATOM     28  C   UNL     1      -4.767  12.200  16.930  0.00  0.00    +0.000 A 
ATOM     29  C   UNL     1      -6.061  12.720  17.018  0.00  0.00    +0.000 A 
ATOM     30  C   UNL     1      -6.999  12.115  17.852  0.00  0.00    +0.000 A 
ATOM     31  C   UNL     1      -6.645  10.991  18.597  0.00  0.00    +0.000 A 
ATOM     32  C   UNL     1      -5.352  10.465  18.504  0.00  0.00    +0.000 A 
ENDBRANCH  15  27
TORSDOF 2
ENDMDL
