MODEL 1
REMARK VINA RESULT:      -8.1      0.000      0.000
REMARK  Name = 
REMARK  15 active torsions:
REMARK  status: ('A' for Active; 'I' for Inactive)
REMARK    1  A    between atoms: C_1  and  C_2
REMARK    2  A    between atoms: C_2  and  C_3
REMARK    3  A    between atoms: C_2  and  C_4
REMARK    4  A    between atoms: C_4  and  O_5
REMARK    5  A    between atoms: O_5  and  C_6
REMARK    6  A    between atoms: C_8  and  C_9
REMARK    7  A    between atoms: C_9  and  O_11
REMARK    8  A    between atoms: C_14  and  N_15
REMARK    9  A    between atoms: C_16  and  C_18
REMARK   10  A    between atoms: C_21  and  N_22
REMARK   11  A    between atoms: C_26  and  O_27
REMARK   12  A    between atoms: O_27  and  C_28
REMARK   13  A    between atoms: C_28  and  C_29
REMARK   14  A    between atoms: C_29  and  C_30
REMARK   15  A    between atoms: C_29  and  C_31
REMARK                            x       y       z     vdW  Elec       q    Type
REMARK                         _______ _______ _______ _____ _____    ______ ____
ROOT
ATOM      1  N   UNL     1       1.965   8.222  19.841  0.00  0.00    +0.000 N 
ATOM      2  C   UNL     1       2.167   6.832  19.853  0.00  0.00    +0.000 C 
ATOM      3  O   UNL     1       1.538   6.058  20.564  0.00  0.00    +0.000 OA
ATOM      4  H   UNL     1       2.496   8.785  19.213  0.00  0.00    +0.000 HD
ENDROOT
BRANCH   1  10
ATOM      5  C   UNL     1       0.326  10.055  20.031  0.00  0.00    +0.000 A 
ATOM      6  C   UNL     1      -0.451  10.902  20.844  0.00  0.00    +0.000 A 
ATOM      7  C   UNL     1      -0.502  10.720  22.230  0.00  0.00    +0.000 A 
ATOM      8  C   UNL     1       0.205   9.667  22.809  0.00  0.00    +0.000 A 
ATOM      9  C   UNL     1       0.987   8.824  22.010  0.00  0.00    +0.000 A 
ATOM     10  C   UNL     1       1.077   9.006  20.624  0.00  0.00    +0.000 A 
BRANCH   7  11
ATOM     11  C   UNL     1      -1.329  11.649  23.039  0.00  0.00    +0.000 C 
ATOM     12  O   UNL     1      -0.966  12.780  23.324  0.00  0.00    +0.000 OA
BRANCH  11  13
ATOM     13  O   UNL     1      -2.492  11.112  23.468  0.00  0.00    +0.000 OA
ATOM     14  H   UNL     1      -3.255  11.716  23.465  0.00  0.00    +0.000 HD
ENDBRANCH  11  13
ENDBRANCH   7  11
BRANCH   5  15
ATOM     15  O   UNL     1       0.306  10.436  18.708  0.00  0.00    +0.000 OA
BRANCH  15  16
ATOM     16  C   UNL     1      -0.509   9.705  17.792  0.00  0.00    +0.000 C 
BRANCH  16  18
ATOM     17  C   UNL     1      -1.889  11.856  17.665  0.00  0.00    +0.000 C 
ATOM     18  C   UNL     1      -1.913  10.324  17.652  0.00  0.00    +0.000 C 
ATOM     19  C   UNL     1      -2.565   9.832  16.356  0.00  0.00    +0.000 C 
ENDBRANCH  16  18
ENDBRANCH  15  16
ENDBRANCH   5  15
ENDBRANCH   1  10
BRANCH   2  20
ATOM     20  C   UNL     1       3.211   6.287  18.877  0.00  0.00    +0.000 A 
ATOM     21  C   UNL     1       3.613   7.092  17.782  0.00  0.00    +0.000 A 
ATOM     22  C   UNL     1       4.566   6.679  16.850  0.00  0.00    +0.000 A 
ATOM     23  C   UNL     1       5.135   5.419  16.973  0.00  0.00    +0.000 A 
ATOM     24  C   UNL     1       4.737   4.579  18.015  0.00  0.00    +0.000 A 
ATOM     25  C   UNL     1       3.817   4.999  19.003  0.00  0.00    +0.000 A 
BRANCH  23  26
ATOM     26  N   UNL     1       6.179   4.989  16.043  0.00  0.00    +0.000 N 
ATOM     27  O   UNL     1       7.161   5.729  15.902  0.00  0.00    +0.000 OA
ATOM     28  O   UNL     1       6.025   3.903  15.465  0.00  0.00    +0.000 OA
ENDBRANCH  23  26
BRANCH  25  29
ATOM     29  O   UNL     1       3.532   4.174  20.078  0.00  0.00    +0.000 OA
BRANCH  29  30
ATOM     30  C   UNL     1       3.275   2.792  19.748  0.00  0.00    +0.000 C 
BRANCH  30  31
ATOM     31  C   UNL     1       1.867   2.298  20.113  0.00  0.00    +0.000 C 
ATOM     32  C   UNL     1       1.541   2.720  21.557  0.00  0.00    +0.000 C 
ATOM     33  C   UNL     1       0.814   2.855  19.164  0.00  0.00    +0.000 C 
ENDBRANCH  30  31
ENDBRANCH  29  30
ENDBRANCH  25  29
ENDBRANCH   2  20
TORSDOF 11
ENDMDL
MODEL 2
REMARK VINA RESULT:      -8.1      0.605      1.034
REMARK  Name = 
REMARK  15 active torsions:
REMARK  status: ('A' for Active; 'I' for Inactive)
REMARK    1  A    between atoms: C_1  and  C_2
REMARK    2  A    between atoms: C_2  and  C_3
REMARK    3  A    between atoms: C_2  and  C_4
REMARK    4  A    between atoms: C_4  and  O_5
REMARK    5  A    between atoms: O_5  and  C_6
REMARK    6  A    between atoms: C_8  and  C_9
REMARK    7  A    between atoms: C_9  and  O_11
REMARK    8  A    between atoms: C_14  and  N_15
REMARK    9  A    between atoms: C_16  and  C_18
REMARK   10  A    between atoms: C_21  and  N_22
REMARK   11  A    between atoms: C_26  and  O_27
REMARK   12  A    between atoms: O_27  and  C_28
REMARK   13  A    between atoms: C_28  and  C_29
REMARK   14  A    between atoms: C_29  and  C_30
REMARK   15  A    between atoms: C_29  and  C_31
REMARK                            x       y       z     vdW  Elec       q    Type
REMARK                         _______ _______ _______ _____ _____    ______ ____
ROOT
ATOM      1  N   UNL     1       1.635   8.402  19.944  0.00  0.00    +0.000 N 
ATOM      2  C   UNL     1       1.945   7.036  20.040  0.00  0.00    +0.000 C 
ATOM      3  O   UNL     1       1.439   6.277  20.856  0.00  0.00    +0.000 OA
ATOM      4  H   UNL     1       2.068   8.951  19.234  0.00  0.00    +0.000 HD
ENDROOT
BRANCH   1  10
ATOM      5  C   UNL     1      -0.054  10.188  20.151  0.00  0.00    +0.000 A 
ATOM      6  C   UNL     1      -0.824  11.033  20.973  0.00  0.00    +0.000 A 
ATOM      7  C   UNL     1      -0.816  10.887  22.363  0.00  0.00    +0.000 A 
ATOM      8  C   UNL     1      -0.054   9.873  22.941  0.00  0.00    +0.000 A 
ATOM      9  C   UNL     1       0.723   9.033  22.133  0.00  0.00    +0.000 A 
ATOM     10  C   UNL     1       0.753   9.180  20.742  0.00  0.00    +0.000 A 
BRANCH   7  11
ATOM     11  C   UNL     1      -1.640  11.811  23.180  0.00  0.00    +0.000 C 
ATOM     12  O   UNL     1      -2.779  11.546  23.534  0.00  0.00    +0.000 OA
BRANCH  11  13
ATOM     13  O   UNL     1      -1.033  12.987  23.455  0.00  0.00    +0.000 OA
ATOM     14  H   UNL     1      -1.001  13.228  24.397  0.00  0.00    +0.000 HD
ENDBRANCH  11  13
ENDBRANCH   7  11
BRANCH   5  15
ATOM     15  O   UNL     1      -0.137  10.532  18.821  0.00  0.00    +0.000 OA
BRANCH  15  16
ATOM     16  C   UNL     1      -0.909  11.674  18.450  0.00  0.00    +0.000 C 
BRANCH  16  18
ATOM     17  C   UNL     1      -1.992   9.857  17.011  0.00  0.00    +0.000 C 
ATOM     18  C   UNL     1      -2.077  11.300  17.517  0.00  0.00    +0.000 C 
ATOM     19  C   UNL     1      -3.407  11.509  18.249  0.00  0.00    +0.000 C 
ENDBRANCH  16  18
ENDBRANCH  15  16
ENDBRANCH   5  15
ENDBRANCH   1  10
BRANCH   2  20
ATOM     20  C   UNL     1       2.948   6.493  19.019  0.00  0.00    +0.000 A 
ATOM     21  C   UNL     1       3.302   7.297  17.908  0.00  0.00    +0.000 A 
ATOM     22  C   UNL     1       4.215   6.886  16.937  0.00  0.00    +0.000 A 
ATOM     23  C   UNL     1       4.790   5.628  17.036  0.00  0.00    +0.000 A 
ATOM     24  C   UNL     1       4.438   4.787  18.094  0.00  0.00    +0.000 A 
ATOM     25  C   UNL     1       3.561   5.206  19.120  0.00  0.00    +0.000 A 
BRANCH  23  26
ATOM     26  N   UNL     1       5.794   5.199  16.062  0.00  0.00    +0.000 N 
ATOM     27  O   UNL     1       6.046   5.967  15.124  0.00  0.00    +0.000 OA
ATOM     28  O   UNL     1       6.342   4.102  16.243  0.00  0.00    +0.000 OA
ENDBRANCH  23  26
BRANCH  25  29
ATOM     29  O   UNL     1       3.324   4.381  20.207  0.00  0.00    +0.000 OA
BRANCH  29  30
ATOM     30  C   UNL     1       3.217   2.973  19.904  0.00  0.00    +0.000 C 
BRANCH  30  31
ATOM     31  C   UNL     1       1.836   2.361  20.186  0.00  0.00    +0.000 C 
ATOM     32  C   UNL     1       1.366   2.794  21.586  0.00  0.00    +0.000 C 
ATOM     33  C   UNL     1       0.811   2.790  19.144  0.00  0.00    +0.000 C 
ENDBRANCH  30  31
ENDBRANCH  29  30
ENDBRANCH  25  29
ENDBRANCH   2  20
TORSDOF 11
ENDMDL
MODEL 3
REMARK VINA RESULT:      -8.1      1.682      8.851
REMARK  Name = 
REMARK  15 active torsions:
REMARK  status: ('A' for Active; 'I' for Inactive)
REMARK    1  A    between atoms: C_1  and  C_2
REMARK    2  A    between atoms: C_2  and  C_3
REMARK    3  A    between atoms: C_2  and  C_4
REMARK    4  A    between atoms: C_4  and  O_5
REMARK    5  A    between atoms: O_5  and  C_6
REMARK    6  A    between atoms: C_8  and  C_9
REMARK    7  A    between atoms: C_9  and  O_11
REMARK    8  A    between atoms: C_14  and  N_15
REMARK    9  A    between atoms: C_16  and  C_18
REMARK   10  A    between atoms: C_21  and  N_22
REMARK   11  A    between atoms: C_26  and  O_27
REMARK   12  A    between atoms: O_27  and  C_28
REMARK   13  A    between atoms: C_28  and  C_29
REMARK   14  A    between atoms: C_29  and  C_30
REMARK   15  A    between atoms: C_29  and  C_31
REMARK                            x       y       z     vdW  Elec       q    Type
REMARK                         _______ _______ _______ _____ _____    ______ ____
ROOT
ATOM      1  N   UNL     1       2.980   7.217  18.419  0.00  0.00    +0.000 N 
ATOM      2  C   UNL     1       2.114   8.312  18.273  0.00  0.00    +0.000 C 
ATOM      3  O   UNL     1       1.883   8.861  17.203  0.00  0.00    +0.000 OA
ATOM      4  H   UNL     1       3.096   6.805  19.320  0.00  0.00    +0.000 HD
ENDROOT
BRANCH   1  10
ATOM      5  C   UNL     1       3.808   5.142  17.375  0.00  0.00    +0.000 A 
ATOM      6  C   UNL     1       4.692   4.509  16.481  0.00  0.00    +0.000 A 
ATOM      7  C   UNL     1       5.527   5.256  15.645  0.00  0.00    +0.000 A 
ATOM      8  C   UNL     1       5.463   6.648  15.679  0.00  0.00    +0.000 A 
ATOM      9  C   UNL     1       4.593   7.288  16.571  0.00  0.00    +0.000 A 
ATOM     10  C   UNL     1       3.769   6.560  17.438  0.00  0.00    +0.000 A 
BRANCH   7  11
ATOM     11  C   UNL     1       6.446   4.536  14.729  0.00  0.00    +0.000 C 
ATOM     12  O   UNL     1       6.144   3.488  14.178  0.00  0.00    +0.000 OA
BRANCH  11  13
ATOM     13  O   UNL     1       7.658   5.119  14.601  0.00  0.00    +0.000 OA
ATOM     14  H   UNL     1       8.074   5.401  15.434  0.00  0.00    +0.000 HD
ENDBRANCH  11  13
ENDBRANCH   7  11
BRANCH   5  15
ATOM     15  O   UNL     1       3.124   4.242  18.161  0.00  0.00    +0.000 OA
BRANCH  15  16
ATOM     16  C   UNL     1       1.739   4.013  17.902  0.00  0.00    +0.000 C 
BRANCH  16  18
ATOM     17  C   UNL     1       1.800   1.936  19.394  0.00  0.00    +0.000 C 
ATOM     18  C   UNL     1       1.062   3.231  19.044  0.00  0.00    +0.000 C 
ATOM     19  C   UNL     1       0.968   4.120  20.290  0.00  0.00    +0.000 C 
ENDBRANCH  16  18
ENDBRANCH  15  16
ENDBRANCH   5  15
ENDBRANCH   1  10
BRANCH   2  20
ATOM     20  C   UNL     1       1.403   8.793  19.541  0.00  0.00    +0.000 A 
ATOM     21  C   UNL     1       1.697   8.161  20.774  0.00  0.00    +0.000 A 
ATOM     22  C   UNL     1       1.105   8.541  21.978  0.00  0.00    +0.000 A 
ATOM     23  C   UNL     1       0.167   9.563  21.981  0.00  0.00    +0.000 A 
ATOM     24  C   UNL     1      -0.181  10.185  20.780  0.00  0.00    +0.000 A 
ATOM     25  C   UNL     1       0.449   9.856  19.558  0.00  0.00    +0.000 A 
BRANCH  23  26
ATOM     26  N   UNL     1      -0.424  10.018  23.240  0.00  0.00    +0.000 N 
ATOM     27  O   UNL     1      -1.442  10.718  23.174  0.00  0.00    +0.000 OA
ATOM     28  O   UNL     1       0.121   9.661  24.294  0.00  0.00    +0.000 OA
ENDBRANCH  23  26
BRANCH  25  29
ATOM     29  O   UNL     1       0.151  10.573  18.411  0.00  0.00    +0.000 OA
BRANCH  29  30
ATOM     30  C   UNL     1      -1.094  11.303  18.442  0.00  0.00    +0.000 C 
BRANCH  30  31
ATOM     31  C   UNL     1      -2.317  10.502  17.969  0.00  0.00    +0.000 C 
ATOM     32  C   UNL     1      -3.538  11.437  17.900  0.00  0.00    +0.000 C 
ATOM     33  C   UNL     1      -2.077   9.868  16.605  0.00  0.00    +0.000 C 
ENDBRANCH  30  31
ENDBRANCH  29  30
ENDBRANCH  25  29
ENDBRANCH   2  20
TORSDOF 11
ENDMDL
MODEL 4
REMARK VINA RESULT:      -8.0      2.201      8.573
REMARK  Name = 
REMARK  15 active torsions:
REMARK  status: ('A' for Active; 'I' for Inactive)
REMARK    1  A    between atoms: C_1  and  C_2
REMARK    2  A    between atoms: C_2  and  C_3
REMARK    3  A    between atoms: C_2  and  C_4
REMARK    4  A    between atoms: C_4  and  O_5
REMARK    5  A    between atoms: O_5  and  C_6
REMARK    6  A    between atoms: C_8  and  C_9
REMARK    7  A    between atoms: C_9  and  O_11
REMARK    8  A    between atoms: C_14  and  N_15
REMARK    9  A    between atoms: C_16  and  C_18
REMARK   10  A    between atoms: C_21  and  N_22
REMARK   11  A    between atoms: C_26  and  O_27
REMARK   12  A    between atoms: O_27  and  C_28
REMARK   13  A    between atoms: C_28  and  C_29
REMARK   14  A    between atoms: C_29  and  C_30
REMARK   15  A    between atoms: C_29  and  C_31
REMARK                            x       y       z     vdW  Elec       q    Type
REMARK                         _______ _______ _______ _____ _____    ______ ____
ROOT
ATOM      1  N   UNL     1       1.479   8.167  18.274  0.00  0.00    +0.000 N 
ATOM      2  C   UNL     1       1.369   9.544  18.025  0.00  0.00    +0.000 C 
ATOM      3  O   UNL     1       2.303  10.248  17.660  0.00  0.00    +0.000 OA
ATOM      4  H   UNL     1       0.667   7.654  18.541  0.00  0.00    +0.000 HD
ENDROOT
BRANCH   1  10
ATOM      5  C   UNL     1       2.805   6.275  19.139  0.00  0.00    +0.000 A 
ATOM      6  C   UNL     1       4.006   5.541  19.137  0.00  0.00    +0.000 A 
ATOM      7  C   UNL     1       5.023   5.828  18.222  0.00  0.00    +0.000 A 
ATOM      8  C   UNL     1       4.833   6.840  17.281  0.00  0.00    +0.000 A 
ATOM      9  C   UNL     1       3.646   7.583  17.281  0.00  0.00    +0.000 A 
ATOM     10  C   UNL     1       2.626   7.331  18.207  0.00  0.00    +0.000 A 
BRANCH   7  11
ATOM     11  C   UNL     1       6.272   5.028  18.271  0.00  0.00    +0.000 C 
ATOM     12  O   UNL     1       7.322   5.411  17.778  0.00  0.00    +0.000 OA
BRANCH  11  13
ATOM     13  O   UNL     1       6.127   3.825  18.867  0.00  0.00    +0.000 OA
ATOM     14  H   UNL     1       5.217   3.478  18.889  0.00  0.00    +0.000 HD
ENDBRANCH  11  13
ENDBRANCH   7  11
BRANCH   5  15
ATOM     15  O   UNL     1       1.958   5.893  20.156  0.00  0.00    +0.000 OA
BRANCH  15  16
ATOM     16  C   UNL     1       2.279   4.731  20.919  0.00  0.00    +0.000 C 
BRANCH  16  18
ATOM     17  C   UNL     1       1.066   3.117  19.348  0.00  0.00    +0.000 C 
ATOM     18  C   UNL     1       1.201   3.639  20.781  0.00  0.00    +0.000 C 
ATOM     19  C   UNL     1       1.525   2.473  21.723  0.00  0.00    +0.000 C 
ENDBRANCH  16  18
ENDBRANCH  15  16
ENDBRANCH   5  15
ENDBRANCH   1  10
BRANCH   2  20
ATOM     20  C   UNL     1      -0.024  10.157  18.189  0.00  0.00    +0.000 A 
ATOM     21  C   UNL     1      -1.062   9.743  17.319  0.00  0.00    +0.000 A 
ATOM     22  C   UNL     1      -2.363  10.241  17.404  0.00  0.00    +0.000 A 
ATOM     23  C   UNL     1      -2.661  11.202  18.359  0.00  0.00    +0.000 A 
ATOM     24  C   UNL     1      -1.656  11.667  19.210  0.00  0.00    +0.000 A 
ATOM     25  C   UNL     1      -0.347  11.134  19.180  0.00  0.00    +0.000 A 
BRANCH  23  26
ATOM     26  N   UNL     1      -4.030  11.695  18.505  0.00  0.00    +0.000 N 
ATOM     27  O   UNL     1      -4.859  11.342  17.656  0.00  0.00    +0.000 OA
ATOM     28  O   UNL     1      -4.282  12.421  19.477  0.00  0.00    +0.000 OA
ENDBRANCH  23  26
BRANCH  25  29
ATOM     29  O   UNL     1       0.590  11.547  20.114  0.00  0.00    +0.000 OA
BRANCH  29  30
ATOM     30  C   UNL     1       0.776  10.660  21.238  0.00  0.00    +0.000 C 
BRANCH  30  31
ATOM     31  C   UNL     1      -0.464  10.487  22.128  0.00  0.00    +0.000 C 
ATOM     32  C   UNL     1      -0.145   9.484  23.251  0.00  0.00    +0.000 C 
ATOM     33  C   UNL     1      -0.909  11.812  22.734  0.00  0.00    +0.000 C 
ENDBRANCH  30  31
ENDBRANCH  29  30
ENDBRANCH  25  29
ENDBRANCH   2  20
TORSDOF 11
ENDMDL
MODEL 5
REMARK VINA RESULT:      -7.9      1.761      8.951
REMARK  Name = 
REMARK  15 active torsions:
REMARK  status: ('A' for Active; 'I' for Inactive)
REMARK    1  A    between atoms: C_1  and  C_2
REMARK    2  A    between atoms: C_2  and  C_3
REMARK    3  A    between atoms: C_2  and  C_4
REMARK    4  A    between atoms: C_4  and  O_5
REMARK    5  A    between atoms: O_5  and  C_6
REMARK    6  A    between atoms: C_8  and  C_9
REMARK    7  A    between atoms: C_9  and  O_11
REMARK    8  A    between atoms: C_14  and  N_15
REMARK    9  A    between atoms: C_16  and  C_18
REMARK   10  A    between atoms: C_21  and  N_22
REMARK   11  A    between atoms: C_26  and  O_27
REMARK   12  A    between atoms: O_27  and  C_28
REMARK   13  A    between atoms: C_28  and  C_29
REMARK   14  A    between atoms: C_29  and  C_30
REMARK   15  A    between atoms: C_29  and  C_31
REMARK                            x       y       z     vdW  Elec       q    Type
REMARK                         _______ _______ _______ _____ _____    ______ ____
ROOT
ATOM      1  N   UNL     1       2.072   7.963  19.137  0.00  0.00    +0.000 N 
ATOM      2  C   UNL     1       1.613   9.156  18.555  0.00  0.00    +0.000 C 
ATOM      3  O   UNL     1       1.945   9.544  17.442  0.00  0.00    +0.000 OA
ATOM      4  H   UNL     1       1.735   7.699  20.037  0.00  0.00    +0.000 HD
ENDROOT
BRANCH   1  10
ATOM      5  C   UNL     1       3.199   5.775  19.291  0.00  0.00    +0.000 A 
ATOM      6  C   UNL     1       4.208   4.901  18.843  0.00  0.00    +0.000 A 
ATOM      7  C   UNL     1       5.008   5.230  17.744  0.00  0.00    +0.000 A 
ATOM      8  C   UNL     1       4.784   6.428  17.066  0.00  0.00    +0.000 A 
ATOM      9  C   UNL     1       3.788   7.308  17.510  0.00  0.00    +0.000 A 
ATOM     10  C   UNL     1       2.996   7.013  18.626  0.00  0.00    +0.000 A 
BRANCH   7  11
ATOM     11  C   UNL     1       6.063   4.276  17.321  0.00  0.00    +0.000 C 
ATOM     12  O   UNL     1       7.232   4.390  17.658  0.00  0.00    +0.000 OA
BRANCH  11  13
ATOM     13  O   UNL     1       5.621   3.303  16.495  0.00  0.00    +0.000 OA
ATOM     14  H   UNL     1       5.242   2.523  16.936  0.00  0.00    +0.000 HD
ENDBRANCH  11  13
ENDBRANCH   7  11
BRANCH   5  15
ATOM     15  O   UNL     1       2.570   5.311  20.424  0.00  0.00    +0.000 OA
BRANCH  15  16
ATOM     16  C   UNL     1       1.244   4.795  20.315  0.00  0.00    +0.000 C 
BRANCH  16  18
ATOM     17  C   UNL     1       1.359   2.447  19.306  0.00  0.00    +0.000 C 
ATOM     18  C   UNL     1       1.194   3.278  20.582  0.00  0.00    +0.000 C 
ATOM     19  C   UNL     1       2.287   2.898  21.587  0.00  0.00    +0.000 C 
ENDBRANCH  16  18
ENDBRANCH  15  16
ENDBRANCH   5  15
ENDBRANCH   1  10
BRANCH   2  20
ATOM     20  C   UNL     1       0.609   9.971  19.373  0.00  0.00    +0.000 A 
ATOM     21  C   UNL     1       0.926  10.307  20.712  0.00  0.00    +0.000 A 
ATOM     22  C   UNL     1       0.075  11.055  21.526  0.00  0.00    +0.000 A 
ATOM     23  C   UNL     1      -1.150  11.473  21.025  0.00  0.00    +0.000 A 
ATOM     24  C   UNL     1      -1.519  11.127  19.723  0.00  0.00    +0.000 A 
ATOM     25  C   UNL     1      -0.647  10.421  18.862  0.00  0.00    +0.000 A 
BRANCH  23  26
ATOM     26  N   UNL     1      -2.032  12.308  21.840  0.00  0.00    +0.000 N 
ATOM     27  O   UNL     1      -1.703  12.510  23.016  0.00  0.00    +0.000 OA
ATOM     28  O   UNL     1      -3.045  12.775  21.300  0.00  0.00    +0.000 OA
ENDBRANCH  23  26
BRANCH  25  29
ATOM     29  O   UNL     1      -1.010  10.194  17.545  0.00  0.00    +0.000 OA
BRANCH  29  30
ATOM     30  C   UNL     1      -2.423  10.009  17.315  0.00  0.00    +0.000 C 
BRANCH  30  31
ATOM     31  C   UNL     1      -3.024  10.933  16.245  0.00  0.00    +0.000 C 
ATOM     32  C   UNL     1      -3.003  10.213  14.885  0.00  0.00    +0.000 C 
ATOM     33  C   UNL     1      -4.452  11.337  16.591  0.00  0.00    +0.000 C 
ENDBRANCH  30  31
ENDBRANCH  29  30
ENDBRANCH  25  29
ENDBRANCH   2  20
TORSDOF 11
ENDMDL
MODEL 6
REMARK VINA RESULT:      -7.9      1.699      8.836
REMARK  Name = 
REMARK  15 active torsions:
REMARK  status: ('A' for Active; 'I' for Inactive)
REMARK    1  A    between atoms: C_1  and  C_2
REMARK    2  A    between atoms: C_2  and  C_3
REMARK    3  A    between atoms: C_2  and  C_4
REMARK    4  A    between atoms: C_4  and  O_5
REMARK    5  A    between atoms: O_5  and  C_6
REMARK    6  A    between atoms: C_8  and  C_9
REMARK    7  A    between atoms: C_9  and  O_11
REMARK    8  A    between atoms: C_14  and  N_15
REMARK    9  A    between atoms: C_16  and  C_18
REMARK   10  A    between atoms: C_21  and  N_22
REMARK   11  A    between atoms: C_26  and  O_27
REMARK   12  A    between atoms: O_27  and  C_28
REMARK   13  A    between atoms: C_28  and  C_29
REMARK   14  A    between atoms: C_29  and  C_30
REMARK   15  A    between atoms: C_29  and  C_31
REMARK                            x       y       z     vdW  Elec       q    Type
REMARK                         _______ _______ _______ _____ _____    ______ ____
ROOT
ATOM      1  N   UNL     1       3.174   7.203  18.457  0.00  0.00    +0.000 N 
ATOM      2  C   UNL     1       2.255   8.246  18.268  0.00  0.00    +0.000 C 
ATOM      3  O   UNL     1       1.992   8.734  17.175  0.00  0.00    +0.000 OA
ATOM      4  H   UNL     1       3.315   6.838  19.374  0.00  0.00    +0.000 HD
ENDROOT
BRANCH   1  10
ATOM      5  C   UNL     1       4.509   5.246  17.769  0.00  0.00    +0.000 A 
ATOM      6  C   UNL     1       5.417   4.660  16.867  0.00  0.00    +0.000 A 
ATOM      7  C   UNL     1       5.808   5.329  15.703  0.00  0.00    +0.000 A 
ATOM      8  C   UNL     1       5.270   6.584  15.420  0.00  0.00    +0.000 A 
ATOM      9  C   UNL     1       4.373   7.180  16.316  0.00  0.00    +0.000 A 
ATOM     10  C   UNL     1       3.990   6.540  17.501  0.00  0.00    +0.000 A 
BRANCH   7  11
ATOM     11  C   UNL     1       6.776   4.668  14.793  0.00  0.00    +0.000 C 
ATOM     12  O   UNL     1       7.824   5.192  14.449  0.00  0.00    +0.000 OA
BRANCH  11  13
ATOM     13  O   UNL     1       6.368   3.461  14.346  0.00  0.00    +0.000 OA
ATOM     14  H   UNL     1       5.732   2.998  14.919  0.00  0.00    +0.000 HD
ENDBRANCH  11  13
ENDBRANCH   7  11
BRANCH   5  15
ATOM     15  O   UNL     1       4.303   4.468  18.886  0.00  0.00    +0.000 OA
BRANCH  15  16
ATOM     16  C   UNL     1       3.564   3.254  18.754  0.00  0.00    +0.000 C 
BRANCH  16  18
ATOM     17  C   UNL     1       1.900   4.395  20.327  0.00  0.00    +0.000 C 
ATOM     18  C   UNL     1       2.085   3.437  19.146  0.00  0.00    +0.000 C 
ATOM     19  C   UNL     1       1.293   3.950  17.939  0.00  0.00    +0.000 C 
ENDBRANCH  16  18
ENDBRANCH  15  16
ENDBRANCH   5  15
ENDBRANCH   1  10
BRANCH   2  20
ATOM     20  C   UNL     1       1.527   8.749  19.517  0.00  0.00    +0.000 A 
ATOM     21  C   UNL     1       1.688   8.044  20.735  0.00  0.00    +0.000 A 
ATOM     22  C   UNL     1       1.071   8.437  21.923  0.00  0.00    +0.000 A 
ATOM     23  C   UNL     1       0.242   9.550  21.922  0.00  0.00    +0.000 A 
ATOM     24  C   UNL     1       0.025  10.249  20.733  0.00  0.00    +0.000 A 
ATOM     25  C   UNL     1       0.686   9.903  19.532  0.00  0.00    +0.000 A 
BRANCH  23  26
ATOM     26  N   UNL     1      -0.368  10.015  23.167  0.00  0.00    +0.000 N 
ATOM     27  O   UNL     1      -1.393  10.703  23.081  0.00  0.00    +0.000 OA
ATOM     28  O   UNL     1       0.169   9.678  24.233  0.00  0.00    +0.000 OA
ENDBRANCH  23  26
BRANCH  25  29
ATOM     29  O   UNL     1       0.525  10.690  18.403  0.00  0.00    +0.000 OA
BRANCH  29  30
ATOM     30  C   UNL     1      -0.482  11.720  18.504  0.00  0.00    +0.000 C 
BRANCH  30  31
ATOM     31  C   UNL     1      -1.779  11.426  17.736  0.00  0.00    +0.000 C 
ATOM     32  C   UNL     1      -1.736   9.982  17.204  0.00  0.00    +0.000 C 
ATOM     33  C   UNL     1      -3.007  11.612  18.618  0.00  0.00    +0.000 C 
ENDBRANCH  30  31
ENDBRANCH  29  30
ENDBRANCH  25  29
ENDBRANCH   2  20
TORSDOF 11
ENDMDL
MODEL 7
REMARK VINA RESULT:      -7.9      0.910      1.193
REMARK  Name = 
REMARK  15 active torsions:
REMARK  status: ('A' for Active; 'I' for Inactive)
REMARK    1  A    between atoms: C_1  and  C_2
REMARK    2  A    between atoms: C_2  and  C_3
REMARK    3  A    between atoms: C_2  and  C_4
REMARK    4  A    between atoms: C_4  and  O_5
REMARK    5  A    between atoms: O_5  and  C_6
REMARK    6  A    between atoms: C_8  and  C_9
REMARK    7  A    between atoms: C_9  and  O_11
REMARK    8  A    between atoms: C_14  and  N_15
REMARK    9  A    between atoms: C_16  and  C_18
REMARK   10  A    between atoms: C_21  and  N_22
REMARK   11  A    between atoms: C_26  and  O_27
REMARK   12  A    between atoms: O_27  and  C_28
REMARK   13  A    between atoms: C_28  and  C_29
REMARK   14  A    between atoms: C_29  and  C_30
REMARK   15  A    between atoms: C_29  and  C_31
REMARK                            x       y       z     vdW  Elec       q    Type
REMARK                         _______ _______ _______ _____ _____    ______ ____
ROOT
ATOM      1  N   UNL     1       2.026   8.363  19.421  0.00  0.00    +0.000 N 
ATOM      2  C   UNL     1       2.357   7.004  19.550  0.00  0.00    +0.000 C 
ATOM      3  O   UNL     1       1.798   6.237  20.324  0.00  0.00    +0.000 OA
ATOM      4  H   UNL     1       2.507   8.918  18.747  0.00  0.00    +0.000 HD
ENDROOT
BRANCH   1  10
ATOM      5  C   UNL     1       0.107   9.911  19.442  0.00  0.00    +0.000 A 
ATOM      6  C   UNL     1      -0.755  10.757  20.165  0.00  0.00    +0.000 A 
ATOM      7  C   UNL     1      -0.691  10.826  21.560  0.00  0.00    +0.000 A 
ATOM      8  C   UNL     1       0.222  10.025  22.245  0.00  0.00    +0.000 A 
ATOM      9  C   UNL     1       1.090   9.187  21.534  0.00  0.00    +0.000 A 
ATOM     10  C   UNL     1       1.064   9.124  20.135  0.00  0.00    +0.000 A 
BRANCH   7  11
ATOM     11  C   UNL     1      -1.617  11.742  22.270  0.00  0.00    +0.000 C 
ATOM     12  O   UNL     1      -1.949  12.828  21.819  0.00  0.00    +0.000 OA
BRANCH  11  13
ATOM     13  O   UNL     1      -2.019  11.286  23.477  0.00  0.00    +0.000 OA
ATOM     14  H   UNL     1      -1.420  10.646  23.900  0.00  0.00    +0.000 HD
ENDBRANCH  11  13
ENDBRANCH   7  11
BRANCH   5  15
ATOM     15  O   UNL     1      -0.058  10.035  18.080  0.00  0.00    +0.000 OA
BRANCH  15  16
ATOM     16  C   UNL     1      -1.166  10.786  17.585  0.00  0.00    +0.000 C 
BRANCH  16  18
ATOM     17  C   UNL     1      -3.414   9.574  17.740  0.00  0.00    +0.000 C 
ATOM     18  C   UNL     1      -2.194   9.888  16.869  0.00  0.00    +0.000 C 
ATOM     19  C   UNL     1      -2.650  10.563  15.571  0.00  0.00    +0.000 C 
ENDBRANCH  16  18
ENDBRANCH  15  16
ENDBRANCH   5  15
ENDBRANCH   1  10
BRANCH   2  20
ATOM     20  C   UNL     1       3.454   6.478  18.622  0.00  0.00    +0.000 A 
ATOM     21  C   UNL     1       3.801   7.231  17.473  0.00  0.00    +0.000 A 
ATOM     22  C   UNL     1       4.795   6.832  16.580  0.00  0.00    +0.000 A 
ATOM     23  C   UNL     1       5.466   5.638  16.799  0.00  0.00    +0.000 A 
ATOM     24  C   UNL     1       5.127   4.846  17.899  0.00  0.00    +0.000 A 
ATOM     25  C   UNL     1       4.164   5.259  18.848  0.00  0.00    +0.000 A 
BRANCH  23  26
ATOM     26  N   UNL     1       6.553   5.229  15.909  0.00  0.00    +0.000 N 
ATOM     27  O   UNL     1       7.517   4.640  16.416  0.00  0.00    +0.000 OA
ATOM     28  O   UNL     1       6.435   5.482  14.702  0.00  0.00    +0.000 OA
ENDBRANCH  23  26
BRANCH  25  29
ATOM     29  O   UNL     1       3.937   4.494  19.980  0.00  0.00    +0.000 OA
BRANCH  29  30
ATOM     30  C   UNL     1       3.411   3.171  19.739  0.00  0.00    +0.000 C 
BRANCH  30  31
ATOM     31  C   UNL     1       2.166   3.131  18.840  0.00  0.00    +0.000 C 
ATOM     32  C   UNL     1       2.381   2.094  17.723  0.00  0.00    +0.000 C 
ATOM     33  C   UNL     1       0.914   2.779  19.634  0.00  0.00    +0.000 C 
ENDBRANCH  30  31
ENDBRANCH  29  30
ENDBRANCH  25  29
ENDBRANCH   2  20
TORSDOF 11
ENDMDL
MODEL 8
REMARK VINA RESULT:      -7.8      2.059      9.106
REMARK  Name = 
REMARK  15 active torsions:
REMARK  status: ('A' for Active; 'I' for Inactive)
REMARK    1  A    between atoms: C_1  and  C_2
REMARK    2  A    between atoms: C_2  and  C_3
REMARK    3  A    between atoms: C_2  and  C_4
REMARK    4  A    between atoms: C_4  and  O_5
REMARK    5  A    between atoms: O_5  and  C_6
REMARK    6  A    between atoms: C_8  and  C_9
REMARK    7  A    between atoms: C_9  and  O_11
REMARK    8  A    between atoms: C_14  and  N_15
REMARK    9  A    between atoms: C_16  and  C_18
REMARK   10  A    between atoms: C_21  and  N_22
REMARK   11  A    between atoms: C_26  and  O_27
REMARK   12  A    between atoms: O_27  and  C_28
REMARK   13  A    between atoms: C_28  and  C_29
REMARK   14  A    between atoms: C_29  and  C_30
REMARK   15  A    between atoms: C_29  and  C_31
REMARK                            x       y       z     vdW  Elec       q    Type
REMARK                         _______ _______ _______ _____ _____    ______ ____
ROOT
ATOM      1  N   UNL     1       2.994   7.166  18.490  0.00  0.00    +0.000 N 
ATOM      2  C   UNL     1       2.188   8.301  18.312  0.00  0.00    +0.000 C 
ATOM      3  O   UNL     1       2.021   8.856  17.233  0.00  0.00    +0.000 OA
ATOM      4  H   UNL     1       3.059   6.752  19.395  0.00  0.00    +0.000 HD
ENDROOT
BRANCH   1  10
ATOM      5  C   UNL     1       3.790   5.046  17.513  0.00  0.00    +0.000 A 
ATOM      6  C   UNL     1       4.673   4.370  16.648  0.00  0.00    +0.000 A 
ATOM      7  C   UNL     1       5.535   5.077  15.804  0.00  0.00    +0.000 A 
ATOM      8  C   UNL     1       5.500   6.471  15.801  0.00  0.00    +0.000 A 
ATOM      9  C   UNL     1       4.632   7.152  16.663  0.00  0.00    +0.000 A 
ATOM     10  C   UNL     1       3.782   6.465  17.538  0.00  0.00    +0.000 A 
BRANCH   7  11
ATOM     11  C   UNL     1       6.450   4.314  14.921  0.00  0.00    +0.000 C 
ATOM     12  O   UNL     1       6.050   3.553  14.053  0.00  0.00    +0.000 OA
BRANCH  11  13
ATOM     13  O   UNL     1       7.759   4.502  15.197  0.00  0.00    +0.000 OA
ATOM     14  H   UNL     1       8.175   3.807  15.737  0.00  0.00    +0.000 HD
ENDBRANCH  11  13
ENDBRANCH   7  11
BRANCH   5  15
ATOM     15  O   UNL     1       3.077   4.182  18.313  0.00  0.00    +0.000 OA
BRANCH  15  16
ATOM     16  C   UNL     1       3.570   3.885  19.619  0.00  0.00    +0.000 C 
BRANCH  16  18
ATOM     17  C   UNL     1       1.098   4.339  20.099  0.00  0.00    +0.000 C 
ATOM     18  C   UNL     1       2.477   4.039  20.694  0.00  0.00    +0.000 C 
ATOM     19  C   UNL     1       2.405   2.763  21.540  0.00  0.00    +0.000 C 
ENDBRANCH  16  18
ENDBRANCH  15  16
ENDBRANCH   5  15
ENDBRANCH   1  10
BRANCH   2  20
ATOM     20  C   UNL     1       1.460   8.822  19.554  0.00  0.00    +0.000 A 
ATOM     21  C   UNL     1       1.433   8.019  20.720  0.00  0.00    +0.000 A 
ATOM     22  C   UNL     1       0.803   8.419  21.899  0.00  0.00    +0.000 A 
ATOM     23  C   UNL     1       0.148   9.642  21.937  0.00  0.00    +0.000 A 
ATOM     24  C   UNL     1       0.117  10.446  20.796  0.00  0.00    +0.000 A 
ATOM     25  C   UNL     1       0.799  10.087  19.611  0.00  0.00    +0.000 A 
BRANCH  23  26
ATOM     26  N   UNL     1      -0.469  10.108  23.179  0.00  0.00    +0.000 N 
ATOM     27  O   UNL     1       0.038   9.735  24.245  0.00  0.00    +0.000 OA
ATOM     28  O   UNL     1      -1.450  10.860  23.089  0.00  0.00    +0.000 OA
ENDBRANCH  23  26
BRANCH  25  29
ATOM     29  O   UNL     1       0.831  10.964  18.539  0.00  0.00    +0.000 OA
BRANCH  29  30
ATOM     30  C   UNL     1       1.766  12.058  18.662  0.00  0.00    +0.000 C 
BRANCH  30  31
ATOM     31  C   UNL     1       1.131  13.403  19.046  0.00  0.00    +0.000 C 
ATOM     32  C   UNL     1       2.054  14.547  18.592  0.00  0.00    +0.000 C 
ATOM     33  C   UNL     1      -0.246  13.572  18.415  0.00  0.00    +0.000 C 
ENDBRANCH  30  31
ENDBRANCH  29  30
ENDBRANCH  25  29
ENDBRANCH   2  20
TORSDOF 11
ENDMDL
MODEL 9
REMARK VINA RESULT:      -7.8      1.634      8.915
REMARK  Name = 
REMARK  15 active torsions:
REMARK  status: ('A' for Active; 'I' for Inactive)
REMARK    1  A    between atoms: C_1  and  C_2
REMARK    2  A    between atoms: C_2  and  C_3
REMARK    3  A    between atoms: C_2  and  C_4
REMARK    4  A    between atoms: C_4  and  O_5
REMARK    5  A    between atoms: O_5  and  C_6
REMARK    6  A    between atoms: C_8  and  C_9
REMARK    7  A    between atoms: C_9  and  O_11
REMARK    8  A    between atoms: C_14  and  N_15
REMARK    9  A    between atoms: C_16  and  C_18
REMARK   10  A    between atoms: C_21  and  N_22
REMARK   11  A    between atoms: C_26  and  O_27
REMARK   12  A    between atoms: O_27  and  C_28
REMARK   13  A    between atoms: C_28  and  C_29
REMARK   14  A    between atoms: C_29  and  C_30
REMARK   15  A    between atoms: C_29  and  C_31
REMARK                            x       y       z     vdW  Elec       q    Type
REMARK                         _______ _______ _______ _____ _____    ______ ____
ROOT
ATOM      1  N   UNL     1       2.793   7.458  18.651  0.00  0.00    +0.000 N 
ATOM      2  C   UNL     1       2.045   8.587  18.282  0.00  0.00    +0.000 C 
ATOM      3  O   UNL     1       2.043   9.064  17.153  0.00  0.00    +0.000 OA
ATOM      4  H   UNL     1       2.721   7.111  19.583  0.00  0.00    +0.000 HD
ENDROOT
BRANCH   1  10
ATOM      5  C   UNL     1       3.428   5.307  17.626  0.00  0.00    +0.000 A 
ATOM      6  C   UNL     1       4.389   4.523  16.960  0.00  0.00    +0.000 A 
ATOM      7  C   UNL     1       5.597   5.079  16.527  0.00  0.00    +0.000 A 
ATOM      8  C   UNL     1       5.839   6.437  16.734  0.00  0.00    +0.000 A 
ATOM      9  C   UNL     1       4.892   7.223  17.403  0.00  0.00    +0.000 A 
ATOM     10  C   UNL     1       3.690   6.680  17.871  0.00  0.00    +0.000 A 
BRANCH   7  11
ATOM     11  C   UNL     1       6.578   4.204  15.840  0.00  0.00    +0.000 C 
ATOM     12  O   UNL     1       7.780   4.268  16.047  0.00  0.00    +0.000 OA
BRANCH  11  13
ATOM     13  O   UNL     1       6.025   3.368  14.934  0.00  0.00    +0.000 OA
ATOM     14  H   UNL     1       5.678   3.795  14.131  0.00  0.00    +0.000 HD
ENDBRANCH  11  13
ENDBRANCH   7  11
BRANCH   5  15
ATOM     15  O   UNL     1       2.341   4.567  18.036  0.00  0.00    +0.000 OA
BRANCH  15  16
ATOM     16  C   UNL     1       2.452   3.145  18.080  0.00  0.00    +0.000 C 
BRANCH  16  18
ATOM     17  C   UNL     1       3.278   2.658  20.451  0.00  0.00    +0.000 C 
ATOM     18  C   UNL     1       2.103   2.584  19.472  0.00  0.00    +0.000 C 
ATOM     19  C   UNL     1       0.906   3.349  20.049  0.00  0.00    +0.000 C 
ENDBRANCH  16  18
ENDBRANCH  15  16
ENDBRANCH   5  15
ENDBRANCH   1  10
BRANCH   2  20
ATOM     20  C   UNL     1       1.163   9.206  19.368  0.00  0.00    +0.000 A 
ATOM     21  C   UNL     1       1.502   8.999  20.728  0.00  0.00    +0.000 A 
ATOM     22  C   UNL     1       0.761   9.535  21.781  0.00  0.00    +0.000 A 
ATOM     23  C   UNL     1      -0.374  10.283  21.502  0.00  0.00    +0.000 A 
ATOM     24  C   UNL     1      -0.766  10.476  20.176  0.00  0.00    +0.000 A 
ATOM     25  C   UNL     1       0.003   9.993  19.092  0.00  0.00    +0.000 A 
BRANCH  23  26
ATOM     26  N   UNL     1      -1.133  10.903  22.588  0.00  0.00    +0.000 N 
ATOM     27  O   UNL     1      -1.940  11.792  22.288  0.00  0.00    +0.000 OA
ATOM     28  O   UNL     1      -0.935  10.490  23.740  0.00  0.00    +0.000 OA
ENDBRANCH  23  26
BRANCH  25  29
ATOM     29  O   UNL     1      -0.364  10.301  17.792  0.00  0.00    +0.000 OA
BRANCH  29  30
ATOM     30  C   UNL     1      -1.643  10.955  17.648  0.00  0.00    +0.000 C 
BRANCH  30  31
ATOM     31  C   UNL     1      -2.752  10.070  17.060  0.00  0.00    +0.000 C 
ATOM     32  C   UNL     1      -4.100  10.458  17.694  0.00  0.00    +0.000 C 
ATOM     33  C   UNL     1      -2.837  10.212  15.545  0.00  0.00    +0.000 C 
ENDBRANCH  30  31
ENDBRANCH  29  30
ENDBRANCH  25  29
ENDBRANCH   2  20
TORSDOF 11
ENDMDL
