MODEL 1
REMARK VINA RESULT:      -7.1      0.000      0.000
REMARK  Name = 
REMARK  13 active torsions:
REMARK  status: ('A' for Active; 'I' for Inactive)
REMARK    1  A    between atoms: C_1  and  C_2
REMARK    2  A    between atoms: C_2  and  C_3
REMARK    3  A    between atoms: C_3  and  C_4
REMARK    4  A    between atoms: C_4  and  C_5
REMARK    5  A    between atoms: C_5  and  C_6
REMARK    6  A    between atoms: C_6  and  C_7
REMARK    7  A    between atoms: C_7  and  C_8
REMARK    8  A    between atoms: C_9  and  C_10
REMARK    9  A    between atoms: N_12  and  C_13
REMARK   10  A    between atoms: C_17  and  S_18
REMARK   11  A    between atoms: S_18  and  C_21
REMARK   12  A    between atoms: C_21  and  C_22
REMARK   13  A    between atoms: C_22  and  O_23
REMARK                            x       y       z     vdW  Elec       q    Type
REMARK                         _______ _______ _______ _____ _____    ______ ____
ROOT
ATOM      1  C   UNL     1       7.706   7.783  17.841  0.00  0.00    +0.000 C 
ATOM      2  O   UNL     1       8.192   6.957  18.589  0.00  0.00    +0.000 OA
ATOM      3  N   UNL     1       6.733   7.548  16.879  0.00  0.00    +0.000 N 
ATOM      4  H   UNL     1       6.503   8.274  16.217  0.00  0.00    +0.000 HD
ENDROOT
BRANCH   3   5
ATOM      5  C   UNL     1       6.176   6.262  16.671  0.00  0.00    +0.000 A 
ATOM      6  C   UNL     1       6.802   5.321  15.847  0.00  0.00    +0.000 A 
ATOM      7  C   UNL     1       6.244   4.060  15.644  0.00  0.00    +0.000 A 
ATOM      8  C   UNL     1       5.047   3.718  16.265  0.00  0.00    +0.000 A 
ATOM      9  C   UNL     1       4.411   4.649  17.083  0.00  0.00    +0.000 A 
ATOM     10  C   UNL     1       4.975   5.917  17.299  0.00  0.00    +0.000 A 
BRANCH   9  11
ATOM     11  S   UNL     1       2.829   4.233  17.788  0.00  0.00    +0.000 S 
ATOM     12  O   UNL     1       2.103   5.478  17.934  0.00  0.00    +0.000 OA
ATOM     13  O   UNL     1       2.299   3.140  16.996  0.00  0.00    +0.000 OA
BRANCH  11  14
ATOM     14  C   UNL     1       3.163   3.608  19.418  0.00  0.00    +0.000 C 
BRANCH  14  15
ATOM     15  C   UNL     1       3.727   2.202  19.350  0.00  0.00    +0.000 C 
BRANCH  15  16
ATOM     16  O   UNL     1       5.091   2.211  19.771  0.00  0.00    +0.000 OA
ATOM     17  H   UNL     1       5.389   3.137  19.816  0.00  0.00    +0.000 HD
ENDBRANCH  15  16
ENDBRANCH  14  15
ENDBRANCH  11  14
ENDBRANCH   9  11
ENDBRANCH   3   5
BRANCH   1  19
ATOM     18  C   UNL     1       9.003   9.546  18.898  0.00  0.00    +0.000 C 
ATOM     19  C   UNL     1       8.192   9.190  17.886  0.00  0.00    +0.000 C 
BRANCH  18  20
ATOM     20  C   UNL     1       9.552  10.926  19.103  0.00  0.00    +0.000 C 
BRANCH  20  21
ATOM     21  C   UNL     1      10.241  11.456  17.844  0.00  0.00    +0.000 C 
BRANCH  21  22
ATOM     22  C   UNL     1      11.722  11.738  18.105  0.00  0.00    +0.000 C 
BRANCH  22  23
ATOM     23  C   UNL     1      12.074  13.191  17.790  0.00  0.00    +0.000 C 
BRANCH  23  24
ATOM     24  C   UNL     1      11.126  14.149  18.508  0.00  0.00    +0.000 C 
BRANCH  24  26
ATOM     25  C   UNL     1      10.716  15.481  20.597  0.00  0.00    +0.000 C 
ATOM     26  C   UNL     1      11.644  14.499  19.902  0.00  0.00    +0.000 C 
ENDBRANCH  24  26
ENDBRANCH  23  24
ENDBRANCH  22  23
ENDBRANCH  21  22
ENDBRANCH  20  21
ENDBRANCH  18  20
ENDBRANCH   1  19
TORSDOF 12
ENDMDL
MODEL 2
REMARK VINA RESULT:      -7.1      1.610      2.378
REMARK  Name = 
REMARK  13 active torsions:
REMARK  status: ('A' for Active; 'I' for Inactive)
REMARK    1  A    between atoms: C_1  and  C_2
REMARK    2  A    between atoms: C_2  and  C_3
REMARK    3  A    between atoms: C_3  and  C_4
REMARK    4  A    between atoms: C_4  and  C_5
REMARK    5  A    between atoms: C_5  and  C_6
REMARK    6  A    between atoms: C_6  and  C_7
REMARK    7  A    between atoms: C_7  and  C_8
REMARK    8  A    between atoms: C_9  and  C_10
REMARK    9  A    between atoms: N_12  and  C_13
REMARK   10  A    between atoms: C_17  and  S_18
REMARK   11  A    between atoms: S_18  and  C_21
REMARK   12  A    between atoms: C_21  and  C_22
REMARK   13  A    between atoms: C_22  and  O_23
REMARK                            x       y       z     vdW  Elec       q    Type
REMARK                         _______ _______ _______ _____ _____    ______ ____
ROOT
ATOM      1  C   UNL     1       7.654   7.780  17.748  0.00  0.00    +0.000 C 
ATOM      2  O   UNL     1       8.227   7.005  18.488  0.00  0.00    +0.000 OA
ATOM      3  N   UNL     1       6.619   7.471  16.876  0.00  0.00    +0.000 N 
ATOM      4  H   UNL     1       6.311   8.159  16.206  0.00  0.00    +0.000 HD
ENDROOT
BRANCH   3   5
ATOM      5  C   UNL     1       6.096   6.159  16.766  0.00  0.00    +0.000 A 
ATOM      6  C   UNL     1       6.227   5.418  15.587  0.00  0.00    +0.000 A 
ATOM      7  C   UNL     1       5.705   4.130  15.487  0.00  0.00    +0.000 A 
ATOM      8  C   UNL     1       5.040   3.560  16.567  0.00  0.00    +0.000 A 
ATOM      9  C   UNL     1       4.898   4.290  17.745  0.00  0.00    +0.000 A 
ATOM     10  C   UNL     1       5.432   5.584  17.854  0.00  0.00    +0.000 A 
BRANCH   9  11
ATOM     11  S   UNL     1       3.956   3.586  19.083  0.00  0.00    +0.000 S 
ATOM     12  O   UNL     1       4.888   2.824  19.887  0.00  0.00    +0.000 OA
ATOM     13  O   UNL     1       3.177   4.668  19.654  0.00  0.00    +0.000 OA
BRANCH  11  14
ATOM     14  C   UNL     1       2.822   2.437  18.338  0.00  0.00    +0.000 C 
BRANCH  14  15
ATOM     15  C   UNL     1       1.402   2.966  18.399  0.00  0.00    +0.000 C 
BRANCH  15  16
ATOM     16  O   UNL     1       1.245   4.027  17.457  0.00  0.00    +0.000 OA
ATOM     17  H   UNL     1       1.203   4.867  17.949  0.00  0.00    +0.000 HD
ENDBRANCH  15  16
ENDBRANCH  14  15
ENDBRANCH  11  14
ENDBRANCH   9  11
ENDBRANCH   3   5
BRANCH   1  19
ATOM     18  C   UNL     1       8.783   9.690  18.743  0.00  0.00    +0.000 C 
ATOM     19  C   UNL     1       8.090   9.204  17.697  0.00  0.00    +0.000 C 
BRANCH  18  20
ATOM     20  C   UNL     1       9.265  11.105  18.858  0.00  0.00    +0.000 C 
BRANCH  20  21
ATOM     21  C   UNL     1      10.785  11.177  19.010  0.00  0.00    +0.000 C 
BRANCH  21  22
ATOM     22  C   UNL     1      11.177  11.991  20.244  0.00  0.00    +0.000 C 
BRANCH  22  23
ATOM     23  C   UNL     1      10.418  13.317  20.298  0.00  0.00    +0.000 C 
BRANCH  23  24
ATOM     24  C   UNL     1       9.808  13.538  21.681  0.00  0.00    +0.000 C 
BRANCH  24  26
ATOM     25  C   UNL     1       8.284  11.755  22.576  0.00  0.00    +0.000 C 
ATOM     26  C   UNL     1       8.372  13.022  21.741  0.00  0.00    +0.000 C 
ENDBRANCH  24  26
ENDBRANCH  23  24
ENDBRANCH  22  23
ENDBRANCH  21  22
ENDBRANCH  20  21
ENDBRANCH  18  20
ENDBRANCH   1  19
TORSDOF 12
ENDMDL
MODEL 3
REMARK VINA RESULT:      -6.8      5.209      8.361
REMARK  Name = 
REMARK  13 active torsions:
REMARK  status: ('A' for Active; 'I' for Inactive)
REMARK    1  A    between atoms: C_1  and  C_2
REMARK    2  A    between atoms: C_2  and  C_3
REMARK    3  A    between atoms: C_3  and  C_4
REMARK    4  A    between atoms: C_4  and  C_5
REMARK    5  A    between atoms: C_5  and  C_6
REMARK    6  A    between atoms: C_6  and  C_7
REMARK    7  A    between atoms: C_7  and  C_8
REMARK    8  A    between atoms: C_9  and  C_10
REMARK    9  A    between atoms: N_12  and  C_13
REMARK   10  A    between atoms: C_17  and  S_18
REMARK   11  A    between atoms: S_18  and  C_21
REMARK   12  A    between atoms: C_21  and  C_22
REMARK   13  A    between atoms: C_22  and  O_23
REMARK                            x       y       z     vdW  Elec       q    Type
REMARK                         _______ _______ _______ _____ _____    ______ ____
ROOT
ATOM      1  C   UNL     1       2.028   6.652  20.279  0.00  0.00    +0.000 C 
ATOM      2  O   UNL     1       2.114   5.597  20.875  0.00  0.00    +0.000 OA
ATOM      3  N   UNL     1       2.471   6.904  18.987  0.00  0.00    +0.000 N 
ATOM      4  H   UNL     1       2.479   7.851  18.640  0.00  0.00    +0.000 HD
ENDROOT
BRANCH   3   5
ATOM      5  C   UNL     1       3.086   5.903  18.195  0.00  0.00    +0.000 A 
ATOM      6  C   UNL     1       2.413   4.725  17.856  0.00  0.00    +0.000 A 
ATOM      7  C   UNL     1       3.028   3.744  17.081  0.00  0.00    +0.000 A 
ATOM      8  C   UNL     1       4.331   3.925  16.631  0.00  0.00    +0.000 A 
ATOM      9  C   UNL     1       5.015   5.092  16.967  0.00  0.00    +0.000 A 
ATOM     10  C   UNL     1       4.395   6.088  17.738  0.00  0.00    +0.000 A 
BRANCH   9  11
ATOM     11  S   UNL     1       6.717   5.263  16.470  0.00  0.00    +0.000 S 
ATOM     12  O   UNL     1       6.904   4.388  15.332  0.00  0.00    +0.000 OA
ATOM     13  O   UNL     1       6.978   6.686  16.377  0.00  0.00    +0.000 OA
BRANCH  11  14
ATOM     14  C   UNL     1       7.690   4.620  17.811  0.00  0.00    +0.000 C 
BRANCH  14  15
ATOM     15  C   UNL     1       7.900   5.677  18.878  0.00  0.00    +0.000 C 
BRANCH  15  16
ATOM     16  O   UNL     1       7.050   5.408  19.993  0.00  0.00    +0.000 OA
ATOM     17  H   UNL     1       6.670   6.252  20.296  0.00  0.00    +0.000 HD
ENDBRANCH  15  16
ENDBRANCH  14  15
ENDBRANCH  11  14
ENDBRANCH   9  11
ENDBRANCH   3   5
BRANCH   1  19
ATOM     18  C   UNL     1       0.967   8.838  20.198  0.00  0.00    +0.000 C 
ATOM     19  C   UNL     1       1.441   7.838  20.963  0.00  0.00    +0.000 C 
BRANCH  18  20
ATOM     20  C   UNL     1       0.375  10.109  20.732  0.00  0.00    +0.000 C 
BRANCH  20  21
ATOM     21  C   UNL     1       0.082  11.111  19.616  0.00  0.00    +0.000 C 
BRANCH  21  22
ATOM     22  C   UNL     1      -0.392  10.400  18.347  0.00  0.00    +0.000 C 
BRANCH  22  23
ATOM     23  C   UNL     1      -1.739  10.946  17.875  0.00  0.00    +0.000 C 
BRANCH  23  24
ATOM     24  C   UNL     1      -2.370  10.018  16.839  0.00  0.00    +0.000 C 
BRANCH  24  26
ATOM     25  C   UNL     1      -3.086  10.022  14.433  0.00  0.00    +0.000 C 
ATOM     26  C   UNL     1      -3.057  10.812  15.730  0.00  0.00    +0.000 C 
ENDBRANCH  24  26
ENDBRANCH  23  24
ENDBRANCH  22  23
ENDBRANCH  21  22
ENDBRANCH  20  21
ENDBRANCH  18  20
ENDBRANCH   1  19
TORSDOF 12
ENDMDL
MODEL 4
REMARK VINA RESULT:      -6.8      1.610      1.809
REMARK  Name = 
REMARK  13 active torsions:
REMARK  status: ('A' for Active; 'I' for Inactive)
REMARK    1  A    between atoms: C_1  and  C_2
REMARK    2  A    between atoms: C_2  and  C_3
REMARK    3  A    between atoms: C_3  and  C_4
REMARK    4  A    between atoms: C_4  and  C_5
REMARK    5  A    between atoms: C_5  and  C_6
REMARK    6  A    between atoms: C_6  and  C_7
REMARK    7  A    between atoms: C_7  and  C_8
REMARK    8  A    between atoms: C_9  and  C_10
REMARK    9  A    between atoms: N_12  and  C_13
REMARK   10  A    between atoms: C_17  and  S_18
REMARK   11  A    between atoms: S_18  and  C_21
REMARK   12  A    between atoms: C_21  and  C_22
REMARK   13  A    between atoms: C_22  and  O_23
REMARK                            x       y       z     vdW  Elec       q    Type
REMARK                         _______ _______ _______ _____ _____    ______ ____
ROOT
ATOM      1  C   UNL     1       7.654   7.760  17.811  0.00  0.00    +0.000 C 
ATOM      2  O   UNL     1       6.959   8.269  16.954  0.00  0.00    +0.000 OA
ATOM      3  N   UNL     1       7.555   6.458  18.284  0.00  0.00    +0.000 N 
ATOM      4  H   UNL     1       8.087   6.183  19.096  0.00  0.00    +0.000 HD
ENDROOT
BRANCH   3   5
ATOM      5  C   UNL     1       6.593   5.547  17.781  0.00  0.00    +0.000 A 
ATOM      6  C   UNL     1       6.843   4.780  16.639  0.00  0.00    +0.000 A 
ATOM      7  C   UNL     1       5.888   3.891  16.149  0.00  0.00    +0.000 A 
ATOM      8  C   UNL     1       4.665   3.754  16.795  0.00  0.00    +0.000 A 
ATOM      9  C   UNL     1       4.402   4.517  17.930  0.00  0.00    +0.000 A 
ATOM     10  C   UNL     1       5.364   5.407  18.434  0.00  0.00    +0.000 A 
BRANCH   9  11
ATOM     11  S   UNL     1       2.792   4.406  18.686  0.00  0.00    +0.000 S 
ATOM     12  O   UNL     1       2.575   5.659  19.379  0.00  0.00    +0.000 OA
ATOM     13  O   UNL     1       1.883   3.948  17.654  0.00  0.00    +0.000 OA
BRANCH  11  14
ATOM     14  C   UNL     1       2.911   3.125  19.912  0.00  0.00    +0.000 C 
BRANCH  14  15
ATOM     15  C   UNL     1       1.822   3.278  20.956  0.00  0.00    +0.000 C 
BRANCH  15  16
ATOM     16  O   UNL     1       0.583   3.585  20.316  0.00  0.00    +0.000 OA
ATOM     17  H   UNL     1      -0.106   3.647  21.002  0.00  0.00    +0.000 HD
ENDBRANCH  15  16
ENDBRANCH  14  15
ENDBRANCH  11  14
ENDBRANCH   9  11
ENDBRANCH   3   5
BRANCH   1  19
ATOM     18  C   UNL     1       8.632   9.915  18.369  0.00  0.00    +0.000 C 
ATOM     19  C   UNL     1       8.702   8.576  18.486  0.00  0.00    +0.000 C 
BRANCH  18  20
ATOM     20  C   UNL     1       9.623  10.872  18.962  0.00  0.00    +0.000 C 
BRANCH  20  21
ATOM     21  C   UNL     1      10.751  11.201  17.982  0.00  0.00    +0.000 C 
BRANCH  21  22
ATOM     22  C   UNL     1      11.733  12.202  18.591  0.00  0.00    +0.000 C 
BRANCH  22  23
ATOM     23  C   UNL     1      12.333  13.112  17.519  0.00  0.00    +0.000 C 
BRANCH  23  24
ATOM     24  C   UNL     1      11.234  13.781  16.695  0.00  0.00    +0.000 C 
BRANCH  24  26
ATOM     25  C   UNL     1      11.128  16.282  16.884  0.00  0.00    +0.000 C 
ATOM     26  C   UNL     1      10.622  14.963  17.444  0.00  0.00    +0.000 C 
ENDBRANCH  24  26
ENDBRANCH  23  24
ENDBRANCH  22  23
ENDBRANCH  21  22
ENDBRANCH  20  21
ENDBRANCH  18  20
ENDBRANCH   1  19
TORSDOF 12
ENDMDL
MODEL 5
REMARK VINA RESULT:      -6.7      6.137      8.122
REMARK  Name = 
REMARK  13 active torsions:
REMARK  status: ('A' for Active; 'I' for Inactive)
REMARK    1  A    between atoms: C_1  and  C_2
REMARK    2  A    between atoms: C_2  and  C_3
REMARK    3  A    between atoms: C_3  and  C_4
REMARK    4  A    between atoms: C_4  and  C_5
REMARK    5  A    between atoms: C_5  and  C_6
REMARK    6  A    between atoms: C_6  and  C_7
REMARK    7  A    between atoms: C_7  and  C_8
REMARK    8  A    between atoms: C_9  and  C_10
REMARK    9  A    between atoms: N_12  and  C_13
REMARK   10  A    between atoms: C_17  and  S_18
REMARK   11  A    between atoms: S_18  and  C_21
REMARK   12  A    between atoms: C_21  and  C_22
REMARK   13  A    between atoms: C_22  and  O_23
REMARK                            x       y       z     vdW  Elec       q    Type
REMARK                         _______ _______ _______ _____ _____    ______ ____
ROOT
ATOM      1  C   UNL     1       1.801   7.876  20.515  0.00  0.00    +0.000 C 
ATOM      2  O   UNL     1       1.614   8.473  19.474  0.00  0.00    +0.000 OA
ATOM      3  N   UNL     1       2.308   6.590  20.647  0.00  0.00    +0.000 N 
ATOM      4  H   UNL     1       2.289   6.138  21.548  0.00  0.00    +0.000 HD
ENDROOT
BRANCH   3   5
ATOM      5  C   UNL     1       2.686   5.813  19.523  0.00  0.00    +0.000 A 
ATOM      6  C   UNL     1       1.776   4.966  18.884  0.00  0.00    +0.000 A 
ATOM      7  C   UNL     1       2.158   4.202  17.783  0.00  0.00    +0.000 A 
ATOM      8  C   UNL     1       3.461   4.273  17.302  0.00  0.00    +0.000 A 
ATOM      9  C   UNL     1       4.378   5.108  17.934  0.00  0.00    +0.000 A 
ATOM     10  C   UNL     1       3.995   5.888  19.037  0.00  0.00    +0.000 A 
BRANCH   9  11
ATOM     11  S   UNL     1       6.068   5.111  17.370  0.00  0.00    +0.000 S 
ATOM     12  O   UNL     1       6.361   6.466  16.953  0.00  0.00    +0.000 OA
ATOM     13  O   UNL     1       6.848   4.455  18.402  0.00  0.00    +0.000 OA
BRANCH  11  14
ATOM     14  C   UNL     1       6.107   4.080  15.924  0.00  0.00    +0.000 C 
BRANCH  14  15
ATOM     15  C   UNL     1       6.377   4.906  14.681  0.00  0.00    +0.000 C 
BRANCH  15  16
ATOM     16  O   UNL     1       7.743   5.321  14.669  0.00  0.00    +0.000 OA
ATOM     17  H   UNL     1       8.059   5.355  15.590  0.00  0.00    +0.000 HD
ENDBRANCH  15  16
ENDBRANCH  14  15
ENDBRANCH  11  14
ENDBRANCH   9  11
ENDBRANCH   3   5
BRANCH   1  19
ATOM     18  C   UNL     1       0.212   9.084  21.903  0.00  0.00    +0.000 C 
ATOM     19  C   UNL     1       1.429   8.519  21.807  0.00  0.00    +0.000 C 
BRANCH  18  20
ATOM     20  C   UNL     1      -0.301   9.796  23.119  0.00  0.00    +0.000 C 
BRANCH  20  21
ATOM     21  C   UNL     1      -1.343  10.856  22.761  0.00  0.00    +0.000 C 
BRANCH  21  22
ATOM     22  C   UNL     1      -0.674  12.165  22.340  0.00  0.00    +0.000 C 
BRANCH  22  23
ATOM     23  C   UNL     1      -0.951  12.484  20.872  0.00  0.00    +0.000 C 
BRANCH  23  24
ATOM     24  C   UNL     1       0.257  12.141  20.002  0.00  0.00    +0.000 C 
BRANCH  24  26
ATOM     25  C   UNL     1      -1.263  10.451  18.936  0.00  0.00    +0.000 C 
ATOM     26  C   UNL     1      -0.172  11.480  18.694  0.00  0.00    +0.000 C 
ENDBRANCH  24  26
ENDBRANCH  23  24
ENDBRANCH  22  23
ENDBRANCH  21  22
ENDBRANCH  20  21
ENDBRANCH  18  20
ENDBRANCH   1  19
TORSDOF 12
ENDMDL
MODEL 6
REMARK VINA RESULT:      -6.6      5.393      8.052
REMARK  Name = 
REMARK  13 active torsions:
REMARK  status: ('A' for Active; 'I' for Inactive)
REMARK    1  A    between atoms: C_1  and  C_2
REMARK    2  A    between atoms: C_2  and  C_3
REMARK    3  A    between atoms: C_3  and  C_4
REMARK    4  A    between atoms: C_4  and  C_5
REMARK    5  A    between atoms: C_5  and  C_6
REMARK    6  A    between atoms: C_6  and  C_7
REMARK    7  A    between atoms: C_7  and  C_8
REMARK    8  A    between atoms: C_9  and  C_10
REMARK    9  A    between atoms: N_12  and  C_13
REMARK   10  A    between atoms: C_17  and  S_18
REMARK   11  A    between atoms: S_18  and  C_21
REMARK   12  A    between atoms: C_21  and  C_22
REMARK   13  A    between atoms: C_22  and  O_23
REMARK                            x       y       z     vdW  Elec       q    Type
REMARK                         _______ _______ _______ _____ _____    ______ ____
ROOT
ATOM      1  C   UNL     1       6.462   5.657  16.390  0.00  0.00    +0.000 C 
ATOM      2  O   UNL     1       6.916   6.030  17.453  0.00  0.00    +0.000 OA
ATOM      3  N   UNL     1       5.135   5.339  16.129  0.00  0.00    +0.000 N 
ATOM      4  H   UNL     1       4.892   4.904  15.252  0.00  0.00    +0.000 HD
ENDROOT
BRANCH   3   5
ATOM      5  C   UNL     1       4.130   5.433  17.123  0.00  0.00    +0.000 A 
ATOM      6  C   UNL     1       3.687   6.672  17.596  0.00  0.00    +0.000 A 
ATOM      7  C   UNL     1       2.702   6.754  18.578  0.00  0.00    +0.000 A 
ATOM      8  C   UNL     1       2.142   5.596  19.106  0.00  0.00    +0.000 A 
ATOM      9  C   UNL     1       2.580   4.355  18.647  0.00  0.00    +0.000 A 
ATOM     10  C   UNL     1       3.565   4.267  17.650  0.00  0.00    +0.000 A 
BRANCH   9  11
ATOM     11  S   UNL     1       1.928   2.880  19.405  0.00  0.00    +0.000 S 
ATOM     12  O   UNL     1       0.601   3.213  19.878  0.00  0.00    +0.000 OA
ATOM     13  O   UNL     1       2.144   1.802  18.461  0.00  0.00    +0.000 OA
BRANCH  11  14
ATOM     14  C   UNL     1       2.945   2.566  20.828  0.00  0.00    +0.000 C 
BRANCH  14  15
ATOM     15  C   UNL     1       4.415   2.708  20.481  0.00  0.00    +0.000 C 
BRANCH  15  16
ATOM     16  O   UNL     1       4.841   1.573  19.728  0.00  0.00    +0.000 OA
ATOM     17  H   UNL     1       4.673   0.775  20.260  0.00  0.00    +0.000 HD
ENDBRANCH  15  16
ENDBRANCH  14  15
ENDBRANCH  11  14
ENDBRANCH   9  11
ENDBRANCH   3   5
BRANCH   1  19
ATOM     18  C   UNL     1       6.832   5.098  14.053  0.00  0.00    +0.000 C 
ATOM     19  C   UNL     1       7.375   5.461  15.229  0.00  0.00    +0.000 C 
BRANCH  18  20
ATOM     20  C   UNL     1       7.615   4.833  12.802  0.00  0.00    +0.000 C 
BRANCH  20  21
ATOM     21  C   UNL     1       7.034   3.664  12.005  0.00  0.00    +0.000 C 
BRANCH  21  22
ATOM     22  C   UNL     1       5.541   3.491  12.292  0.00  0.00    +0.000 C 
BRANCH  22  23
ATOM     23  C   UNL     1       4.906   2.480  11.338  0.00  0.00    +0.000 C 
BRANCH  23  24
ATOM     24  C   UNL     1       3.482   2.895  10.974  0.00  0.00    +0.000 C 
BRANCH  24  26
ATOM     25  C   UNL     1       2.695   4.276   9.031  0.00  0.00    +0.000 C 
ATOM     26  C   UNL     1       3.455   4.288  10.347  0.00  0.00    +0.000 C 
ENDBRANCH  24  26
ENDBRANCH  23  24
ENDBRANCH  22  23
ENDBRANCH  21  22
ENDBRANCH  20  21
ENDBRANCH  18  20
ENDBRANCH   1  19
TORSDOF 12
ENDMDL
MODEL 7
REMARK VINA RESULT:      -6.6      1.410      1.589
REMARK  Name = 
REMARK  13 active torsions:
REMARK  status: ('A' for Active; 'I' for Inactive)
REMARK    1  A    between atoms: C_1  and  C_2
REMARK    2  A    between atoms: C_2  and  C_3
REMARK    3  A    between atoms: C_3  and  C_4
REMARK    4  A    between atoms: C_4  and  C_5
REMARK    5  A    between atoms: C_5  and  C_6
REMARK    6  A    between atoms: C_6  and  C_7
REMARK    7  A    between atoms: C_7  and  C_8
REMARK    8  A    between atoms: C_9  and  C_10
REMARK    9  A    between atoms: N_12  and  C_13
REMARK   10  A    between atoms: C_17  and  S_18
REMARK   11  A    between atoms: S_18  and  C_21
REMARK   12  A    between atoms: C_21  and  C_22
REMARK   13  A    between atoms: C_22  and  O_23
REMARK                            x       y       z     vdW  Elec       q    Type
REMARK                         _______ _______ _______ _____ _____    ______ ____
ROOT
ATOM      1  C   UNL     1       7.950   7.393  18.242  0.00  0.00    +0.000 C 
ATOM      2  O   UNL     1       8.126   6.493  19.039  0.00  0.00    +0.000 OA
ATOM      3  N   UNL     1       7.094   7.367  17.148  0.00  0.00    +0.000 N 
ATOM      4  H   UNL     1       7.130   8.113  16.470  0.00  0.00    +0.000 HD
ENDROOT
BRANCH   3   5
ATOM      5  C   UNL     1       6.294   6.236  16.847  0.00  0.00    +0.000 A 
ATOM      6  C   UNL     1       6.696   5.290  15.900  0.00  0.00    +0.000 A 
ATOM      7  C   UNL     1       5.900   4.184  15.607  0.00  0.00    +0.000 A 
ATOM      8  C   UNL     1       4.685   4.006  16.259  0.00  0.00    +0.000 A 
ATOM      9  C   UNL     1       4.270   4.946  17.200  0.00  0.00    +0.000 A 
ATOM     10  C   UNL     1       5.074   6.055  17.506  0.00  0.00    +0.000 A 
BRANCH   9  11
ATOM     11  S   UNL     1       2.665   4.758  17.951  0.00  0.00    +0.000 S 
ATOM     12  O   UNL     1       2.118   6.092  18.091  0.00  0.00    +0.000 OA
ATOM     13  O   UNL     1       1.972   3.735  17.193  0.00  0.00    +0.000 OA
BRANCH  11  14
ATOM     14  C   UNL     1       2.956   4.120  19.584  0.00  0.00    +0.000 C 
BRANCH  14  15
ATOM     15  C   UNL     1       1.862   4.561  20.537  0.00  0.00    +0.000 C 
BRANCH  15  16
ATOM     16  O   UNL     1       2.145   5.876  21.015  0.00  0.00    +0.000 OA
ATOM     17  H   UNL     1       1.782   5.957  21.915  0.00  0.00    +0.000 HD
ENDBRANCH  15  16
ENDBRANCH  14  15
ENDBRANCH  11  14
ENDBRANCH   9  11
ENDBRANCH   3   5
BRANCH   1  19
ATOM     18  C   UNL     1       8.132   9.808  18.029  0.00  0.00    +0.000 C 
ATOM     19  C   UNL     1       8.732   8.654  18.373  0.00  0.00    +0.000 C 
BRANCH  18  20
ATOM     20  C   UNL     1       8.791  11.154  18.074  0.00  0.00    +0.000 C 
BRANCH  20  21
ATOM     21  C   UNL     1      10.302  11.054  17.867  0.00  0.00    +0.000 C 
BRANCH  21  22
ATOM     22  C   UNL     1      11.049  12.016  18.793  0.00  0.00    +0.000 C 
BRANCH  22  23
ATOM     23  C   UNL     1      11.996  12.921  18.005  0.00  0.00    +0.000 C 
BRANCH  23  24
ATOM     24  C   UNL     1      11.227  13.754  16.981  0.00  0.00    +0.000 C 
BRANCH  24  26
ATOM     25  C   UNL     1       9.401  15.177  17.951  0.00  0.00    +0.000 C 
ATOM     26  C   UNL     1      10.864  15.127  17.543  0.00  0.00    +0.000 C 
ENDBRANCH  24  26
ENDBRANCH  23  24
ENDBRANCH  22  23
ENDBRANCH  21  22
ENDBRANCH  20  21
ENDBRANCH  18  20
ENDBRANCH   1  19
TORSDOF 12
ENDMDL
MODEL 8
REMARK VINA RESULT:      -6.6      1.580      2.083
REMARK  Name = 
REMARK  13 active torsions:
REMARK  status: ('A' for Active; 'I' for Inactive)
REMARK    1  A    between atoms: C_1  and  C_2
REMARK    2  A    between atoms: C_2  and  C_3
REMARK    3  A    between atoms: C_3  and  C_4
REMARK    4  A    between atoms: C_4  and  C_5
REMARK    5  A    between atoms: C_5  and  C_6
REMARK    6  A    between atoms: C_6  and  C_7
REMARK    7  A    between atoms: C_7  and  C_8
REMARK    8  A    between atoms: C_9  and  C_10
REMARK    9  A    between atoms: N_12  and  C_13
REMARK   10  A    between atoms: C_17  and  S_18
REMARK   11  A    between atoms: S_18  and  C_21
REMARK   12  A    between atoms: C_21  and  C_22
REMARK   13  A    between atoms: C_22  and  O_23
REMARK                            x       y       z     vdW  Elec       q    Type
REMARK                         _______ _______ _______ _____ _____    ______ ____
ROOT
ATOM      1  C   UNL     1       7.709   7.582  17.676  0.00  0.00    +0.000 C 
ATOM      2  O   UNL     1       8.025   6.838  18.583  0.00  0.00    +0.000 OA
ATOM      3  N   UNL     1       6.708   7.359  16.739  0.00  0.00    +0.000 N 
ATOM      4  H   UNL     1       6.625   7.974  15.944  0.00  0.00    +0.000 HD
ENDROOT
BRANCH   3   5
ATOM      5  C   UNL     1       5.911   6.187  16.757  0.00  0.00    +0.000 A 
ATOM      6  C   UNL     1       6.075   5.179  15.803  0.00  0.00    +0.000 A 
ATOM      7  C   UNL     1       5.282   4.033  15.826  0.00  0.00    +0.000 A 
ATOM      8  C   UNL     1       4.309   3.877  16.808  0.00  0.00    +0.000 A 
ATOM      9  C   UNL     1       4.132   4.878  17.760  0.00  0.00    +0.000 A 
ATOM     10  C   UNL     1       4.935   6.029  17.747  0.00  0.00    +0.000 A 
BRANCH   9  11
ATOM     11  S   UNL     1       2.814   4.710  18.947  0.00  0.00    +0.000 S 
ATOM     12  O   UNL     1       3.350   3.944  20.053  0.00  0.00    +0.000 OA
ATOM     13  O   UNL     1       2.266   6.038  19.146  0.00  0.00    +0.000 OA
BRANCH  11  14
ATOM     14  C   UNL     1       1.564   3.721  18.161  0.00  0.00    +0.000 C 
BRANCH  14  15
ATOM     15  C   UNL     1       0.867   2.832  19.172  0.00  0.00    +0.000 C 
BRANCH  15  16
ATOM     16  O   UNL     1       0.485   3.607  20.308  0.00  0.00    +0.000 OA
ATOM     17  H   UNL     1      -0.470   3.788  20.245  0.00  0.00    +0.000 HD
ENDBRANCH  15  16
ENDBRANCH  14  15
ENDBRANCH  11  14
ENDBRANCH   9  11
ENDBRANCH   3   5
BRANCH   1  19
ATOM     18  C   UNL     1       8.211   9.876  18.308  0.00  0.00    +0.000 C 
ATOM     19  C   UNL     1       8.462   8.852  17.472  0.00  0.00    +0.000 C 
BRANCH  18  20
ATOM     20  C   UNL     1       8.859  11.225  18.218  0.00  0.00    +0.000 C 
BRANCH  20  21
ATOM     21  C   UNL     1      10.384  11.121  18.188  0.00  0.00    +0.000 C 
BRANCH  21  22
ATOM     22  C   UNL     1      11.013  11.929  19.325  0.00  0.00    +0.000 C 
BRANCH  22  23
ATOM     23  C   UNL     1      10.289  11.681  20.648  0.00  0.00    +0.000 C 
BRANCH  23  24
ATOM     24  C   UNL     1      10.013  12.997  21.373  0.00  0.00    +0.000 C 
BRANCH  24  26
ATOM     25  C   UNL     1       8.158  14.483  20.562  0.00  0.00    +0.000 C 
ATOM     26  C   UNL     1       9.618  14.098  20.390  0.00  0.00    +0.000 C 
ENDBRANCH  24  26
ENDBRANCH  23  24
ENDBRANCH  22  23
ENDBRANCH  21  22
ENDBRANCH  20  21
ENDBRANCH  18  20
ENDBRANCH   1  19
TORSDOF 12
ENDMDL
MODEL 9
REMARK VINA RESULT:      -6.6      1.275      1.616
REMARK  Name = 
REMARK  13 active torsions:
REMARK  status: ('A' for Active; 'I' for Inactive)
REMARK    1  A    between atoms: C_1  and  C_2
REMARK    2  A    between atoms: C_2  and  C_3
REMARK    3  A    between atoms: C_3  and  C_4
REMARK    4  A    between atoms: C_4  and  C_5
REMARK    5  A    between atoms: C_5  and  C_6
REMARK    6  A    between atoms: C_6  and  C_7
REMARK    7  A    between atoms: C_7  and  C_8
REMARK    8  A    between atoms: C_9  and  C_10
REMARK    9  A    between atoms: N_12  and  C_13
REMARK   10  A    between atoms: C_17  and  S_18
REMARK   11  A    between atoms: S_18  and  C_21
REMARK   12  A    between atoms: C_21  and  C_22
REMARK   13  A    between atoms: C_22  and  O_23
REMARK                            x       y       z     vdW  Elec       q    Type
REMARK                         _______ _______ _______ _____ _____    ______ ____
ROOT
ATOM      1  C   UNL     1       7.602   7.538  17.724  0.00  0.00    +0.000 C 
ATOM      2  O   UNL     1       6.901   8.104  16.908  0.00  0.00    +0.000 OA
ATOM      3  N   UNL     1       7.581   6.183  18.027  0.00  0.00    +0.000 N 
ATOM      4  H   UNL     1       8.104   5.843  18.820  0.00  0.00    +0.000 HD
ENDROOT
BRANCH   3   5
ATOM      5  C   UNL     1       6.706   5.281  17.373  0.00  0.00    +0.000 A 
ATOM      6  C   UNL     1       7.017   4.741  16.121  0.00  0.00    +0.000 A 
ATOM      7  C   UNL     1       6.147   3.858  15.484  0.00  0.00    +0.000 A 
ATOM      8  C   UNL     1       4.947   3.500  16.090  0.00  0.00    +0.000 A 
ATOM      9  C   UNL     1       4.623   4.036  17.334  0.00  0.00    +0.000 A 
ATOM     10  C   UNL     1       5.502   4.918  17.985  0.00  0.00    +0.000 A 
BRANCH   9  11
ATOM     11  S   UNL     1       3.038   3.649  18.050  0.00  0.00    +0.000 S 
ATOM     12  O   UNL     1       2.762   4.685  19.023  0.00  0.00    +0.000 OA
ATOM     13  O   UNL     1       2.137   3.394  16.944  0.00  0.00    +0.000 OA
BRANCH  11  14
ATOM     14  C   UNL     1       3.256   2.123  18.935  0.00  0.00    +0.000 C 
BRANCH  14  15
ATOM     15  C   UNL     1       4.074   2.343  20.193  0.00  0.00    +0.000 C 
BRANCH  15  16
ATOM     16  O   UNL     1       5.264   1.557  20.134  0.00  0.00    +0.000 OA
ATOM     17  H   UNL     1       5.959   2.019  20.636  0.00  0.00    +0.000 HD
ENDBRANCH  15  16
ENDBRANCH  14  15
ENDBRANCH  11  14
ENDBRANCH   9  11
ENDBRANCH   3   5
BRANCH   1  19
ATOM     18  C   UNL     1       8.646   9.653  18.311  0.00  0.00    +0.000 C 
ATOM     19  C   UNL     1       8.564   8.330  18.541  0.00  0.00    +0.000 C 
BRANCH  18  20
ATOM     20  C   UNL     1       9.584  10.582  19.024  0.00  0.00    +0.000 C 
BRANCH  20  21
ATOM     21  C   UNL     1      10.017  11.746  18.133  0.00  0.00    +0.000 C 
BRANCH  21  22
ATOM     22  C   UNL     1       8.821  12.616  17.743  0.00  0.00    +0.000 C 
BRANCH  22  23
ATOM     23  C   UNL     1       8.744  13.874  18.608  0.00  0.00    +0.000 C 
BRANCH  23  24
ATOM     24  C   UNL     1       9.452  15.045  17.929  0.00  0.00    +0.000 C 
BRANCH  24  26
ATOM     25  C   UNL     1      11.892  15.464  17.516  0.00  0.00    +0.000 C 
ATOM     26  C   UNL     1      10.810  15.320  18.572  0.00  0.00    +0.000 C 
ENDBRANCH  24  26
ENDBRANCH  23  24
ENDBRANCH  22  23
ENDBRANCH  21  22
ENDBRANCH  20  21
ENDBRANCH  18  20
ENDBRANCH   1  19
TORSDOF 12
ENDMDL
