MODEL 1
REMARK VINA RESULT:      -8.5      0.000      0.000
REMARK  Name = 
REMARK  6 active torsions:
REMARK  status: ('A' for Active; 'I' for Inactive)
REMARK    1  A    between atoms: C_2  and  C_14
REMARK    2  A    between atoms: N_3  and  C_4
REMARK    3  A    between atoms: C_4  and  C_5
REMARK    4  A    between atoms: C_5  and  O_6
REMARK    5  A    between atoms: C_5  and  C_7
REMARK    6  A    between atoms: N_17  and  C_18
REMARK                            x       y       z     vdW  Elec       q    Type
REMARK                         _______ _______ _______ _____ _____    ______ ____
ROOT
ATOM      1  O   UNL     1       6.136   7.105  16.283  0.00  0.00    +0.000 OA
ATOM      2  C   UNL     1       6.852   6.725  17.209  0.00  0.00    +0.000 C 
ATOM      3  N   UNL     1       7.754   7.564  17.829  0.00  0.00    +0.000 N 
ATOM      4  H   UNL     1       8.192   7.266  18.690  0.00  0.00    +0.000 HD
ENDROOT
BRANCH   2   5
ATOM      5  C   UNL     1       6.860   5.288  17.748  0.00  0.00    +0.000 C 
ATOM      6  C   UNL     1       6.009   4.330  16.917  0.00  0.00    +0.000 C 
ATOM      7  C   UNL     1       4.505   4.576  17.085  0.00  0.00    +0.000 C 
ATOM      8  N   UNL     1       4.020   4.629  18.487  0.00  0.00    +0.000 NA
ATOM      9  C   UNL     1       4.882   5.508  19.302  0.00  0.00    +0.000 C 
ATOM     10  C   UNL     1       6.377   5.199  19.192  0.00  0.00    +0.000 C 
BRANCH   8  11
ATOM     11  C   UNL     1       2.595   5.108  18.502  0.00  0.00    +0.000 C 
ATOM     12  C   UNL     1       1.614   4.150  17.783  0.00  0.00    +0.000 C 
ATOM     13  C   UNL     1       1.323   2.868  18.562  0.00  0.00    +0.000 C 
ATOM     14  C   UNL     1       0.857   3.137  19.990  0.00  0.00    +0.000 C 
ATOM     15  C   UNL     1       1.731   4.146  20.727  0.00  0.00    +0.000 C 
ATOM     16  C   UNL     1       1.991   5.399  19.899  0.00  0.00    +0.000 C 
ENDBRANCH   8  11
ENDBRANCH   2   5
BRANCH   3  17
ATOM     17  C   UNL     1       7.839   8.987  17.511  0.00  0.00    +0.000 C 
BRANCH  17  18
ATOM     18  C   UNL     1       8.446   9.815  18.666  0.00  0.00    +0.000 C 
BRANCH  18  19
ATOM     19  C   UNL     1       9.248  11.012  18.174  0.00  0.00    +0.000 A 
ATOM     20  C   UNL     1       8.577  12.197  17.820  0.00  0.00    +0.000 A 
ATOM     21  C   UNL     1       9.282  13.310  17.354  0.00  0.00    +0.000 A 
ATOM     22  C   UNL     1      10.663  13.248  17.244  0.00  0.00    +0.000 A 
ATOM     23  F   UNL     1      11.340  14.315  16.800  0.00  0.00    +0.000 F 
ATOM     24  C   UNL     1      11.354  12.094  17.593  0.00  0.00    +0.000 A 
ATOM     25  C   UNL     1      10.650  10.979  18.053  0.00  0.00    +0.000 A 
ENDBRANCH  18  19
BRANCH  18  26
ATOM     26  O   UNL     1       9.281   8.953  19.458  0.00  0.00    +0.000 OA
ATOM     27  H   UNL     1       9.004   8.036  19.300  0.00  0.00    +0.000 HD
ENDBRANCH  18  26
ENDBRANCH  17  18
ENDBRANCH   3  17
TORSDOF 6
ENDMDL
MODEL 2
REMARK VINA RESULT:      -8.3      0.451      1.065
REMARK  Name = 
REMARK  6 active torsions:
REMARK  status: ('A' for Active; 'I' for Inactive)
REMARK    1  A    between atoms: C_2  and  C_14
REMARK    2  A    between atoms: N_3  and  C_4
REMARK    3  A    between atoms: C_4  and  C_5
REMARK    4  A    between atoms: C_5  and  O_6
REMARK    5  A    between atoms: C_5  and  C_7
REMARK    6  A    between atoms: N_17  and  C_18
REMARK                            x       y       z     vdW  Elec       q    Type
REMARK                         _______ _______ _______ _____ _____    ______ ____
ROOT
ATOM      1  O   UNL     1       6.970   6.827  16.198  0.00  0.00    +0.000 OA
ATOM      2  C   UNL     1       7.356   6.627  17.350  0.00  0.00    +0.000 C 
ATOM      3  N   UNL     1       7.962   7.611  18.101  0.00  0.00    +0.000 N 
ATOM      4  H   UNL     1       8.103   7.459  19.091  0.00  0.00    +0.000 HD
ENDROOT
BRANCH   2   5
ATOM      5  C   UNL     1       7.250   5.270  18.062  0.00  0.00    +0.000 C 
ATOM      6  C   UNL     1       6.484   4.225  17.253  0.00  0.00    +0.000 C 
ATOM      7  C   UNL     1       4.979   4.512  17.189  0.00  0.00    +0.000 C 
ATOM      8  N   UNL     1       4.320   4.752  18.498  0.00  0.00    +0.000 NA
ATOM      9  C   UNL     1       5.097   5.717  19.302  0.00  0.00    +0.000 C 
ATOM     10  C   UNL     1       6.583   5.375  19.430  0.00  0.00    +0.000 C 
BRANCH   8  11
ATOM     11  C   UNL     1       2.920   5.248  18.265  0.00  0.00    +0.000 C 
ATOM     12  C   UNL     1       1.948   4.148  17.775  0.00  0.00    +0.000 C 
ATOM     13  C   UNL     1       1.548   3.151  18.862  0.00  0.00    +0.000 C 
ATOM     14  C   UNL     1       0.998   3.831  20.113  0.00  0.00    +0.000 C 
ATOM     15  C   UNL     1       1.865   4.987  20.598  0.00  0.00    +0.000 C 
ATOM     16  C   UNL     1       2.236   5.943  19.469  0.00  0.00    +0.000 C 
ENDBRANCH   8  11
ENDBRANCH   2   5
BRANCH   3  17
ATOM     17  C   UNL     1       8.082   8.988  17.628  0.00  0.00    +0.000 C 
BRANCH  17  18
ATOM     18  C   UNL     1       8.534   9.958  18.743  0.00  0.00    +0.000 C 
BRANCH  18  19
ATOM     19  C   UNL     1       9.307  11.155  18.205  0.00  0.00    +0.000 A 
ATOM     20  C   UNL     1      10.712  11.101  18.146  0.00  0.00    +0.000 A 
ATOM     21  C   UNL     1      11.453  12.185  17.670  0.00  0.00    +0.000 A 
ATOM     22  C   UNL     1      10.795  13.330  17.244  0.00  0.00    +0.000 A 
ATOM     23  F   UNL     1      11.503  14.369  16.785  0.00  0.00    +0.000 F 
ATOM     24  C   UNL     1       9.407  13.409  17.284  0.00  0.00    +0.000 A 
ATOM     25  C   UNL     1       8.666  12.328  17.766  0.00  0.00    +0.000 A 
ENDBRANCH  18  19
BRANCH  18  26
ATOM     26  O   UNL     1       9.342   9.231  19.683  0.00  0.00    +0.000 OA
ATOM     27  H   UNL     1       9.489   9.798  20.458  0.00  0.00    +0.000 HD
ENDBRANCH  18  26
ENDBRANCH  17  18
ENDBRANCH   3  17
TORSDOF 6
ENDMDL
MODEL 3
REMARK VINA RESULT:      -7.9      5.173      7.366
REMARK  Name = 
REMARK  6 active torsions:
REMARK  status: ('A' for Active; 'I' for Inactive)
REMARK    1  A    between atoms: C_2  and  C_14
REMARK    2  A    between atoms: N_3  and  C_4
REMARK    3  A    between atoms: C_4  and  C_5
REMARK    4  A    between atoms: C_5  and  O_6
REMARK    5  A    between atoms: C_5  and  C_7
REMARK    6  A    between atoms: N_17  and  C_18
REMARK                            x       y       z     vdW  Elec       q    Type
REMARK                         _______ _______ _______ _____ _____    ______ ____
ROOT
ATOM      1  O   UNL     1       7.899   4.442  17.310  0.00  0.00    +0.000 OA
ATOM      2  C   UNL     1       7.127   5.311  16.905  0.00  0.00    +0.000 C 
ATOM      3  N   UNL     1       6.985   5.597  15.563  0.00  0.00    +0.000 N 
ATOM      4  H   UNL     1       6.221   6.188  15.264  0.00  0.00    +0.000 HD
ENDROOT
BRANCH   2   5
ATOM      5  C   UNL     1       6.277   6.196  17.828  0.00  0.00    +0.000 C 
ATOM      6  C   UNL     1       6.109   5.614  19.230  0.00  0.00    +0.000 C 
ATOM      7  C   UNL     1       5.186   4.389  19.257  0.00  0.00    +0.000 C 
ATOM      8  N   UNL     1       3.866   4.570  18.600  0.00  0.00    +0.000 NA
ATOM      9  C   UNL     1       4.030   5.190  17.269  0.00  0.00    +0.000 C 
ATOM     10  C   UNL     1       4.883   6.460  17.268  0.00  0.00    +0.000 C 
BRANCH   8  11
ATOM     11  C   UNL     1       3.178   3.239  18.493  0.00  0.00    +0.000 C 
ATOM     12  C   UNL     1       3.488   2.287  19.675  0.00  0.00    +0.000 C 
ATOM     13  C   UNL     1       2.797   2.681  20.980  0.00  0.00    +0.000 C 
ATOM     14  C   UNL     1       1.290   2.861  20.820  0.00  0.00    +0.000 C 
ATOM     15  C   UNL     1       0.912   3.717  19.616  0.00  0.00    +0.000 C 
ATOM     16  C   UNL     1       1.636   3.280  18.347  0.00  0.00    +0.000 C 
ENDBRANCH   8  11
ENDBRANCH   2   5
BRANCH   3  17
ATOM     17  C   UNL     1       7.649   4.811  14.526  0.00  0.00    +0.000 C 
BRANCH  17  18
ATOM     18  C   UNL     1       7.049   5.058  13.124  0.00  0.00    +0.000 C 
BRANCH  18  19
ATOM     19  C   UNL     1       6.737   3.767  12.380  0.00  0.00    +0.000 A 
ATOM     20  C   UNL     1       5.401   3.341  12.264  0.00  0.00    +0.000 A 
ATOM     21  C   UNL     1       5.080   2.155  11.599  0.00  0.00    +0.000 A 
ATOM     22  C   UNL     1       6.093   1.388  11.041  0.00  0.00    +0.000 A 
ATOM     23  F   UNL     1       5.787   0.252  10.401  0.00  0.00    +0.000 F 
ATOM     24  C   UNL     1       7.421   1.787  11.133  0.00  0.00    +0.000 A 
ATOM     25  C   UNL     1       7.743   2.969  11.804  0.00  0.00    +0.000 A 
ENDBRANCH  18  19
BRANCH  18  26
ATOM     26  O   UNL     1       7.975   5.853  12.363  0.00  0.00    +0.000 OA
ATOM     27  H   UNL     1       7.631   5.936  11.459  0.00  0.00    +0.000 HD
ENDBRANCH  18  26
ENDBRANCH  17  18
ENDBRANCH   3  17
TORSDOF 6
ENDMDL
MODEL 4
REMARK VINA RESULT:      -7.7      2.171      2.535
REMARK  Name = 
REMARK  6 active torsions:
REMARK  status: ('A' for Active; 'I' for Inactive)
REMARK    1  A    between atoms: C_2  and  C_14
REMARK    2  A    between atoms: N_3  and  C_4
REMARK    3  A    between atoms: C_4  and  C_5
REMARK    4  A    between atoms: C_5  and  O_6
REMARK    5  A    between atoms: C_5  and  C_7
REMARK    6  A    between atoms: N_17  and  C_18
REMARK                            x       y       z     vdW  Elec       q    Type
REMARK                         _______ _______ _______ _____ _____    ______ ____
ROOT
ATOM      1  O   UNL     1       8.046   6.428  19.048  0.00  0.00    +0.000 OA
ATOM      2  C   UNL     1       7.751   6.986  17.991  0.00  0.00    +0.000 C 
ATOM      3  N   UNL     1       7.959   8.334  17.792  0.00  0.00    +0.000 N 
ATOM      4  H   UNL     1       7.867   8.713  16.859  0.00  0.00    +0.000 HD
ENDROOT
BRANCH   2   5
ATOM      5  C   UNL     1       7.088   6.271  16.805  0.00  0.00    +0.000 C 
ATOM      6  C   UNL     1       5.673   6.770  16.517  0.00  0.00    +0.000 C 
ATOM      7  C   UNL     1       4.661   6.329  17.581  0.00  0.00    +0.000 C 
ATOM      8  N   UNL     1       4.654   4.876  17.891  0.00  0.00    +0.000 NA
ATOM      9  C   UNL     1       6.030   4.385  18.108  0.00  0.00    +0.000 C 
ATOM     10  C   UNL     1       7.014   4.760  16.998  0.00  0.00    +0.000 C 
BRANCH   8  11
ATOM     11  C   UNL     1       3.797   4.631  19.101  0.00  0.00    +0.000 C 
ATOM     12  C   UNL     1       2.313   5.024  18.897  0.00  0.00    +0.000 C 
ATOM     13  C   UNL     1       1.539   4.061  17.998  0.00  0.00    +0.000 C 
ATOM     14  C   UNL     1       1.649   2.609  18.455  0.00  0.00    +0.000 C 
ATOM     15  C   UNL     1       3.080   2.182  18.761  0.00  0.00    +0.000 C 
ATOM     16  C   UNL     1       3.802   3.184  19.656  0.00  0.00    +0.000 C 
ENDBRANCH   8  11
ENDBRANCH   2   5
BRANCH   3  17
ATOM     17  C   UNL     1       8.650   9.168  18.772  0.00  0.00    +0.000 C 
BRANCH  17  18
ATOM     18  C   UNL     1       9.074  10.535  18.189  0.00  0.00    +0.000 C 
BRANCH  18  19
ATOM     19  C   UNL     1       9.402  11.559  19.267  0.00  0.00    +0.000 A 
ATOM     20  C   UNL     1       9.711  12.880  18.895  0.00  0.00    +0.000 A 
ATOM     21  C   UNL     1      10.028  13.842  19.858  0.00  0.00    +0.000 A 
ATOM     22  C   UNL     1      10.034  13.491  21.200  0.00  0.00    +0.000 A 
ATOM     23  F   UNL     1      10.335  14.412  22.124  0.00  0.00    +0.000 F 
ATOM     24  C   UNL     1       9.725  12.195  21.598  0.00  0.00    +0.000 A 
ATOM     25  C   UNL     1       9.415  11.232  20.636  0.00  0.00    +0.000 A 
ENDBRANCH  18  19
BRANCH  18  26
ATOM     26  O   UNL     1       8.015  11.024  17.349  0.00  0.00    +0.000 OA
ATOM     27  H   UNL     1       7.841  10.359  16.664  0.00  0.00    +0.000 HD
ENDBRANCH  18  26
ENDBRANCH  17  18
ENDBRANCH   3  17
TORSDOF 6
ENDMDL
MODEL 5
REMARK VINA RESULT:      -7.6      2.157      2.389
REMARK  Name = 
REMARK  6 active torsions:
REMARK  status: ('A' for Active; 'I' for Inactive)
REMARK    1  A    between atoms: C_2  and  C_14
REMARK    2  A    between atoms: N_3  and  C_4
REMARK    3  A    between atoms: C_4  and  C_5
REMARK    4  A    between atoms: C_5  and  O_6
REMARK    5  A    between atoms: C_5  and  C_7
REMARK    6  A    between atoms: N_17  and  C_18
REMARK                            x       y       z     vdW  Elec       q    Type
REMARK                         _______ _______ _______ _____ _____    ______ ____
ROOT
ATOM      1  O   UNL     1       6.725   7.573  16.918  0.00  0.00    +0.000 OA
ATOM      2  C   UNL     1       7.526   7.217  17.783  0.00  0.00    +0.000 C 
ATOM      3  N   UNL     1       8.382   8.106  18.398  0.00  0.00    +0.000 N 
ATOM      4  H   UNL     1       8.895   7.809  19.217  0.00  0.00    +0.000 HD
ENDROOT
BRANCH   2   5
ATOM      5  C   UNL     1       7.696   5.762  18.242  0.00  0.00    +0.000 C 
ATOM      6  C   UNL     1       7.301   4.745  17.173  0.00  0.00    +0.000 C 
ATOM      7  C   UNL     1       5.786   4.684  16.945  0.00  0.00    +0.000 C 
ATOM      8  N   UNL     1       4.963   4.510  18.169  0.00  0.00    +0.000 NA
ATOM      9  C   UNL     1       5.390   5.455  19.221  0.00  0.00    +0.000 C 
ATOM     10  C   UNL     1       6.894   5.446  19.500  0.00  0.00    +0.000 C 
BRANCH   8  11
ATOM     11  C   UNL     1       3.513   4.707  17.824  0.00  0.00    +0.000 C 
ATOM     12  C   UNL     1       2.907   3.537  17.012  0.00  0.00    +0.000 C 
ATOM     13  C   UNL     1       2.669   2.273  17.837  0.00  0.00    +0.000 C 
ATOM     14  C   UNL     1       1.843   2.535  19.094  0.00  0.00    +0.000 C 
ATOM     15  C   UNL     1       2.334   3.735  19.895  0.00  0.00    +0.000 C 
ATOM     16  C   UNL     1       2.559   4.962  19.018  0.00  0.00    +0.000 C 
ENDBRANCH   8  11
ENDBRANCH   2   5
BRANCH   3  17
ATOM     17  C   UNL     1       8.318   9.545  18.153  0.00  0.00    +0.000 C 
BRANCH  17  18
ATOM     18  C   UNL     1       9.581  10.285  18.647  0.00  0.00    +0.000 C 
BRANCH  18  19
ATOM     19  C   UNL     1       9.268  11.367  19.671  0.00  0.00    +0.000 A 
ATOM     20  C   UNL     1       9.048  12.687  19.238  0.00  0.00    +0.000 A 
ATOM     21  C   UNL     1       8.770  13.706  20.153  0.00  0.00    +0.000 A 
ATOM     22  C   UNL     1       8.706  13.412  21.507  0.00  0.00    +0.000 A 
ATOM     23  F   UNL     1       8.437  14.387  22.385  0.00  0.00    +0.000 F 
ATOM     24  C   UNL     1       8.912  12.115  21.964  0.00  0.00    +0.000 A 
ATOM     25  C   UNL     1       9.196  11.097  21.050  0.00  0.00    +0.000 A 
ENDBRANCH  18  19
BRANCH  18  26
ATOM     26  O   UNL     1      10.249  10.860  17.510  0.00  0.00    +0.000 OA
ATOM     27  H   UNL     1      11.083  10.382  17.376  0.00  0.00    +0.000 HD
ENDBRANCH  18  26
ENDBRANCH  17  18
ENDBRANCH   3  17
TORSDOF 6
ENDMDL
MODEL 6
REMARK VINA RESULT:      -7.5      2.287      2.566
REMARK  Name = 
REMARK  6 active torsions:
REMARK  status: ('A' for Active; 'I' for Inactive)
REMARK    1  A    between atoms: C_2  and  C_14
REMARK    2  A    between atoms: N_3  and  C_4
REMARK    3  A    between atoms: C_4  and  C_5
REMARK    4  A    between atoms: C_5  and  O_6
REMARK    5  A    between atoms: C_5  and  C_7
REMARK    6  A    between atoms: N_17  and  C_18
REMARK                            x       y       z     vdW  Elec       q    Type
REMARK                         _______ _______ _______ _____ _____    ______ ____
ROOT
ATOM      1  O   UNL     1       6.832   7.645  16.901  0.00  0.00    +0.000 OA
ATOM      2  C   UNL     1       7.584   7.274  17.802  0.00  0.00    +0.000 C 
ATOM      3  N   UNL     1       8.411   8.150  18.473  0.00  0.00    +0.000 N 
ATOM      4  H   UNL     1       8.878   7.840  19.314  0.00  0.00    +0.000 HD
ENDROOT
BRANCH   2   5
ATOM      5  C   UNL     1       7.722   5.813  18.251  0.00  0.00    +0.000 C 
ATOM      6  C   UNL     1       7.330   4.811  17.166  0.00  0.00    +0.000 C 
ATOM      7  C   UNL     1       5.819   4.778  16.909  0.00  0.00    +0.000 C 
ATOM      8  N   UNL     1       4.970   4.606  18.115  0.00  0.00    +0.000 NA
ATOM      9  C   UNL     1       5.392   5.534  19.184  0.00  0.00    +0.000 C 
ATOM     10  C   UNL     1       6.891   5.499  19.491  0.00  0.00    +0.000 C 
BRANCH   8  11
ATOM     11  C   UNL     1       3.531   4.830  17.745  0.00  0.00    +0.000 C 
ATOM     12  C   UNL     1       2.876   3.612  17.049  0.00  0.00    +0.000 C 
ATOM     13  C   UNL     1       2.582   2.447  17.995  0.00  0.00    +0.000 C 
ATOM     14  C   UNL     1       1.767   2.868  19.214  0.00  0.00    +0.000 C 
ATOM     15  C   UNL     1       2.309   4.119  19.896  0.00  0.00    +0.000 C 
ATOM     16  C   UNL     1       2.587   5.243  18.903  0.00  0.00    +0.000 C 
ENDBRANCH   8  11
ENDBRANCH   2   5
BRANCH   3  17
ATOM     17  C   UNL     1       8.367   9.592  18.243  0.00  0.00    +0.000 C 
BRANCH  17  18
ATOM     18  C   UNL     1       9.681  10.295  18.652  0.00  0.00    +0.000 C 
BRANCH  18  19
ATOM     19  C   UNL     1       9.497  11.258  19.818  0.00  0.00    +0.000 A 
ATOM     20  C   UNL     1       8.977  10.780  21.034  0.00  0.00    +0.000 A 
ATOM     21  C   UNL     1       8.784  11.638  22.119  0.00  0.00    +0.000 A 
ATOM     22  C   UNL     1       9.114  12.980  21.998  0.00  0.00    +0.000 A 
ATOM     23  F   UNL     1       8.932  13.804  23.037  0.00  0.00    +0.000 F 
ATOM     24  C   UNL     1       9.636  13.480  20.810  0.00  0.00    +0.000 A 
ATOM     25  C   UNL     1       9.823  12.623  19.723  0.00  0.00    +0.000 A 
ENDBRANCH  18  19
BRANCH  18  26
ATOM     26  O   UNL     1      10.200  10.997  17.510  0.00  0.00    +0.000 OA
ATOM     27  H   UNL     1      11.066  10.618  17.290  0.00  0.00    +0.000 HD
ENDBRANCH  18  26
ENDBRANCH  17  18
ENDBRANCH   3  17
TORSDOF 6
ENDMDL
MODEL 7
REMARK VINA RESULT:      -7.4      1.775      2.340
REMARK  Name = 
REMARK  6 active torsions:
REMARK  status: ('A' for Active; 'I' for Inactive)
REMARK    1  A    between atoms: C_2  and  C_14
REMARK    2  A    between atoms: N_3  and  C_4
REMARK    3  A    between atoms: C_4  and  C_5
REMARK    4  A    between atoms: C_5  and  O_6
REMARK    5  A    between atoms: C_5  and  C_7
REMARK    6  A    between atoms: N_17  and  C_18
REMARK                            x       y       z     vdW  Elec       q    Type
REMARK                         _______ _______ _______ _____ _____    ______ ____
ROOT
ATOM      1  O   UNL     1       7.712   5.690  17.226  0.00  0.00    +0.000 OA
ATOM      2  C   UNL     1       6.798   6.483  16.996  0.00  0.00    +0.000 C 
ATOM      3  N   UNL     1       6.852   7.800  17.399  0.00  0.00    +0.000 N 
ATOM      4  H   UNL     1       6.168   8.453  17.041  0.00  0.00    +0.000 HD
ENDROOT
BRANCH   2   5
ATOM      5  C   UNL     1       5.494   6.098  16.284  0.00  0.00    +0.000 C 
ATOM      6  C   UNL     1       4.257   6.744  16.904  0.00  0.00    +0.000 C 
ATOM      7  C   UNL     1       3.898   6.147  18.270  0.00  0.00    +0.000 C 
ATOM      8  N   UNL     1       3.794   4.665  18.311  0.00  0.00    +0.000 NA
ATOM      9  C   UNL     1       4.963   4.045  17.655  0.00  0.00    +0.000 C 
ATOM     10  C   UNL     1       5.262   4.590  16.257  0.00  0.00    +0.000 C 
BRANCH   8  11
ATOM     11  C   UNL     1       3.677   4.216  19.740  0.00  0.00    +0.000 C 
ATOM     12  C   UNL     1       2.534   4.915  20.516  0.00  0.00    +0.000 C 
ATOM     13  C   UNL     1       1.138   4.436  20.119  0.00  0.00    +0.000 C 
ATOM     14  C   UNL     1       0.989   2.920  20.200  0.00  0.00    +0.000 C 
ATOM     15  C   UNL     1       2.133   2.167  19.531  0.00  0.00    +0.000 C 
ATOM     16  C   UNL     1       3.499   2.692  19.961  0.00  0.00    +0.000 C 
ENDBRANCH   8  11
ENDBRANCH   2   5
BRANCH   3  17
ATOM     17  C   UNL     1       8.042   8.375  18.021  0.00  0.00    +0.000 C 
BRANCH  17  18
ATOM     18  C   UNL     1       8.391   9.769  17.452  0.00  0.00    +0.000 C 
BRANCH  18  19
ATOM     19  C   UNL     1       9.454  10.490  18.270  0.00  0.00    +0.000 A 
ATOM     20  C   UNL     1       9.361  10.496  19.674  0.00  0.00    +0.000 A 
ATOM     21  C   UNL     1      10.311  11.159  20.454  0.00  0.00    +0.000 A 
ATOM     22  C   UNL     1      11.365  11.817  19.836  0.00  0.00    +0.000 A 
ATOM     23  F   UNL     1      12.279  12.450  20.582  0.00  0.00    +0.000 F 
ATOM     24  C   UNL     1      11.487  11.822  18.451  0.00  0.00    +0.000 A 
ATOM     25  C   UNL     1      10.533  11.165  17.671  0.00  0.00    +0.000 A 
ENDBRANCH  18  19
BRANCH  18  26
ATOM     26  O   UNL     1       7.189  10.556  17.400  0.00  0.00    +0.000 OA
ATOM     27  H   UNL     1       7.405  11.457  17.690  0.00  0.00    +0.000 HD
ENDBRANCH  18  26
ENDBRANCH  17  18
ENDBRANCH   3  17
TORSDOF 6
ENDMDL
MODEL 8
REMARK VINA RESULT:      -7.4      5.316      7.678
REMARK  Name = 
REMARK  6 active torsions:
REMARK  status: ('A' for Active; 'I' for Inactive)
REMARK    1  A    between atoms: C_2  and  C_14
REMARK    2  A    between atoms: N_3  and  C_4
REMARK    3  A    between atoms: C_4  and  C_5
REMARK    4  A    between atoms: C_5  and  O_6
REMARK    5  A    between atoms: C_5  and  C_7
REMARK    6  A    between atoms: N_17  and  C_18
REMARK                            x       y       z     vdW  Elec       q    Type
REMARK                         _______ _______ _______ _____ _____    ______ ____
ROOT
ATOM      1  O   UNL     1       0.884   3.151  21.050  0.00  0.00    +0.000 OA
ATOM      2  C   UNL     1       1.701   3.440  20.176  0.00  0.00    +0.000 C 
ATOM      3  N   UNL     1       2.006   4.748  19.862  0.00  0.00    +0.000 N 
ATOM      4  H   UNL     1       2.801   4.939  19.268  0.00  0.00    +0.000 HD
ENDROOT
BRANCH   2   5
ATOM      5  C   UNL     1       2.434   2.401  19.316  0.00  0.00    +0.000 C 
ATOM      6  C   UNL     1       3.919   2.284  19.651  0.00  0.00    +0.000 C 
ATOM      7  C   UNL     1       4.729   3.502  19.190  0.00  0.00    +0.000 C 
ATOM      8  N   UNL     1       4.539   3.893  17.769  0.00  0.00    +0.000 NA
ATOM      9  C   UNL     1       3.102   3.945  17.433  0.00  0.00    +0.000 C 
ATOM     10  C   UNL     1       2.319   2.689  17.822  0.00  0.00    +0.000 C 
BRANCH   8  11
ATOM     11  C   UNL     1       5.198   5.222  17.529  0.00  0.00    +0.000 C 
ATOM     12  C   UNL     1       6.730   5.200  17.746  0.00  0.00    +0.000 C 
ATOM     13  C   UNL     1       7.499   4.478  16.640  0.00  0.00    +0.000 C 
ATOM     14  C   UNL     1       7.164   5.004  15.247  0.00  0.00    +0.000 C 
ATOM     15  C   UNL     1       5.666   5.137  14.999  0.00  0.00    +0.000 C 
ATOM     16  C   UNL     1       4.954   5.860  16.138  0.00  0.00    +0.000 C 
ENDBRANCH   8  11
ENDBRANCH   2   5
BRANCH   3  17
ATOM     17  C   UNL     1       1.471   5.875  20.621  0.00  0.00    +0.000 C 
BRANCH  17  18
ATOM     18  C   UNL     1       2.129   7.217  20.228  0.00  0.00    +0.000 C 
BRANCH  18  19
ATOM     19  C   UNL     1       1.301   8.425  20.646  0.00  0.00    +0.000 A 
ATOM     20  C   UNL     1       1.005   8.624  22.006  0.00  0.00    +0.000 A 
ATOM     21  C   UNL     1       0.238   9.715  22.422  0.00  0.00    +0.000 A 
ATOM     22  C   UNL     1      -0.235  10.618  21.481  0.00  0.00    +0.000 A 
ATOM     23  F   UNL     1      -0.969  11.665  21.878  0.00  0.00    +0.000 F 
ATOM     24  C   UNL     1       0.047  10.451  20.130  0.00  0.00    +0.000 A 
ATOM     25  C   UNL     1       0.809   9.357  19.713  0.00  0.00    +0.000 A 
ENDBRANCH  18  19
BRANCH  18  26
ATOM     26  O   UNL     1       2.334   7.227  18.805  0.00  0.00    +0.000 OA
ATOM     27  H   UNL     1       3.121   7.764  18.617  0.00  0.00    +0.000 HD
ENDBRANCH  18  26
ENDBRANCH  17  18
ENDBRANCH   3  17
TORSDOF 6
ENDMDL
MODEL 9
REMARK VINA RESULT:      -7.4      5.185      7.221
REMARK  Name = 
REMARK  6 active torsions:
REMARK  status: ('A' for Active; 'I' for Inactive)
REMARK    1  A    between atoms: C_2  and  C_14
REMARK    2  A    between atoms: N_3  and  C_4
REMARK    3  A    between atoms: C_4  and  C_5
REMARK    4  A    between atoms: C_5  and  O_6
REMARK    5  A    between atoms: C_5  and  C_7
REMARK    6  A    between atoms: N_17  and  C_18
REMARK                            x       y       z     vdW  Elec       q    Type
REMARK                         _______ _______ _______ _____ _____    ______ ____
ROOT
ATOM      1  O   UNL     1       1.071   2.734  21.000  0.00  0.00    +0.000 OA
ATOM      2  C   UNL     1       1.699   3.078  19.998  0.00  0.00    +0.000 C 
ATOM      3  N   UNL     1       1.755   4.392  19.585  0.00  0.00    +0.000 N 
ATOM      4  H   UNL     1       2.417   4.654  18.868  0.00  0.00    +0.000 HD
ENDROOT
BRANCH   2   5
ATOM      5  C   UNL     1       2.445   2.099  19.081  0.00  0.00    +0.000 C 
ATOM      6  C   UNL     1       3.922   1.948  19.439  0.00  0.00    +0.000 C 
ATOM      7  C   UNL     1       4.748   3.190  19.084  0.00  0.00    +0.000 C 
ATOM      8  N   UNL     1       4.592   3.685  17.693  0.00  0.00    +0.000 NA
ATOM      9  C   UNL     1       3.162   3.771  17.330  0.00  0.00    +0.000 C 
ATOM     10  C   UNL     1       2.365   2.495  17.610  0.00  0.00    +0.000 C 
BRANCH   8  11
ATOM     11  C   UNL     1       5.262   5.024  17.564  0.00  0.00    +0.000 C 
ATOM     12  C   UNL     1       6.806   4.951  17.647  0.00  0.00    +0.000 C 
ATOM     13  C   UNL     1       7.463   4.362  16.399  0.00  0.00    +0.000 C 
ATOM     14  C   UNL     1       7.029   5.064  15.115  0.00  0.00    +0.000 C 
ATOM     15  C   UNL     1       5.520   5.248  15.012  0.00  0.00    +0.000 C 
ATOM     16  C   UNL     1       4.921   5.834  16.287  0.00  0.00    +0.000 C 
ENDBRANCH   8  11
ENDBRANCH   2   5
BRANCH   3  17
ATOM     17  C   UNL     1       1.175   5.480  20.369  0.00  0.00    +0.000 C 
BRANCH  17  18
ATOM     18  C   UNL     1       2.166   6.645  20.586  0.00  0.00    +0.000 C 
BRANCH  18  19
ATOM     19  C   UNL     1       1.686   7.951  19.969  0.00  0.00    +0.000 A 
ATOM     20  C   UNL     1       0.942   8.854  20.751  0.00  0.00    +0.000 A 
ATOM     21  C   UNL     1       0.476  10.056  20.212  0.00  0.00    +0.000 A 
ATOM     22  C   UNL     1       0.754  10.366  18.888  0.00  0.00    +0.000 A 
ATOM     23  F   UNL     1       0.310  11.518  18.371  0.00  0.00    +0.000 F 
ATOM     24  C   UNL     1       1.492   9.497  18.094  0.00  0.00    +0.000 A 
ATOM     25  C   UNL     1       1.953   8.292  18.630  0.00  0.00    +0.000 A 
ENDBRANCH  18  19
BRANCH  18  26
ATOM     26  O   UNL     1       3.438   6.274  20.029  0.00  0.00    +0.000 OA
ATOM     27  H   UNL     1       3.277   5.715  19.252  0.00  0.00    +0.000 HD
ENDBRANCH  18  26
ENDBRANCH  17  18
ENDBRANCH   3  17
TORSDOF 6
ENDMDL
