MODEL 1
REMARK VINA RESULT:      -9.6      0.000      0.000
REMARK  Name = 
REMARK  3 active torsions:
REMARK  status: ('A' for Active; 'I' for Inactive)
REMARK    1  A    between atoms: C_2  and  C_21
REMARK    2  A    between atoms: C_7  and  S_8
REMARK    3  A    between atoms: S_8  and  N_11
REMARK                            x       y       z     vdW  Elec       q    Type
REMARK                         _______ _______ _______ _____ _____    ______ ____
ROOT
ATOM      1  O   UNL     1       7.622   9.884  17.661  0.00  0.00    +0.000 OA
ATOM      2  C   UNL     1       8.541   9.478  18.360  0.00  0.00    +0.000 C 
ATOM      3  N   UNL     1       8.707   8.203  18.856  0.00  0.00    +0.000 N 
ATOM      4  C   UNL     1       7.931   7.104  18.584  0.00  0.00    +0.000 A 
ATOM      5  N   UNL     1       8.067   5.970  19.242  0.00  0.00    +0.000 NA
ATOM      6  N   UNL     1       7.210   4.985  18.777  0.00  0.00    +0.000 NA
ATOM      7  C   UNL     1       6.498   5.427  17.760  0.00  0.00    +0.000 A 
ATOM      8  S   UNL     1       6.780   7.056  17.329  0.00  0.00    +0.000 S 
ATOM      9  H   UNL     1       9.399   8.037  19.573  0.00  0.00    +0.000 HD
ENDROOT
BRANCH   2  10
ATOM     10  C   UNL     1       9.584  10.449  18.806  0.00  0.00    +0.000 A 
ATOM     11  C   UNL     1       9.624  10.829  20.152  0.00  0.00    +0.000 A 
ATOM     12  C   UNL     1      10.606  11.714  20.602  0.00  0.00    +0.000 A 
ATOM     13  C   UNL     1      11.536  12.240  19.704  0.00  0.00    +0.000 A 
ATOM     14  C   UNL     1      11.484  11.886  18.356  0.00  0.00    +0.000 A 
ATOM     15  C   UNL     1      10.508  10.994  17.903  0.00  0.00    +0.000 A 
ENDBRANCH   2  10
BRANCH   7  16
ATOM     16  S   UNL     1       5.326   4.509  16.812  0.00  0.00    +0.000 S 
ATOM     17  O   UNL     1       4.603   5.514  16.054  0.00  0.00    +0.000 OA
ATOM     18  O   UNL     1       6.116   3.503  16.129  0.00  0.00    +0.000 OA
BRANCH  16  19
ATOM     19  N   UNL     1       4.215   3.749  17.803  0.00  0.00    +0.000 N 
ATOM     20  C   UNL     1       3.796   2.355  17.540  0.00  0.00    +0.000 C 
ATOM     21  C   UNL     1       2.502   2.140  18.351  0.00  0.00    +0.000 C 
ATOM     22  C   UNL     1       2.320   3.447  19.055  0.00  0.00    +0.000 A 
ATOM     23  C   UNL     1       1.373   3.756  20.020  0.00  0.00    +0.000 A 
ATOM     24  C   UNL     1       1.369   5.046  20.551  0.00  0.00    +0.000 A 
ATOM     25  C   UNL     1       2.293   6.002  20.103  0.00  0.00    +0.000 A 
ATOM     26  C   UNL     1       3.254   5.673  19.140  0.00  0.00    +0.000 A 
ATOM     27  C   UNL     1       3.258   4.389  18.629  0.00  0.00    +0.000 A 
ENDBRANCH  16  19
ENDBRANCH   7  16
TORSDOF 3
ENDMDL
MODEL 2
REMARK VINA RESULT:      -9.1      0.923      2.090
REMARK  Name = 
REMARK  3 active torsions:
REMARK  status: ('A' for Active; 'I' for Inactive)
REMARK    1  A    between atoms: C_2  and  C_21
REMARK    2  A    between atoms: C_7  and  S_8
REMARK    3  A    between atoms: S_8  and  N_11
REMARK                            x       y       z     vdW  Elec       q    Type
REMARK                         _______ _______ _______ _____ _____    ______ ____
ROOT
ATOM      1  O   UNL     1       7.946  10.501  17.747  0.00  0.00    +0.000 OA
ATOM      2  C   UNL     1       8.842  10.010  18.423  0.00  0.00    +0.000 C 
ATOM      3  N   UNL     1       8.959   8.695  18.819  0.00  0.00    +0.000 N 
ATOM      4  C   UNL     1       8.151   7.648  18.452  0.00  0.00    +0.000 A 
ATOM      5  N   UNL     1       8.239   6.462  19.021  0.00  0.00    +0.000 NA
ATOM      6  N   UNL     1       7.357   5.546  18.471  0.00  0.00    +0.000 NA
ATOM      7  C   UNL     1       6.675   6.090  17.483  0.00  0.00    +0.000 A 
ATOM      8  S   UNL     1       7.017   7.737  17.185  0.00  0.00    +0.000 S 
ATOM      9  H   UNL     1       9.634   8.451  19.529  0.00  0.00    +0.000 HD
ENDROOT
BRANCH   2  10
ATOM     10  C   UNL     1       9.910  10.908  18.956  0.00  0.00    +0.000 A 
ATOM     11  C   UNL     1      10.904  11.367  18.086  0.00  0.00    +0.000 A 
ATOM     12  C   UNL     1      11.899  12.229  18.550  0.00  0.00    +0.000 A 
ATOM     13  C   UNL     1      11.916  12.617  19.891  0.00  0.00    +0.000 A 
ATOM     14  C   UNL     1      10.943  12.141  20.770  0.00  0.00    +0.000 A 
ATOM     15  C   UNL     1       9.941  11.284  20.307  0.00  0.00    +0.000 A 
ENDBRANCH   2  10
BRANCH   7  16
ATOM     16  S   UNL     1       5.487   5.289  16.452  0.00  0.00    +0.000 S 
ATOM     17  O   UNL     1       5.411   6.125  15.267  0.00  0.00    +0.000 OA
ATOM     18  O   UNL     1       5.952   3.919  16.354  0.00  0.00    +0.000 OA
BRANCH  16  19
ATOM     19  N   UNL     1       3.973   5.302  17.160  0.00  0.00    +0.000 N 
ATOM     20  C   UNL     1       3.399   6.555  17.696  0.00  0.00    +0.000 C 
ATOM     21  C   UNL     1       2.238   6.132  18.618  0.00  0.00    +0.000 C 
ATOM     22  C   UNL     1       2.227   4.642  18.487  0.00  0.00    +0.000 A 
ATOM     23  C   UNL     1       1.293   3.760  19.012  0.00  0.00    +0.000 A 
ATOM     24  C   UNL     1       1.469   2.396  18.778  0.00  0.00    +0.000 A 
ATOM     25  C   UNL     1       2.573   1.938  18.043  0.00  0.00    +0.000 A 
ATOM     26  C   UNL     1       3.499   2.839  17.505  0.00  0.00    +0.000 A 
ATOM     27  C   UNL     1       3.309   4.189  17.732  0.00  0.00    +0.000 A 
ENDBRANCH  16  19
ENDBRANCH   7  16
TORSDOF 3
ENDMDL
MODEL 3
REMARK VINA RESULT:      -8.7      0.980      1.597
REMARK  Name = 
REMARK  3 active torsions:
REMARK  status: ('A' for Active; 'I' for Inactive)
REMARK    1  A    between atoms: C_2  and  C_21
REMARK    2  A    between atoms: C_7  and  S_8
REMARK    3  A    between atoms: S_8  and  N_11
REMARK                            x       y       z     vdW  Elec       q    Type
REMARK                         _______ _______ _______ _____ _____    ______ ____
ROOT
ATOM      1  O   UNL     1       7.686  10.185  17.787  0.00  0.00    +0.000 OA
ATOM      2  C   UNL     1       8.660   9.737  18.379  0.00  0.00    +0.000 C 
ATOM      3  N   UNL     1       8.849   8.441  18.806  0.00  0.00    +0.000 N 
ATOM      4  C   UNL     1       8.032   7.365  18.566  0.00  0.00    +0.000 A 
ATOM      5  N   UNL     1       8.209   6.204  19.163  0.00  0.00    +0.000 NA
ATOM      6  N   UNL     1       7.294   5.251  18.744  0.00  0.00    +0.000 NA
ATOM      7  C   UNL     1       6.497   5.743  17.817  0.00  0.00    +0.000 A 
ATOM      8  S   UNL     1       6.767   7.385  17.426  0.00  0.00    +0.000 S 
ATOM      9  H   UNL     1       9.603   8.237  19.447  0.00  0.00    +0.000 HD
ENDROOT
BRANCH   2  10
ATOM     10  C   UNL     1       9.758  10.675  18.762  0.00  0.00    +0.000 A 
ATOM     11  C   UNL     1       9.919  11.013  20.110  0.00  0.00    +0.000 A 
ATOM     12  C   UNL     1      10.954  11.866  20.499  0.00  0.00    +0.000 A 
ATOM     13  C   UNL     1      11.816  12.401  19.541  0.00  0.00    +0.000 A 
ATOM     14  C   UNL     1      11.643  12.088  18.192  0.00  0.00    +0.000 A 
ATOM     15  C   UNL     1      10.614  11.229  17.799  0.00  0.00    +0.000 A 
ENDBRANCH   2  10
BRANCH   7  16
ATOM     16  S   UNL     1       5.226   4.882  16.949  0.00  0.00    +0.000 S 
ATOM     17  O   UNL     1       4.926   5.726  15.807  0.00  0.00    +0.000 OA
ATOM     18  O   UNL     1       5.756   3.546  16.754  0.00  0.00    +0.000 OA
BRANCH  16  19
ATOM     19  N   UNL     1       3.831   4.786  17.866  0.00  0.00    +0.000 N 
ATOM     20  C   UNL     1       2.800   5.844  17.788  0.00  0.00    +0.000 C 
ATOM     21  C   UNL     1       1.905   5.658  19.029  0.00  0.00    +0.000 C 
ATOM     22  C   UNL     1       2.493   4.456  19.696  0.00  0.00    +0.000 A 
ATOM     23  C   UNL     1       1.991   3.775  20.796  0.00  0.00    +0.000 A 
ATOM     24  C   UNL     1       2.700   2.672  21.270  0.00  0.00    +0.000 A 
ATOM     25  C   UNL     1       3.898   2.279  20.653  0.00  0.00    +0.000 A 
ATOM     26  C   UNL     1       4.386   2.964  19.534  0.00  0.00    +0.000 A 
ATOM     27  C   UNL     1       3.669   4.048  19.064  0.00  0.00    +0.000 A 
ENDBRANCH  16  19
ENDBRANCH   7  16
TORSDOF 3
ENDMDL
MODEL 4
REMARK VINA RESULT:      -8.3      4.076      7.228
REMARK  Name = 
REMARK  3 active torsions:
REMARK  status: ('A' for Active; 'I' for Inactive)
REMARK    1  A    between atoms: C_2  and  C_21
REMARK    2  A    between atoms: C_7  and  S_8
REMARK    3  A    between atoms: S_8  and  N_11
REMARK                            x       y       z     vdW  Elec       q    Type
REMARK                         _______ _______ _______ _____ _____    ______ ____
ROOT
ATOM      1  O   UNL     1       1.930   8.461  19.259  0.00  0.00    +0.000 OA
ATOM      2  C   UNL     1       1.406   8.248  20.346  0.00  0.00    +0.000 C 
ATOM      3  N   UNL     1       1.351   7.048  21.021  0.00  0.00    +0.000 N 
ATOM      4  C   UNL     1       1.959   5.871  20.662  0.00  0.00    +0.000 A 
ATOM      5  N   UNL     1       1.705   4.735  21.279  0.00  0.00    +0.000 NA
ATOM      6  N   UNL     1       2.457   3.683  20.780  0.00  0.00    +0.000 NA
ATOM      7  C   UNL     1       3.270   4.100  19.831  0.00  0.00    +0.000 A 
ATOM      8  S   UNL     1       3.153   5.762  19.452  0.00  0.00    +0.000 S 
ATOM      9  H   UNL     1       0.732   6.954  21.813  0.00  0.00    +0.000 HD
ENDROOT
BRANCH   2  10
ATOM     10  C   UNL     1       0.678   9.364  21.020  0.00  0.00    +0.000 A 
ATOM     11  C   UNL     1       0.106   9.138  22.276  0.00  0.00    +0.000 A 
ATOM     12  C   UNL     1      -0.557  10.171  22.941  0.00  0.00    +0.000 A 
ATOM     13  C   UNL     1      -0.670  11.427  22.343  0.00  0.00    +0.000 A 
ATOM     14  C   UNL     1      -0.125  11.651  21.079  0.00  0.00    +0.000 A 
ATOM     15  C   UNL     1       0.547  10.622  20.413  0.00  0.00    +0.000 A 
ENDBRANCH   2  10
BRANCH   7  16
ATOM     16  S   UNL     1       4.456   3.131  18.954  0.00  0.00    +0.000 S 
ATOM     17  O   UNL     1       5.067   2.294  19.970  0.00  0.00    +0.000 OA
ATOM     18  O   UNL     1       3.707   2.534  17.864  0.00  0.00    +0.000 OA
BRANCH  16  19
ATOM     19  N   UNL     1       5.667   4.095  18.319  0.00  0.00    +0.000 N 
ATOM     20  C   UNL     1       6.294   5.156  19.136  0.00  0.00    +0.000 C 
ATOM     21  C   UNL     1       7.024   6.082  18.142  0.00  0.00    +0.000 C 
ATOM     22  C   UNL     1       6.777   5.424  16.821  0.00  0.00    +0.000 A 
ATOM     23  C   UNL     1       7.321   5.776  15.594  0.00  0.00    +0.000 A 
ATOM     24  C   UNL     1       6.955   5.031  14.473  0.00  0.00    +0.000 A 
ATOM     25  C   UNL     1       6.048   3.967  14.592  0.00  0.00    +0.000 A 
ATOM     26  C   UNL     1       5.519   3.612  15.838  0.00  0.00    +0.000 A 
ATOM     27  C   UNL     1       5.898   4.348  16.945  0.00  0.00    +0.000 A 
ENDBRANCH  16  19
ENDBRANCH   7  16
TORSDOF 3
ENDMDL
MODEL 5
REMARK VINA RESULT:      -8.2      6.575      9.661
REMARK  Name = 
REMARK  3 active torsions:
REMARK  status: ('A' for Active; 'I' for Inactive)
REMARK    1  A    between atoms: C_2  and  C_21
REMARK    2  A    between atoms: C_7  and  S_8
REMARK    3  A    between atoms: S_8  and  N_11
REMARK                            x       y       z     vdW  Elec       q    Type
REMARK                         _______ _______ _______ _____ _____    ______ ____
ROOT
ATOM      1  O   UNL     1       2.579   7.316  18.892  0.00  0.00    +0.000 OA
ATOM      2  C   UNL     1       2.203   6.773  19.923  0.00  0.00    +0.000 C 
ATOM      3  N   UNL     1       1.602   7.373  21.008  0.00  0.00    +0.000 N 
ATOM      4  C   UNL     1       1.209   8.684  21.112  0.00  0.00    +0.000 A 
ATOM      5  N   UNL     1       0.802   9.205  22.252  0.00  0.00    +0.000 NA
ATOM      6  N   UNL     1       0.418  10.529  22.120  0.00  0.00    +0.000 NA
ATOM      7  C   UNL     1       0.523  10.923  20.867  0.00  0.00    +0.000 A 
ATOM      8  S   UNL     1       1.127   9.747  19.784  0.00  0.00    +0.000 S 
ATOM      9  H   UNL     1       1.511   6.857  21.872  0.00  0.00    +0.000 HD
ENDROOT
BRANCH   2  10
ATOM     10  C   UNL     1       2.464   5.312  20.098  0.00  0.00    +0.000 A 
ATOM     11  C   UNL     1       3.608   4.755  19.517  0.00  0.00    +0.000 A 
ATOM     12  C   UNL     1       3.891   3.399  19.687  0.00  0.00    +0.000 A 
ATOM     13  C   UNL     1       3.022   2.591  20.421  0.00  0.00    +0.000 A 
ATOM     14  C   UNL     1       1.866   3.135  20.981  0.00  0.00    +0.000 A 
ATOM     15  C   UNL     1       1.583   4.494  20.819  0.00  0.00    +0.000 A 
ENDBRANCH   2  10
BRANCH   7  16
ATOM     16  S   UNL     1       0.087  12.504  20.215  0.00  0.00    +0.000 S 
ATOM     17  O   UNL     1       0.197  13.408  21.346  0.00  0.00    +0.000 OA
ATOM     18  O   UNL     1       0.944  12.671  19.057  0.00  0.00    +0.000 OA
BRANCH  16  19
ATOM     19  N   UNL     1      -1.510  12.530  19.720  0.00  0.00    +0.000 N 
ATOM     20  C   UNL     1      -2.556  13.136  20.572  0.00  0.00    +0.000 C 
ATOM     21  C   UNL     1      -3.902  12.618  20.027  0.00  0.00    +0.000 C 
ATOM     22  C   UNL     1      -3.494  11.778  18.858  0.00  0.00    +0.000 A 
ATOM     23  C   UNL     1      -4.327  11.173  17.927  0.00  0.00    +0.000 A 
ATOM     24  C   UNL     1      -3.741  10.422  16.908  0.00  0.00    +0.000 A 
ATOM     25  C   UNL     1      -2.348  10.275  16.845  0.00  0.00    +0.000 A 
ATOM     26  C   UNL     1      -1.518  10.903  17.780  0.00  0.00    +0.000 A 
ATOM     27  C   UNL     1      -2.106  11.656  18.778  0.00  0.00    +0.000 A 
ENDBRANCH  16  19
ENDBRANCH   7  16
TORSDOF 3
ENDMDL
MODEL 6
REMARK VINA RESULT:      -8.1      4.266      6.781
REMARK  Name = 
REMARK  3 active torsions:
REMARK  status: ('A' for Active; 'I' for Inactive)
REMARK    1  A    between atoms: C_2  and  C_21
REMARK    2  A    between atoms: C_7  and  S_8
REMARK    3  A    between atoms: S_8  and  N_11
REMARK                            x       y       z     vdW  Elec       q    Type
REMARK                         _______ _______ _______ _____ _____    ______ ____
ROOT
ATOM      1  O   UNL     1       1.977   9.162  17.301  0.00  0.00    +0.000 OA
ATOM      2  C   UNL     1       1.642   9.484  18.434  0.00  0.00    +0.000 C 
ATOM      3  N   UNL     1       1.580   8.670  19.545  0.00  0.00    +0.000 N 
ATOM      4  C   UNL     1       1.977   7.360  19.630  0.00  0.00    +0.000 A 
ATOM      5  N   UNL     1       1.716   6.617  20.687  0.00  0.00    +0.000 NA
ATOM      6  N   UNL     1       2.243   5.339  20.576  0.00  0.00    +0.000 NA
ATOM      7  C   UNL     1       2.910   5.205  19.448  0.00  0.00    +0.000 A 
ATOM      8  S   UNL     1       2.909   6.582  18.436  0.00  0.00    +0.000 S 
ATOM      9  H   UNL     1       1.109   9.002  20.375  0.00  0.00    +0.000 HD
ENDROOT
BRANCH   2  10
ATOM     10  C   UNL     1       1.177  10.883  18.673  0.00  0.00    +0.000 A 
ATOM     11  C   UNL     1       2.045  11.943  18.384  0.00  0.00    +0.000 A 
ATOM     12  C   UNL     1       1.627  13.261  18.572  0.00  0.00    +0.000 A 
ATOM     13  C   UNL     1       0.350  13.525  19.069  0.00  0.00    +0.000 A 
ATOM     14  C   UNL     1      -0.510  12.472  19.383  0.00  0.00    +0.000 A 
ATOM     15  C   UNL     1      -0.099  11.151  19.189  0.00  0.00    +0.000 A 
ENDBRANCH   2  10
BRANCH   7  16
ATOM     16  S   UNL     1       3.800   3.780  18.909  0.00  0.00    +0.000 S 
ATOM     17  O   UNL     1       4.042   3.020  20.122  0.00  0.00    +0.000 OA
ATOM     18  O   UNL     1       2.988   3.223  17.844  0.00  0.00    +0.000 OA
BRANCH  16  19
ATOM     19  N   UNL     1       5.294   4.204  18.290  0.00  0.00    +0.000 N 
ATOM     20  C   UNL     1       6.312   4.848  19.147  0.00  0.00    +0.000 C 
ATOM     21  C   UNL     1       7.350   5.463  18.187  0.00  0.00    +0.000 C 
ATOM     22  C   UNL     1       6.840   5.067  16.838  0.00  0.00    +0.000 A 
ATOM     23  C   UNL     1       7.468   5.255  15.615  0.00  0.00    +0.000 A 
ATOM     24  C   UNL     1       6.816   4.814  14.463  0.00  0.00    +0.000 A 
ATOM     25  C   UNL     1       5.551   4.213  14.549  0.00  0.00    +0.000 A 
ATOM     26  C   UNL     1       4.936   4.014  15.791  0.00  0.00    +0.000 A 
ATOM     27  C   UNL     1       5.596   4.443  16.927  0.00  0.00    +0.000 A 
ENDBRANCH  16  19
ENDBRANCH   7  16
TORSDOF 3
ENDMDL
MODEL 7
REMARK VINA RESULT:      -8.0      3.794      7.190
REMARK  Name = 
REMARK  3 active torsions:
REMARK  status: ('A' for Active; 'I' for Inactive)
REMARK    1  A    between atoms: C_2  and  C_21
REMARK    2  A    between atoms: C_7  and  S_8
REMARK    3  A    between atoms: S_8  and  N_11
REMARK                            x       y       z     vdW  Elec       q    Type
REMARK                         _______ _______ _______ _____ _____    ______ ____
ROOT
ATOM      1  O   UNL     1       1.683   8.482  19.416  0.00  0.00    +0.000 OA
ATOM      2  C   UNL     1       1.221   8.224  20.521  0.00  0.00    +0.000 C 
ATOM      3  N   UNL     1       1.193   6.996  21.144  0.00  0.00    +0.000 N 
ATOM      4  C   UNL     1       1.767   5.832  20.700  0.00  0.00    +0.000 A 
ATOM      5  N   UNL     1       1.537   4.671  21.280  0.00  0.00    +0.000 NA
ATOM      6  N   UNL     1       2.249   3.637  20.692  0.00  0.00    +0.000 NA
ATOM      7  C   UNL     1       3.011   4.090  19.717  0.00  0.00    +0.000 A 
ATOM      8  S   UNL     1       2.889   5.768  19.419  0.00  0.00    +0.000 S 
ATOM      9  H   UNL     1       0.619   6.871  21.966  0.00  0.00    +0.000 HD
ENDROOT
BRANCH   2  10
ATOM     10  C   UNL     1       0.543   9.315  21.284  0.00  0.00    +0.000 A 
ATOM     11  C   UNL     1       0.606  10.624  20.794  0.00  0.00    +0.000 A 
ATOM     12  C   UNL     1      -0.041  11.658  21.473  0.00  0.00    +0.000 A 
ATOM     13  C   UNL     1      -0.735  11.391  22.655  0.00  0.00    +0.000 A 
ATOM     14  C   UNL     1      -0.778  10.092  23.162  0.00  0.00    +0.000 A 
ATOM     15  C   UNL     1      -0.138   9.053  22.482  0.00  0.00    +0.000 A 
ENDBRANCH   2  10
BRANCH   7  16
ATOM     16  S   UNL     1       4.135   3.153  18.731  0.00  0.00    +0.000 S 
ATOM     17  O   UNL     1       5.178   2.743  19.655  0.00  0.00    +0.000 OA
ATOM     18  O   UNL     1       3.306   2.160  18.074  0.00  0.00    +0.000 OA
BRANCH  16  19
ATOM     19  N   UNL     1       4.859   4.113  17.569  0.00  0.00    +0.000 N 
ATOM     20  C   UNL     1       4.722   3.794  16.131  0.00  0.00    +0.000 C 
ATOM     21  C   UNL     1       5.823   4.596  15.410  0.00  0.00    +0.000 C 
ATOM     22  C   UNL     1       6.476   5.353  16.523  0.00  0.00    +0.000 A 
ATOM     23  C   UNL     1       7.454   6.331  16.413  0.00  0.00    +0.000 A 
ATOM     24  C   UNL     1       7.938   6.914  17.584  0.00  0.00    +0.000 A 
ATOM     25  C   UNL     1       7.454   6.504  18.835  0.00  0.00    +0.000 A 
ATOM     26  C   UNL     1       6.456   5.528  18.932  0.00  0.00    +0.000 A 
ATOM     27  C   UNL     1       5.973   4.965  17.766  0.00  0.00    +0.000 A 
ENDBRANCH  16  19
ENDBRANCH   7  16
TORSDOF 3
ENDMDL
MODEL 8
REMARK VINA RESULT:      -7.9      4.683      7.733
REMARK  Name = 
REMARK  3 active torsions:
REMARK  status: ('A' for Active; 'I' for Inactive)
REMARK    1  A    between atoms: C_2  and  C_21
REMARK    2  A    between atoms: C_7  and  S_8
REMARK    3  A    between atoms: S_8  and  N_11
REMARK                            x       y       z     vdW  Elec       q    Type
REMARK                         _______ _______ _______ _____ _____    ______ ____
ROOT
ATOM      1  O   UNL     1       0.874   8.643  22.200  0.00  0.00    +0.000 OA
ATOM      2  C   UNL     1       0.588   9.389  21.273  0.00  0.00    +0.000 C 
ATOM      3  N   UNL     1       1.018   9.295  19.967  0.00  0.00    +0.000 N 
ATOM      4  C   UNL     1       1.771   8.288  19.417  0.00  0.00    +0.000 A 
ATOM      5  N   UNL     1       2.278   8.375  18.204  0.00  0.00    +0.000 NA
ATOM      6  N   UNL     1       2.970   7.231  17.838  0.00  0.00    +0.000 NA
ATOM      7  C   UNL     1       2.911   6.324  18.792  0.00  0.00    +0.000 A 
ATOM      8  S   UNL     1       2.064   6.802  20.197  0.00  0.00    +0.000 S 
ATOM      9  H   UNL     1       0.869  10.072  19.340  0.00  0.00    +0.000 HD
ENDROOT
BRANCH   2  10
ATOM     10  C   UNL     1      -0.262  10.585  21.553  0.00  0.00    +0.000 A 
ATOM     11  C   UNL     1      -0.474  11.518  20.532  0.00  0.00    +0.000 A 
ATOM     12  C   UNL     1      -1.287  12.631  20.758  0.00  0.00    +0.000 A 
ATOM     13  C   UNL     1      -1.872  12.825  22.010  0.00  0.00    +0.000 A 
ATOM     14  C   UNL     1      -1.643  11.912  23.039  0.00  0.00    +0.000 A 
ATOM     15  C   UNL     1      -0.836  10.793  22.815  0.00  0.00    +0.000 A 
ENDBRANCH   2  10
BRANCH   7  16
ATOM     16  S   UNL     1       3.589   4.696  18.746  0.00  0.00    +0.000 S 
ATOM     17  O   UNL     1       3.648   4.286  20.138  0.00  0.00    +0.000 OA
ATOM     18  O   UNL     1       2.752   3.977  17.804  0.00  0.00    +0.000 OA
BRANCH  16  19
ATOM     19  N   UNL     1       5.160   4.716  18.174  0.00  0.00    +0.000 N 
ATOM     20  C   UNL     1       6.271   5.183  19.031  0.00  0.00    +0.000 C 
ATOM     21  C   UNL     1       7.453   5.462  18.081  0.00  0.00    +0.000 C 
ATOM     22  C   UNL     1       6.910   5.078  16.742  0.00  0.00    +0.000 A 
ATOM     23  C   UNL     1       7.604   5.013  15.542  0.00  0.00    +0.000 A 
ATOM     24  C   UNL     1       6.906   4.634  14.396  0.00  0.00    +0.000 A 
ATOM     25  C   UNL     1       5.535   4.344  14.462  0.00  0.00    +0.000 A 
ATOM     26  C   UNL     1       4.849   4.398  15.682  0.00  0.00    +0.000 A 
ATOM     27  C   UNL     1       5.553   4.762  16.814  0.00  0.00    +0.000 A 
ENDBRANCH  16  19
ENDBRANCH   7  16
TORSDOF 3
ENDMDL
MODEL 9
REMARK VINA RESULT:      -7.9      7.406     10.209
REMARK  Name = 
REMARK  3 active torsions:
REMARK  status: ('A' for Active; 'I' for Inactive)
REMARK    1  A    between atoms: C_2  and  C_21
REMARK    2  A    between atoms: C_7  and  S_8
REMARK    3  A    between atoms: S_8  and  N_11
REMARK                            x       y       z     vdW  Elec       q    Type
REMARK                         _______ _______ _______ _____ _____    ______ ____
ROOT
ATOM      1  O   UNL     1       2.246   7.678  18.967  0.00  0.00    +0.000 OA
ATOM      2  C   UNL     1       2.128   7.055  20.015  0.00  0.00    +0.000 C 
ATOM      3  N   UNL     1       1.672   7.539  21.223  0.00  0.00    +0.000 N 
ATOM      4  C   UNL     1       1.163   8.789  21.471  0.00  0.00    +0.000 A 
ATOM      5  N   UNL     1       0.917   9.214  22.694  0.00  0.00    +0.000 NA
ATOM      6  N   UNL     1       0.371  10.488  22.710  0.00  0.00    +0.000 NA
ATOM      7  C   UNL     1       0.201  10.938  21.483  0.00  0.00    +0.000 A 
ATOM      8  S   UNL     1       0.722   9.883  20.244  0.00  0.00    +0.000 S 
ATOM      9  H   UNL     1       1.799   6.984  22.057  0.00  0.00    +0.000 HD
ENDROOT
BRANCH   2  10
ATOM     10  C   UNL     1       2.576   5.631  20.056  0.00  0.00    +0.000 A 
ATOM     11  C   UNL     1       3.706   5.256  19.321  0.00  0.00    +0.000 A 
ATOM     12  C   UNL     1       4.163   3.938  19.363  0.00  0.00    +0.000 A 
ATOM     13  C   UNL     1       3.480   2.985  20.120  0.00  0.00    +0.000 A 
ATOM     14  C   UNL     1       2.337   3.347  20.832  0.00  0.00    +0.000 A 
ATOM     15  C   UNL     1       1.880   4.667  20.800  0.00  0.00    +0.000 A 
ENDBRANCH   2  10
BRANCH   7  16
ATOM     16  S   UNL     1      -0.518  12.479  21.013  0.00  0.00    +0.000 S 
ATOM     17  O   UNL     1      -0.141  13.397  22.073  0.00  0.00    +0.000 OA
ATOM     18  O   UNL     1      -0.058  12.698  19.655  0.00  0.00    +0.000 OA
BRANCH  16  19
ATOM     19  N   UNL     1      -2.188  12.388  21.014  0.00  0.00    +0.000 N 
ATOM     20  C   UNL     1      -2.952  12.499  19.753  0.00  0.00    +0.000 C 
ATOM     21  C   UNL     1      -4.409  12.794  20.163  0.00  0.00    +0.000 C 
ATOM     22  C   UNL     1      -4.351  12.781  21.657  0.00  0.00    +0.000 A 
ATOM     23  C   UNL     1      -5.418  12.867  22.540  0.00  0.00    +0.000 A 
ATOM     24  C   UNL     1      -5.146  12.841  23.908  0.00  0.00    +0.000 A 
ATOM     25  C   UNL     1      -3.824  12.748  24.368  0.00  0.00    +0.000 A 
ATOM     26  C   UNL     1      -2.758  12.646  23.467  0.00  0.00    +0.000 A 
ATOM     27  C   UNL     1      -3.038  12.658  22.114  0.00  0.00    +0.000 A 
ENDBRANCH  16  19
ENDBRANCH   7  16
TORSDOF 3
ENDMDL
