MODEL 1
REMARK VINA RESULT:      -7.4      0.000      0.000
REMARK  Name = 
REMARK  17 active torsions:
REMARK  status: ('A' for Active; 'I' for Inactive)
REMARK    1  A    between atoms: C_1  and  C_2
REMARK    2  A    between atoms: C_2  and  C_3
REMARK    3  A    between atoms: C_3  and  C_4
REMARK    4  A    between atoms: C_4  and  C_5
REMARK    5  A    between atoms: C_5  and  C_6
REMARK    6  A    between atoms: C_6  and  O_7
REMARK    7  A    between atoms: O_7  and  C_8
REMARK    8  A    between atoms: C_10  and  N_11
REMARK    9  A    between atoms: C_12  and  C_14
REMARK   10  A    between atoms: C_17  and  O_18
REMARK   11  A    between atoms: O_18  and  C_19
REMARK   12  A    between atoms: C_20  and  O_21
REMARK   13  A    between atoms: O_21  and  C_22
REMARK   14  A    between atoms: C_26  and  N_27
REMARK   15  A    between atoms: N_27  and  C_28
REMARK   16  A    between atoms: N_27  and  S_29
REMARK   17  A    between atoms: S_29  and  C_30
REMARK                            x       y       z     vdW  Elec       q    Type
REMARK                         _______ _______ _______ _____ _____    ______ ____
ROOT
ATOM      1  C   UNL     1       3.603   5.496  17.936  0.00  0.00    +0.000 A 
ATOM      2  C   UNL     1       2.572   6.419  18.252  0.00  0.00    +0.000 A 
ATOM      3  C   UNL     1       2.637   7.764  17.864  0.00  0.00    +0.000 A 
ATOM      4  C   UNL     1       3.761   8.196  17.163  0.00  0.00    +0.000 A 
ATOM      5  C   UNL     1       4.816   7.311  16.895  0.00  0.00    +0.000 A 
ATOM      6  C   UNL     1       4.743   5.952  17.242  0.00  0.00    +0.000 A 
ENDROOT
BRANCH   3   7
ATOM      7  N   UNL     1       1.595   8.696  18.114  0.00  0.00    +0.000 N 
ATOM      8  C   UNL     1       1.164   9.041  19.391  0.00  0.00    +0.000 C 
ATOM      9  O   UNL     1       1.673   8.642  20.433  0.00  0.00    +0.000 OA
ATOM     10  H   UNL     1       1.414   9.382  17.391  0.00  0.00    +0.000 HD
BRANCH   8  11
ATOM     11  C   UNL     1       0.062  10.058  19.472  0.00  0.00    +0.000 A 
ATOM     12  C   UNL     1      -0.203  10.668  20.699  0.00  0.00    +0.000 A 
ATOM     13  C   UNL     1      -1.274  11.558  20.820  0.00  0.00    +0.000 A 
ATOM     14  C   UNL     1      -2.112  11.846  19.730  0.00  0.00    +0.000 A 
ATOM     15  C   UNL     1      -1.857  11.224  18.495  0.00  0.00    +0.000 A 
ATOM     16  C   UNL     1      -0.768  10.338  18.375  0.00  0.00    +0.000 A 
BRANCH  14  17
ATOM     17  O   UNL     1      -3.108  12.727  20.066  0.00  0.00    +0.000 OA
ATOM     18  C   UNL     1      -3.361  13.016  21.433  0.00  0.00    +0.000 C 
ENDBRANCH  14  17
BRANCH  15  19
ATOM     19  O   UNL     1      -2.706  11.510  17.453  0.00  0.00    +0.000 OA
ATOM     20  C   UNL     1      -3.785  10.626  17.186  0.00  0.00    +0.000 C 
ENDBRANCH  15  19
ENDBRANCH   8  11
ENDBRANCH   3   7
BRANCH   6  21
ATOM     21  N   UNL     1       5.857   5.108  16.880  0.00  0.00    +0.000 N 
ATOM     22  C   UNL     1       5.699   4.122  15.800  0.00  0.00    +0.000 C 
BRANCH  21  23
ATOM     23  S   UNL     1       7.144   4.904  17.959  0.00  0.00    +0.000 S 
ATOM     24  C   UNL     1       7.731   6.571  18.241  0.00  0.00    +0.000 C 
ATOM     25  O   UNL     1       6.584   4.451  19.217  0.00  0.00    +0.000 OA
ATOM     26  O   UNL     1       8.207   4.174  17.310  0.00  0.00    +0.000 OA
ENDBRANCH  21  23
ENDBRANCH   6  21
BRANCH   1  27
ATOM     27  O   UNL     1       3.298   4.219  18.353  0.00  0.00    +0.000 OA
BRANCH  27  28
ATOM     28  C   UNL     1       2.599   3.348  17.467  0.00  0.00    +0.000 C 
BRANCH  28  29
ATOM     29  C   UNL     1       1.941   2.216  18.271  0.00  0.00    +0.000 C 
BRANCH  29  30
ATOM     30  C   UNL     1       0.580   2.658  18.823  0.00  0.00    +0.000 C 
BRANCH  30  31
ATOM     31  C   UNL     1       0.690   3.515  20.090  0.00  0.00    +0.000 C 
BRANCH  31  33
ATOM     32  C   UNL     1       2.638   3.158  21.675  0.00  0.00    +0.000 C 
ATOM     33  C   UNL     1       1.250   2.696  21.259  0.00  0.00    +0.000 C 
ENDBRANCH  31  33
ENDBRANCH  30  31
ENDBRANCH  29  30
ENDBRANCH  28  29
ENDBRANCH  27  28
ENDBRANCH   1  27
TORSDOF 12
ENDMDL
MODEL 2
REMARK VINA RESULT:      -7.4      1.354      2.247
REMARK  Name = 
REMARK  17 active torsions:
REMARK  status: ('A' for Active; 'I' for Inactive)
REMARK    1  A    between atoms: C_1  and  C_2
REMARK    2  A    between atoms: C_2  and  C_3
REMARK    3  A    between atoms: C_3  and  C_4
REMARK    4  A    between atoms: C_4  and  C_5
REMARK    5  A    between atoms: C_5  and  C_6
REMARK    6  A    between atoms: C_6  and  O_7
REMARK    7  A    between atoms: O_7  and  C_8
REMARK    8  A    between atoms: C_10  and  N_11
REMARK    9  A    between atoms: C_12  and  C_14
REMARK   10  A    between atoms: C_17  and  O_18
REMARK   11  A    between atoms: O_18  and  C_19
REMARK   12  A    between atoms: C_20  and  O_21
REMARK   13  A    between atoms: O_21  and  C_22
REMARK   14  A    between atoms: C_26  and  N_27
REMARK   15  A    between atoms: N_27  and  C_28
REMARK   16  A    between atoms: N_27  and  S_29
REMARK   17  A    between atoms: S_29  and  C_30
REMARK                            x       y       z     vdW  Elec       q    Type
REMARK                         _______ _______ _______ _____ _____    ______ ____
ROOT
ATOM      1  C   UNL     1       3.685   5.908  19.134  0.00  0.00    +0.000 A 
ATOM      2  C   UNL     1       2.504   6.689  19.043  0.00  0.00    +0.000 A 
ATOM      3  C   UNL     1       2.353   7.694  18.079  0.00  0.00    +0.000 A 
ATOM      4  C   UNL     1       3.409   7.934  17.201  0.00  0.00    +0.000 A 
ATOM      5  C   UNL     1       4.607   7.212  17.316  0.00  0.00    +0.000 A 
ATOM      6  C   UNL     1       4.753   6.174  18.251  0.00  0.00    +0.000 A 
ENDROOT
BRANCH   3   7
ATOM      7  N   UNL     1       1.162   8.452  17.926  0.00  0.00    +0.000 N 
ATOM      8  C   UNL     1       0.767   9.449  18.812  0.00  0.00    +0.000 C 
ATOM      9  O   UNL     1       1.425   9.833  19.773  0.00  0.00    +0.000 OA
ATOM     10  H   UNL     1       0.787   8.527  16.988  0.00  0.00    +0.000 HD
BRANCH   8  11
ATOM     11  C   UNL     1      -0.514  10.163  18.488  0.00  0.00    +0.000 A 
ATOM     12  C   UNL     1      -0.964  11.166  19.348  0.00  0.00    +0.000 A 
ATOM     13  C   UNL     1      -2.192  11.790  19.113  0.00  0.00    +0.000 A 
ATOM     14  C   UNL     1      -3.005  11.419  18.029  0.00  0.00    +0.000 A 
ATOM     15  C   UNL     1      -2.563  10.400  17.166  0.00  0.00    +0.000 A 
ATOM     16  C   UNL     1      -1.318   9.782  17.401  0.00  0.00    +0.000 A 
BRANCH  14  17
ATOM     17  O   UNL     1      -4.171  12.140  17.990  0.00  0.00    +0.000 OA
ATOM     18  C   UNL     1      -5.293  11.706  18.744  0.00  0.00    +0.000 C 
ENDBRANCH  14  17
BRANCH  15  19
ATOM     19  O   UNL     1      -3.389  10.044  16.128  0.00  0.00    +0.000 OA
ATOM     20  C   UNL     1      -2.915  10.183  14.797  0.00  0.00    +0.000 C 
ENDBRANCH  15  19
ENDBRANCH   8  11
ENDBRANCH   3   7
BRANCH   6  21
ATOM     21  N   UNL     1       6.004   5.453  18.260  0.00  0.00    +0.000 N 
ATOM     22  C   UNL     1       6.841   5.467  19.470  0.00  0.00    +0.000 C 
BRANCH  21  23
ATOM     23  S   UNL     1       6.731   5.010  16.799  0.00  0.00    +0.000 S 
ATOM     24  C   UNL     1       5.529   3.925  16.038  0.00  0.00    +0.000 C 
ATOM     25  O   UNL     1       6.790   6.198  15.969  0.00  0.00    +0.000 OA
ATOM     26  O   UNL     1       7.915   4.228  17.065  0.00  0.00    +0.000 OA
ENDBRANCH  21  23
ENDBRANCH   6  21
BRANCH   1  27
ATOM     27  O   UNL     1       3.587   4.936  20.104  0.00  0.00    +0.000 OA
BRANCH  27  28
ATOM     28  C   UNL     1       2.400   4.851  20.887  0.00  0.00    +0.000 C 
BRANCH  28  29
ATOM     29  C   UNL     1       2.301   3.458  21.526  0.00  0.00    +0.000 C 
BRANCH  29  30
ATOM     30  C   UNL     1       1.667   2.456  20.553  0.00  0.00    +0.000 C 
BRANCH  30  31
ATOM     31  C   UNL     1       0.819   3.123  19.463  0.00  0.00    +0.000 C 
BRANCH  31  33
ATOM     32  C   UNL     1       2.729   2.110  18.136  0.00  0.00    +0.000 C 
ATOM     33  C   UNL     1       1.477   2.973  18.087  0.00  0.00    +0.000 C 
ENDBRANCH  31  33
ENDBRANCH  30  31
ENDBRANCH  29  30
ENDBRANCH  28  29
ENDBRANCH  27  28
ENDBRANCH   1  27
TORSDOF 12
ENDMDL
MODEL 3
REMARK VINA RESULT:      -7.4      1.154      2.341
REMARK  Name = 
REMARK  17 active torsions:
REMARK  status: ('A' for Active; 'I' for Inactive)
REMARK    1  A    between atoms: C_1  and  C_2
REMARK    2  A    between atoms: C_2  and  C_3
REMARK    3  A    between atoms: C_3  and  C_4
REMARK    4  A    between atoms: C_4  and  C_5
REMARK    5  A    between atoms: C_5  and  C_6
REMARK    6  A    between atoms: C_6  and  O_7
REMARK    7  A    between atoms: O_7  and  C_8
REMARK    8  A    between atoms: C_10  and  N_11
REMARK    9  A    between atoms: C_12  and  C_14
REMARK   10  A    between atoms: C_17  and  O_18
REMARK   11  A    between atoms: O_18  and  C_19
REMARK   12  A    between atoms: C_20  and  O_21
REMARK   13  A    between atoms: O_21  and  C_22
REMARK   14  A    between atoms: C_26  and  N_27
REMARK   15  A    between atoms: N_27  and  C_28
REMARK   16  A    between atoms: N_27  and  S_29
REMARK   17  A    between atoms: S_29  and  C_30
REMARK                            x       y       z     vdW  Elec       q    Type
REMARK                         _______ _______ _______ _____ _____    ______ ____
ROOT
ATOM      1  C   UNL     1       3.716   5.890  19.194  0.00  0.00    +0.000 A 
ATOM      2  C   UNL     1       2.681   6.815  19.487  0.00  0.00    +0.000 A 
ATOM      3  C   UNL     1       2.387   7.891  18.639  0.00  0.00    +0.000 A 
ATOM      4  C   UNL     1       3.152   8.054  17.487  0.00  0.00    +0.000 A 
ATOM      5  C   UNL     1       4.218   7.184  17.212  0.00  0.00    +0.000 A 
ATOM      6  C   UNL     1       4.495   6.077  18.033  0.00  0.00    +0.000 A 
ENDROOT
BRANCH   3   7
ATOM      7  N   UNL     1       1.320   8.798  18.877  0.00  0.00    +0.000 N 
ATOM      8  C   UNL     1       0.906   9.180  20.148  0.00  0.00    +0.000 C 
ATOM      9  O   UNL     1       1.451   8.842  21.194  0.00  0.00    +0.000 OA
ATOM     10  H   UNL     1       1.100   9.447  18.131  0.00  0.00    +0.000 HD
BRANCH   8  11
ATOM     11  C   UNL     1      -0.227  10.163  20.215  0.00  0.00    +0.000 A 
ATOM     12  C   UNL     1      -0.999  10.381  19.072  0.00  0.00    +0.000 A 
ATOM     13  C   UNL     1      -2.008  11.348  19.085  0.00  0.00    +0.000 A 
ATOM     14  C   UNL     1      -2.259  12.129  20.225  0.00  0.00    +0.000 A 
ATOM     15  C   UNL     1      -1.476  11.924  21.374  0.00  0.00    +0.000 A 
ATOM     16  C   UNL     1      -0.468  10.938  21.361  0.00  0.00    +0.000 A 
BRANCH  14  17
ATOM     17  O   UNL     1      -3.275  13.027  20.020  0.00  0.00    +0.000 OA
ATOM     18  C   UNL     1      -4.549  12.565  19.594  0.00  0.00    +0.000 C 
ENDBRANCH  14  17
BRANCH  15  19
ATOM     19  O   UNL     1      -1.730  12.717  22.466  0.00  0.00    +0.000 OA
ATOM     20  C   UNL     1      -2.749  12.327  23.374  0.00  0.00    +0.000 C 
ENDBRANCH  15  19
ENDBRANCH   8  11
ENDBRANCH   3   7
BRANCH   6  21
ATOM     21  N   UNL     1       5.580   5.209  17.641  0.00  0.00    +0.000 N 
ATOM     22  C   UNL     1       5.286   3.953  16.935  0.00  0.00    +0.000 C 
BRANCH  21  23
ATOM     23  S   UNL     1       7.094   5.367  18.380  0.00  0.00    +0.000 S 
ATOM     24  C   UNL     1       7.632   7.005  17.900  0.00  0.00    +0.000 C 
ATOM     25  O   UNL     1       6.871   5.416  19.813  0.00  0.00    +0.000 OA
ATOM     26  O   UNL     1       8.016   4.420  17.801  0.00  0.00    +0.000 OA
ENDBRANCH  21  23
ENDBRANCH   6  21
BRANCH   1  27
ATOM     27  O   UNL     1       3.782   4.876  20.124  0.00  0.00    +0.000 OA
BRANCH  27  28
ATOM     28  C   UNL     1       2.653   4.621  20.955  0.00  0.00    +0.000 C 
BRANCH  28  29
ATOM     29  C   UNL     1       2.269   3.137  20.862  0.00  0.00    +0.000 C 
BRANCH  29  30
ATOM     30  C   UNL     1       0.815   2.977  20.400  0.00  0.00    +0.000 C 
BRANCH  30  31
ATOM     31  C   UNL     1       0.687   2.334  19.013  0.00  0.00    +0.000 C 
BRANCH  31  33
ATOM     32  C   UNL     1       1.462   4.081  17.344  0.00  0.00    +0.000 C 
ATOM     33  C   UNL     1       1.815   2.801  18.086  0.00  0.00    +0.000 C 
ENDBRANCH  31  33
ENDBRANCH  30  31
ENDBRANCH  29  30
ENDBRANCH  28  29
ENDBRANCH  27  28
ENDBRANCH   1  27
TORSDOF 12
ENDMDL
MODEL 4
REMARK VINA RESULT:      -7.3      0.862      1.820
REMARK  Name = 
REMARK  17 active torsions:
REMARK  status: ('A' for Active; 'I' for Inactive)
REMARK    1  A    between atoms: C_1  and  C_2
REMARK    2  A    between atoms: C_2  and  C_3
REMARK    3  A    between atoms: C_3  and  C_4
REMARK    4  A    between atoms: C_4  and  C_5
REMARK    5  A    between atoms: C_5  and  C_6
REMARK    6  A    between atoms: C_6  and  O_7
REMARK    7  A    between atoms: O_7  and  C_8
REMARK    8  A    between atoms: C_10  and  N_11
REMARK    9  A    between atoms: C_12  and  C_14
REMARK   10  A    between atoms: C_17  and  O_18
REMARK   11  A    between atoms: O_18  and  C_19
REMARK   12  A    between atoms: C_20  and  O_21
REMARK   13  A    between atoms: O_21  and  C_22
REMARK   14  A    between atoms: C_26  and  N_27
REMARK   15  A    between atoms: N_27  and  C_28
REMARK   16  A    between atoms: N_27  and  S_29
REMARK   17  A    between atoms: S_29  and  C_30
REMARK                            x       y       z     vdW  Elec       q    Type
REMARK                         _______ _______ _______ _____ _____    ______ ____
ROOT
ATOM      1  C   UNL     1       3.439   5.514  18.020  0.00  0.00    +0.000 A 
ATOM      2  C   UNL     1       2.432   6.431  18.419  0.00  0.00    +0.000 A 
ATOM      3  C   UNL     1       2.487   7.787  18.073  0.00  0.00    +0.000 A 
ATOM      4  C   UNL     1       3.576   8.238  17.330  0.00  0.00    +0.000 A 
ATOM      5  C   UNL     1       4.610   7.357  16.979  0.00  0.00    +0.000 A 
ATOM      6  C   UNL     1       4.546   5.987  17.284  0.00  0.00    +0.000 A 
ENDROOT
BRANCH   3   7
ATOM      7  N   UNL     1       1.466   8.716  18.407  0.00  0.00    +0.000 N 
ATOM      8  C   UNL     1       1.103   9.020  19.715  0.00  0.00    +0.000 C 
ATOM      9  O   UNL     1       1.662   8.585  20.716  0.00  0.00    +0.000 OA
ATOM     10  H   UNL     1       1.252   9.427  17.718  0.00  0.00    +0.000 HD
BRANCH   8  11
ATOM     11  C   UNL     1       0.014  10.040  19.887  0.00  0.00    +0.000 A 
ATOM     12  C   UNL     1      -0.731  10.426  18.771  0.00  0.00    +0.000 A 
ATOM     13  C   UNL     1      -1.695  11.431  18.888  0.00  0.00    +0.000 A 
ATOM     14  C   UNL     1      -1.928  12.083  20.110  0.00  0.00    +0.000 A 
ATOM     15  C   UNL     1      -1.172  11.707  21.235  0.00  0.00    +0.000 A 
ATOM     16  C   UNL     1      -0.210  10.684  21.114  0.00  0.00    +0.000 A 
BRANCH  14  17
ATOM     17  O   UNL     1      -2.900  13.044  20.003  0.00  0.00    +0.000 OA
ATOM     18  C   UNL     1      -4.265  12.689  20.172  0.00  0.00    +0.000 C 
ENDBRANCH  14  17
BRANCH  15  19
ATOM     19  O   UNL     1      -1.408  12.377  22.411  0.00  0.00    +0.000 OA
ATOM     20  C   UNL     1      -2.363  11.850  23.320  0.00  0.00    +0.000 C 
ENDBRANCH  15  19
ENDBRANCH   8  11
ENDBRANCH   3   7
BRANCH   6  21
ATOM     21  N   UNL     1       5.634   5.150  16.837  0.00  0.00    +0.000 N 
ATOM     22  C   UNL     1       5.417   4.210  15.727  0.00  0.00    +0.000 C 
BRANCH  21  23
ATOM     23  S   UNL     1       6.967   4.893  17.846  0.00  0.00    +0.000 S 
ATOM     24  C   UNL     1       7.572   6.543  18.181  0.00  0.00    +0.000 C 
ATOM     25  O   UNL     1       6.462   4.381  19.106  0.00  0.00    +0.000 OA
ATOM     26  O   UNL     1       7.997   4.193  17.117  0.00  0.00    +0.000 OA
ENDBRANCH  21  23
ENDBRANCH   6  21
BRANCH   1  27
ATOM     27  O   UNL     1       3.147   4.225  18.409  0.00  0.00    +0.000 OA
BRANCH  27  28
ATOM     28  C   UNL     1       2.292   3.429  17.592  0.00  0.00    +0.000 C 
BRANCH  28  29
ATOM     29  C   UNL     1       1.119   2.904  18.432  0.00  0.00    +0.000 C 
BRANCH  29  30
ATOM     30  C   UNL     1       1.053   3.620  19.786  0.00  0.00    +0.000 C 
BRANCH  30  31
ATOM     31  C   UNL     1       1.227   2.675  20.981  0.00  0.00    +0.000 C 
BRANCH  31  33
ATOM     32  C   UNL     1       3.730   2.264  20.905  0.00  0.00    +0.000 C 
ATOM     33  C   UNL     1       2.579   2.902  21.668  0.00  0.00    +0.000 C 
ENDBRANCH  31  33
ENDBRANCH  30  31
ENDBRANCH  29  30
ENDBRANCH  28  29
ENDBRANCH  27  28
ENDBRANCH   1  27
TORSDOF 12
ENDMDL
MODEL 5
REMARK VINA RESULT:      -7.2      1.200      1.801
REMARK  Name = 
REMARK  17 active torsions:
REMARK  status: ('A' for Active; 'I' for Inactive)
REMARK    1  A    between atoms: C_1  and  C_2
REMARK    2  A    between atoms: C_2  and  C_3
REMARK    3  A    between atoms: C_3  and  C_4
REMARK    4  A    between atoms: C_4  and  C_5
REMARK    5  A    between atoms: C_5  and  C_6
REMARK    6  A    between atoms: C_6  and  O_7
REMARK    7  A    between atoms: O_7  and  C_8
REMARK    8  A    between atoms: C_10  and  N_11
REMARK    9  A    between atoms: C_12  and  C_14
REMARK   10  A    between atoms: C_17  and  O_18
REMARK   11  A    between atoms: O_18  and  C_19
REMARK   12  A    between atoms: C_20  and  O_21
REMARK   13  A    between atoms: O_21  and  C_22
REMARK   14  A    between atoms: C_26  and  N_27
REMARK   15  A    between atoms: N_27  and  C_28
REMARK   16  A    between atoms: N_27  and  S_29
REMARK   17  A    between atoms: S_29  and  C_30
REMARK                            x       y       z     vdW  Elec       q    Type
REMARK                         _______ _______ _______ _____ _____    ______ ____
ROOT
ATOM      1  C   UNL     1       3.564   5.794  19.212  0.00  0.00    +0.000 A 
ATOM      2  C   UNL     1       2.513   6.711  19.476  0.00  0.00    +0.000 A 
ATOM      3  C   UNL     1       2.252   7.800  18.635  0.00  0.00    +0.000 A 
ATOM      4  C   UNL     1       3.067   7.986  17.520  0.00  0.00    +0.000 A 
ATOM      5  C   UNL     1       4.147   7.124  17.278  0.00  0.00    +0.000 A 
ATOM      6  C   UNL     1       4.393   6.005  18.090  0.00  0.00    +0.000 A 
ENDROOT
BRANCH   3   7
ATOM      7  N   UNL     1       1.172   8.700  18.841  0.00  0.00    +0.000 N 
ATOM      8  C   UNL     1       1.219  10.046  18.494  0.00  0.00    +0.000 C 
ATOM      9  O   UNL     1       2.153  10.589  17.914  0.00  0.00    +0.000 OA
ATOM     10  H   UNL     1       0.246   8.295  18.898  0.00  0.00    +0.000 HD
BRANCH   8  11
ATOM     11  C   UNL     1      -0.021  10.849  18.767  0.00  0.00    +0.000 A 
ATOM     12  C   UNL     1       0.062  11.947  19.625  0.00  0.00    +0.000 A 
ATOM     13  C   UNL     1      -1.092  12.662  19.958  0.00  0.00    +0.000 A 
ATOM     14  C   UNL     1      -2.352  12.292  19.459  0.00  0.00    +0.000 A 
ATOM     15  C   UNL     1      -2.443  11.178  18.605  0.00  0.00    +0.000 A 
ATOM     16  C   UNL     1      -1.275  10.469  18.262  0.00  0.00    +0.000 A 
BRANCH  14  17
ATOM     17  O   UNL     1      -3.349  13.111  19.921  0.00  0.00    +0.000 OA
ATOM     18  C   UNL     1      -3.048  14.118  20.877  0.00  0.00    +0.000 C 
ENDBRANCH  14  17
BRANCH  15  19
ATOM     19  O   UNL     1      -3.691  10.827  18.150  0.00  0.00    +0.000 OA
ATOM     20  C   UNL     1      -4.283  11.595  17.112  0.00  0.00    +0.000 C 
ENDBRANCH  15  19
ENDBRANCH   8  11
ENDBRANCH   3   7
BRANCH   6  21
ATOM     21  N   UNL     1       5.497   5.147  17.732  0.00  0.00    +0.000 N 
ATOM     22  C   UNL     1       5.235   3.880  17.032  0.00  0.00    +0.000 C 
BRANCH  21  23
ATOM     23  S   UNL     1       6.991   5.332  18.503  0.00  0.00    +0.000 S 
ATOM     24  C   UNL     1       7.531   6.962  17.997  0.00  0.00    +0.000 C 
ATOM     25  O   UNL     1       6.734   5.413  19.928  0.00  0.00    +0.000 OA
ATOM     26  O   UNL     1       7.933   4.378  17.969  0.00  0.00    +0.000 OA
ENDBRANCH  21  23
ENDBRANCH   6  21
BRANCH   1  27
ATOM     27  O   UNL     1       3.593   4.765  20.127  0.00  0.00    +0.000 OA
BRANCH  27  28
ATOM     28  C   UNL     1       2.593   4.707  21.141  0.00  0.00    +0.000 C 
BRANCH  28  29
ATOM     29  C   UNL     1       2.083   3.265  21.280  0.00  0.00    +0.000 C 
BRANCH  29  30
ATOM     30  C   UNL     1       1.153   2.900  20.117  0.00  0.00    +0.000 C 
BRANCH  30  31
ATOM     31  C   UNL     1       1.765   1.880  19.148  0.00  0.00    +0.000 C 
BRANCH  31  33
ATOM     32  C   UNL     1       1.351   3.830  17.578  0.00  0.00    +0.000 C 
ATOM     33  C   UNL     1       2.124   2.541  17.812  0.00  0.00    +0.000 C 
ENDBRANCH  31  33
ENDBRANCH  30  31
ENDBRANCH  29  30
ENDBRANCH  28  29
ENDBRANCH  27  28
ENDBRANCH   1  27
TORSDOF 12
ENDMDL
MODEL 6
REMARK VINA RESULT:      -7.1      1.774      2.620
REMARK  Name = 
REMARK  17 active torsions:
REMARK  status: ('A' for Active; 'I' for Inactive)
REMARK    1  A    between atoms: C_1  and  C_2
REMARK    2  A    between atoms: C_2  and  C_3
REMARK    3  A    between atoms: C_3  and  C_4
REMARK    4  A    between atoms: C_4  and  C_5
REMARK    5  A    between atoms: C_5  and  C_6
REMARK    6  A    between atoms: C_6  and  O_7
REMARK    7  A    between atoms: O_7  and  C_8
REMARK    8  A    between atoms: C_10  and  N_11
REMARK    9  A    between atoms: C_12  and  C_14
REMARK   10  A    between atoms: C_17  and  O_18
REMARK   11  A    between atoms: O_18  and  C_19
REMARK   12  A    between atoms: C_20  and  O_21
REMARK   13  A    between atoms: O_21  and  C_22
REMARK   14  A    between atoms: C_26  and  N_27
REMARK   15  A    between atoms: N_27  and  C_28
REMARK   16  A    between atoms: N_27  and  S_29
REMARK   17  A    between atoms: S_29  and  C_30
REMARK                            x       y       z     vdW  Elec       q    Type
REMARK                         _______ _______ _______ _____ _____    ______ ____
ROOT
ATOM      1  C   UNL     1       3.767   5.012  17.450  0.00  0.00    +0.000 A 
ATOM      2  C   UNL     1       2.780   5.801  18.096  0.00  0.00    +0.000 A 
ATOM      3  C   UNL     1       2.982   7.160  18.370  0.00  0.00    +0.000 A 
ATOM      4  C   UNL     1       4.198   7.735  18.007  0.00  0.00    +0.000 A 
ATOM      5  C   UNL     1       5.207   6.955  17.422  0.00  0.00    +0.000 A 
ATOM      6  C   UNL     1       5.000   5.602  17.105  0.00  0.00    +0.000 A 
ENDROOT
BRANCH   3   7
ATOM      7  N   UNL     1       1.992   7.989  18.962  0.00  0.00    +0.000 N 
ATOM      8  C   UNL     1       1.578   9.200  18.415  0.00  0.00    +0.000 C 
ATOM      9  O   UNL     1       1.959   9.650  17.340  0.00  0.00    +0.000 OA
ATOM     10  H   UNL     1       1.327   7.537  19.577  0.00  0.00    +0.000 HD
BRANCH   8  11
ATOM     11  C   UNL     1       0.507   9.939  19.165  0.00  0.00    +0.000 A 
ATOM     12  C   UNL     1      -0.325  10.814  18.464  0.00  0.00    +0.000 A 
ATOM     13  C   UNL     1      -1.276  11.574  19.150  0.00  0.00    +0.000 A 
ATOM     14  C   UNL     1      -1.408  11.494  20.546  0.00  0.00    +0.000 A 
ATOM     15  C   UNL     1      -0.564  10.624  21.259  0.00  0.00    +0.000 A 
ATOM     16  C   UNL     1       0.385   9.850  20.561  0.00  0.00    +0.000 A 
BRANCH  14  17
ATOM     17  O   UNL     1      -2.384  12.332  21.020  0.00  0.00    +0.000 OA
ATOM     18  C   UNL     1      -2.253  13.736  20.846  0.00  0.00    +0.000 C 
ENDBRANCH  14  17
BRANCH  15  19
ATOM     19  O   UNL     1      -0.702  10.583  22.625  0.00  0.00    +0.000 OA
ATOM     20  C   UNL     1      -0.062   9.541  23.347  0.00  0.00    +0.000 C 
ENDBRANCH  15  19
ENDBRANCH   8  11
ENDBRANCH   3   7
BRANCH   6  21
ATOM     21  N   UNL     1       6.080   4.894  16.458  0.00  0.00    +0.000 N 
ATOM     22  C   UNL     1       7.142   4.288  17.275  0.00  0.00    +0.000 C 
BRANCH  21  23
ATOM     23  S   UNL     1       6.393   5.155  14.816  0.00  0.00    +0.000 S 
ATOM     24  C   UNL     1       5.960   3.597  14.049  0.00  0.00    +0.000 C 
ATOM     25  O   UNL     1       5.425   6.124  14.341  0.00  0.00    +0.000 OA
ATOM     26  O   UNL     1       7.808   5.357  14.620  0.00  0.00    +0.000 OA
ENDBRANCH  21  23
ENDBRANCH   6  21
BRANCH   1  27
ATOM     27  O   UNL     1       3.329   3.726  17.219  0.00  0.00    +0.000 OA
BRANCH  27  28
ATOM     28  C   UNL     1       3.952   2.645  17.908  0.00  0.00    +0.000 C 
BRANCH  28  29
ATOM     29  C   UNL     1       2.894   1.862  18.701  0.00  0.00    +0.000 C 
BRANCH  29  30
ATOM     30  C   UNL     1       1.483   2.368  18.376  0.00  0.00    +0.000 C 
BRANCH  30  31
ATOM     31  C   UNL     1       0.804   3.071  19.558  0.00  0.00    +0.000 C 
BRANCH  31  33
ATOM     32  C   UNL     1       2.169   3.865  21.543  0.00  0.00    +0.000 C 
ATOM     33  C   UNL     1       1.473   2.685  20.883  0.00  0.00    +0.000 C 
ENDBRANCH  31  33
ENDBRANCH  30  31
ENDBRANCH  29  30
ENDBRANCH  28  29
ENDBRANCH  27  28
ENDBRANCH   1  27
TORSDOF 12
ENDMDL
MODEL 7
REMARK VINA RESULT:      -7.1      3.340      9.675
REMARK  Name = 
REMARK  17 active torsions:
REMARK  status: ('A' for Active; 'I' for Inactive)
REMARK    1  A    between atoms: C_1  and  C_2
REMARK    2  A    between atoms: C_2  and  C_3
REMARK    3  A    between atoms: C_3  and  C_4
REMARK    4  A    between atoms: C_4  and  C_5
REMARK    5  A    between atoms: C_5  and  C_6
REMARK    6  A    between atoms: C_6  and  O_7
REMARK    7  A    between atoms: O_7  and  C_8
REMARK    8  A    between atoms: C_10  and  N_11
REMARK    9  A    between atoms: C_12  and  C_14
REMARK   10  A    between atoms: C_17  and  O_18
REMARK   11  A    between atoms: O_18  and  C_19
REMARK   12  A    between atoms: C_20  and  O_21
REMARK   13  A    between atoms: O_21  and  C_22
REMARK   14  A    between atoms: C_26  and  N_27
REMARK   15  A    between atoms: N_27  and  C_28
REMARK   16  A    between atoms: N_27  and  S_29
REMARK   17  A    between atoms: S_29  and  C_30
REMARK                            x       y       z     vdW  Elec       q    Type
REMARK                         _______ _______ _______ _____ _____    ______ ____
ROOT
ATOM      1  C   UNL     1      -0.626  11.261  20.882  0.00  0.00    +0.000 A 
ATOM      2  C   UNL     1       0.069  10.078  20.521  0.00  0.00    +0.000 A 
ATOM      3  C   UNL     1       0.325   9.058  21.446  0.00  0.00    +0.000 A 
ATOM      4  C   UNL     1      -0.107   9.231  22.759  0.00  0.00    +0.000 A 
ATOM      5  C   UNL     1      -0.743  10.420  23.148  0.00  0.00    +0.000 A 
ATOM      6  C   UNL     1      -1.042  11.432  22.220  0.00  0.00    +0.000 A 
ENDROOT
BRANCH   3   7
ATOM      7  N   UNL     1       0.967   7.838  21.101  0.00  0.00    +0.000 N 
ATOM      8  C   UNL     1       1.754   7.680  19.965  0.00  0.00    +0.000 C 
ATOM      9  O   UNL     1       2.042   8.579  19.182  0.00  0.00    +0.000 OA
ATOM     10  H   UNL     1       1.156   7.193  21.858  0.00  0.00    +0.000 HD
BRANCH   8  11
ATOM     11  C   UNL     1       2.372   6.327  19.763  0.00  0.00    +0.000 A 
ATOM     12  C   UNL     1       1.816   5.227  20.420  0.00  0.00    +0.000 A 
ATOM     13  C   UNL     1       2.419   3.971  20.313  0.00  0.00    +0.000 A 
ATOM     14  C   UNL     1       3.595   3.785  19.566  0.00  0.00    +0.000 A 
ATOM     15  C   UNL     1       4.167   4.892  18.914  0.00  0.00    +0.000 A 
ATOM     16  C   UNL     1       3.547   6.154  19.014  0.00  0.00    +0.000 A 
BRANCH  14  17
ATOM     17  O   UNL     1       4.029   2.485  19.606  0.00  0.00    +0.000 OA
ATOM     18  C   UNL     1       3.538   1.549  18.657  0.00  0.00    +0.000 C 
ENDBRANCH  14  17
BRANCH  15  19
ATOM     19  O   UNL     1       5.327   4.683  18.209  0.00  0.00    +0.000 OA
ATOM     20  C   UNL     1       5.828   5.729  17.390  0.00  0.00    +0.000 C 
ENDBRANCH  15  19
ENDBRANCH   8  11
ENDBRANCH   3   7
BRANCH   6  21
ATOM     21  N   UNL     1      -1.744  12.597  22.703  0.00  0.00    +0.000 N 
ATOM     22  C   UNL     1      -3.202  12.540  22.890  0.00  0.00    +0.000 C 
BRANCH  21  23
ATOM     23  S   UNL     1      -1.017  14.120  22.601  0.00  0.00    +0.000 S 
ATOM     24  C   UNL     1      -1.358  14.861  24.194  0.00  0.00    +0.000 C 
ATOM     25  O   UNL     1       0.417  13.911  22.549  0.00  0.00    +0.000 OA
ATOM     26  O   UNL     1      -1.691  14.913  21.601  0.00  0.00    +0.000 OA
ENDBRANCH  21  23
ENDBRANCH   6  21
BRANCH   1  27
ATOM     27  O   UNL     1      -0.827  12.092  19.802  0.00  0.00    +0.000 OA
BRANCH  27  28
ATOM     28  C   UNL     1      -2.130  12.189  19.232  0.00  0.00    +0.000 C 
BRANCH  28  29
ATOM     29  C   UNL     1      -2.108  11.636  17.800  0.00  0.00    +0.000 C 
BRANCH  29  30
ATOM     30  C   UNL     1      -2.480  10.148  17.783  0.00  0.00    +0.000 C 
BRANCH  30  31
ATOM     31  C   UNL     1      -2.571   9.561  16.369  0.00  0.00    +0.000 C 
BRANCH  31  33
ATOM     32  C   UNL     1      -3.530  10.098  14.083  0.00  0.00    +0.000 C 
ATOM     33  C   UNL     1      -2.881  10.655  15.341  0.00  0.00    +0.000 C 
ENDBRANCH  31  33
ENDBRANCH  30  31
ENDBRANCH  29  30
ENDBRANCH  28  29
ENDBRANCH  27  28
ENDBRANCH   1  27
TORSDOF 12
ENDMDL
MODEL 8
REMARK VINA RESULT:      -7.0      1.398      2.478
REMARK  Name = 
REMARK  17 active torsions:
REMARK  status: ('A' for Active; 'I' for Inactive)
REMARK    1  A    between atoms: C_1  and  C_2
REMARK    2  A    between atoms: C_2  and  C_3
REMARK    3  A    between atoms: C_3  and  C_4
REMARK    4  A    between atoms: C_4  and  C_5
REMARK    5  A    between atoms: C_5  and  C_6
REMARK    6  A    between atoms: C_6  and  O_7
REMARK    7  A    between atoms: O_7  and  C_8
REMARK    8  A    between atoms: C_10  and  N_11
REMARK    9  A    between atoms: C_12  and  C_14
REMARK   10  A    between atoms: C_17  and  O_18
REMARK   11  A    between atoms: O_18  and  C_19
REMARK   12  A    between atoms: C_20  and  O_21
REMARK   13  A    between atoms: O_21  and  C_22
REMARK   14  A    between atoms: C_26  and  N_27
REMARK   15  A    between atoms: N_27  and  C_28
REMARK   16  A    between atoms: N_27  and  S_29
REMARK   17  A    between atoms: S_29  and  C_30
REMARK                            x       y       z     vdW  Elec       q    Type
REMARK                         _______ _______ _______ _____ _____    ______ ____
ROOT
ATOM      1  C   UNL     1       3.489   5.831  19.386  0.00  0.00    +0.000 A 
ATOM      2  C   UNL     1       2.477   6.755  19.754  0.00  0.00    +0.000 A 
ATOM      3  C   UNL     1       2.168   7.869  18.963  0.00  0.00    +0.000 A 
ATOM      4  C   UNL     1       2.896   8.071  17.792  0.00  0.00    +0.000 A 
ATOM      5  C   UNL     1       3.940   7.201  17.444  0.00  0.00    +0.000 A 
ATOM      6  C   UNL     1       4.230   6.058  18.207  0.00  0.00    +0.000 A 
ENDROOT
BRANCH   3   7
ATOM      7  N   UNL     1       1.122   8.778  19.275  0.00  0.00    +0.000 N 
ATOM      8  C   UNL     1       1.146  10.124  18.925  0.00  0.00    +0.000 C 
ATOM      9  O   UNL     1       2.023  10.659  18.255  0.00  0.00    +0.000 OA
ATOM     10  H   UNL     1       0.203   8.381  19.424  0.00  0.00    +0.000 HD
BRANCH   8  11
ATOM     11  C   UNL     1      -0.053  10.938  19.320  0.00  0.00    +0.000 A 
ATOM     12  C   UNL     1      -1.258  10.735  18.644  0.00  0.00    +0.000 A 
ATOM     13  C   UNL     1      -2.366  11.534  18.937  0.00  0.00    +0.000 A 
ATOM     14  C   UNL     1      -2.296  12.561  19.893  0.00  0.00    +0.000 A 
ATOM     15  C   UNL     1      -1.081  12.779  20.567  0.00  0.00    +0.000 A 
ATOM     16  C   UNL     1       0.030  11.962  20.278  0.00  0.00    +0.000 A 
BRANCH  14  17
ATOM     17  O   UNL     1      -3.485  13.234  20.014  0.00  0.00    +0.000 OA
ATOM     18  C   UNL     1      -4.471  12.764  20.922  0.00  0.00    +0.000 C 
ENDBRANCH  14  17
BRANCH  15  19
ATOM     19  O   UNL     1      -1.037  13.804  21.481  0.00  0.00    +0.000 OA
ATOM     20  C   UNL     1      -0.949  13.486  22.862  0.00  0.00    +0.000 C 
ENDBRANCH  15  19
ENDBRANCH   8  11
ENDBRANCH   3   7
BRANCH   6  21
ATOM     21  N   UNL     1       5.290   5.195  17.742  0.00  0.00    +0.000 N 
ATOM     22  C   UNL     1       4.953   3.950  17.034  0.00  0.00    +0.000 C 
BRANCH  21  23
ATOM     23  S   UNL     1       6.842   5.339  18.397  0.00  0.00    +0.000 S 
ATOM     24  C   UNL     1       7.411   6.926  17.795  0.00  0.00    +0.000 C 
ATOM     25  O   UNL     1       6.694   5.478  19.833  0.00  0.00    +0.000 OA
ATOM     26  O   UNL     1       7.702   4.327  17.832  0.00  0.00    +0.000 OA
ENDBRANCH  21  23
ENDBRANCH   6  21
BRANCH   1  27
ATOM     27  O   UNL     1       3.573   4.778  20.270  0.00  0.00    +0.000 OA
BRANCH  27  28
ATOM     28  C   UNL     1       2.490   4.531  21.163  0.00  0.00    +0.000 C 
BRANCH  28  29
ATOM     29  C   UNL     1       2.060   3.060  21.057  0.00  0.00    +0.000 C 
BRANCH  29  30
ATOM     30  C   UNL     1       2.971   2.294  20.090  0.00  0.00    +0.000 C 
BRANCH  30  31
ATOM     31  C   UNL     1       2.290   1.951  18.759  0.00  0.00    +0.000 C 
BRANCH  31  33
ATOM     32  C   UNL     1       1.277   3.940  17.553  0.00  0.00    +0.000 C 
ATOM     33  C   UNL     1       1.040   2.812  18.545  0.00  0.00    +0.000 C 
ENDBRANCH  31  33
ENDBRANCH  30  31
ENDBRANCH  29  30
ENDBRANCH  28  29
ENDBRANCH  27  28
ENDBRANCH   1  27
TORSDOF 12
ENDMDL
MODEL 9
REMARK VINA RESULT:      -6.9      3.098      9.524
REMARK  Name = 
REMARK  17 active torsions:
REMARK  status: ('A' for Active; 'I' for Inactive)
REMARK    1  A    between atoms: C_1  and  C_2
REMARK    2  A    between atoms: C_2  and  C_3
REMARK    3  A    between atoms: C_3  and  C_4
REMARK    4  A    between atoms: C_4  and  C_5
REMARK    5  A    between atoms: C_5  and  C_6
REMARK    6  A    between atoms: C_6  and  O_7
REMARK    7  A    between atoms: O_7  and  C_8
REMARK    8  A    between atoms: C_10  and  N_11
REMARK    9  A    between atoms: C_12  and  C_14
REMARK   10  A    between atoms: C_17  and  O_18
REMARK   11  A    between atoms: O_18  and  C_19
REMARK   12  A    between atoms: C_20  and  O_21
REMARK   13  A    between atoms: O_21  and  C_22
REMARK   14  A    between atoms: C_26  and  N_27
REMARK   15  A    between atoms: N_27  and  C_28
REMARK   16  A    between atoms: N_27  and  S_29
REMARK   17  A    between atoms: S_29  and  C_30
REMARK                            x       y       z     vdW  Elec       q    Type
REMARK                         _______ _______ _______ _____ _____    ______ ____
ROOT
ATOM      1  C   UNL     1      -0.506  10.787  20.346  0.00  0.00    +0.000 A 
ATOM      2  C   UNL     1       0.241   9.772  19.693  0.00  0.00    +0.000 A 
ATOM      3  C   UNL     1       1.108   8.923  20.392  0.00  0.00    +0.000 A 
ATOM      4  C   UNL     1       1.244   9.103  21.767  0.00  0.00    +0.000 A 
ATOM      5  C   UNL     1       0.559  10.140  22.420  0.00  0.00    +0.000 A 
ATOM      6  C   UNL     1      -0.345  10.969  21.736  0.00  0.00    +0.000 A 
ENDROOT
BRANCH   3   7
ATOM      7  N   UNL     1       1.824   7.863  19.775  0.00  0.00    +0.000 N 
ATOM      8  C   UNL     1       2.356   7.940  18.492  0.00  0.00    +0.000 C 
ATOM      9  O   UNL     1       2.334   8.941  17.784  0.00  0.00    +0.000 OA
ATOM     10  H   UNL     1       2.264   7.191  20.392  0.00  0.00    +0.000 HD
BRANCH   8  11
ATOM     11  C   UNL     1       3.098   6.731  18.003  0.00  0.00    +0.000 A 
ATOM     12  C   UNL     1       4.334   6.905  17.376  0.00  0.00    +0.000 A 
ATOM     13  C   UNL     1       5.007   5.804  16.840  0.00  0.00    +0.000 A 
ATOM     14  C   UNL     1       4.461   4.511  16.901  0.00  0.00    +0.000 A 
ATOM     15  C   UNL     1       3.211   4.332  17.520  0.00  0.00    +0.000 A 
ATOM     16  C   UNL     1       2.541   5.443  18.070  0.00  0.00    +0.000 A 
BRANCH  14  17
ATOM     17  O   UNL     1       5.272   3.581  16.303  0.00  0.00    +0.000 OA
ATOM     18  C   UNL     1       6.161   3.982  15.270  0.00  0.00    +0.000 C 
ENDBRANCH  14  17
BRANCH  15  19
ATOM     19  O   UNL     1       2.692   3.060  17.545  0.00  0.00    +0.000 OA
ATOM     20  C   UNL     1       3.190   2.136  18.502  0.00  0.00    +0.000 C 
ENDBRANCH  15  19
ENDBRANCH   8  11
ENDBRANCH   3   7
BRANCH   6  21
ATOM     21  N   UNL     1      -1.041  11.975  22.502  0.00  0.00    +0.000 N 
ATOM     22  C   UNL     1      -2.314  11.637  23.157  0.00  0.00    +0.000 C 
BRANCH  21  23
ATOM     23  S   UNL     1      -0.679  13.611  22.270  0.00  0.00    +0.000 S 
ATOM     24  C   UNL     1      -1.194  14.382  23.801  0.00  0.00    +0.000 C 
ATOM     25  O   UNL     1       0.765  13.731  22.219  0.00  0.00    +0.000 OA
ATOM     26  O   UNL     1      -1.508  14.145  21.216  0.00  0.00    +0.000 OA
ENDBRANCH  21  23
ENDBRANCH   6  21
BRANCH   1  27
ATOM     27  O   UNL     1      -1.344  11.452  19.479  0.00  0.00    +0.000 OA
BRANCH  27  28
ATOM     28  C   UNL     1      -1.408  11.035  18.117  0.00  0.00    +0.000 C 
BRANCH  28  29
ATOM     29  C   UNL     1      -2.666  10.181  17.898  0.00  0.00    +0.000 C 
BRANCH  29  30
ATOM     30  C   UNL     1      -3.382  10.586  16.604  0.00  0.00    +0.000 C 
BRANCH  30  31
ATOM     31  C   UNL     1      -4.636  11.434  16.845  0.00  0.00    +0.000 C 
BRANCH  31  33
ATOM     32  C   UNL     1      -6.822  11.458  18.132  0.00  0.00    +0.000 C 
ATOM     33  C   UNL     1      -5.384  10.964  18.098  0.00  0.00    +0.000 C 
ENDBRANCH  31  33
ENDBRANCH  30  31
ENDBRANCH  29  30
ENDBRANCH  28  29
ENDBRANCH  27  28
ENDBRANCH   1  27
TORSDOF 12
ENDMDL
