MODEL 1
REMARK VINA RESULT:      -7.0      0.000      0.000
REMARK  Name = 
REMARK  7 active torsions:
REMARK  status: ('A' for Active; 'I' for Inactive)
REMARK    1  A    between atoms: C_1  and  C_2
REMARK    2  A    between atoms: C_2  and  C_3
REMARK    3  A    between atoms: C_6  and  C_7
REMARK    4  A    between atoms: N_12  and  C_13
REMARK    5  A    between atoms: C_13  and  C_14
REMARK    6  A    between atoms: C_14  and  C_15
REMARK    7  A    between atoms: C_14  and  O_16
REMARK                            x       y       z     vdW  Elec       q    Type
REMARK                         _______ _______ _______ _____ _____    ______ ____
ROOT
ATOM      1  C   UNL     1       5.251   5.813  15.668  0.00  0.00    +0.000 C 
ATOM      2  O   UNL     1       5.103   7.031  15.564  0.00  0.00    +0.000 OA
ATOM      3  N   UNL     1       4.804   5.143  16.814  0.00  0.00    +0.000 N 
ATOM      4  C   UNL     1       4.228   5.915  17.919  0.00  0.00    +0.000 C 
ATOM      5  C   UNL     1       2.798   5.438  18.257  0.00  0.00    +0.000 C 
ATOM      6  N   UNL     1       2.663   3.979  18.482  0.00  0.00    +0.000 NA
ATOM      7  C   UNL     1       3.244   3.277  17.310  0.00  0.00    +0.000 C 
ATOM      8  C   UNL     1       4.690   3.688  16.961  0.00  0.00    +0.000 C 
ENDROOT
BRANCH   1  12
ATOM      9  C   UNL     1       5.942   3.636  12.897  0.00  0.00    +0.000 A 
ATOM     10  C   UNL     1       7.232   4.074  13.101  0.00  0.00    +0.000 A 
ATOM     11  C   UNL     1       7.179   4.954  14.208  0.00  0.00    +0.000 A 
ATOM     12  C   UNL     1       5.852   5.048  14.589  0.00  0.00    +0.000 A 
ATOM     13  O   UNL     1       5.103   4.206  13.807  0.00  0.00    +0.000 OA
BRANCH   9  15
ATOM     14  C   UNL     1       4.110   3.298  11.245  0.00  0.00    +0.000 C 
ATOM     15  C   UNL     1       5.328   2.695  11.925  0.00  0.00    +0.000 C 
ENDBRANCH   9  15
ENDBRANCH   1  12
BRANCH   6  16
ATOM     16  C   UNL     1       3.309   3.517  19.723  0.00  0.00    +0.000 C 
BRANCH  16  17
ATOM     17  C   UNL     1       2.437   3.487  20.999  0.00  0.00    +0.000 C 
ATOM     18  C   UNL     1       0.971   3.178  20.729  0.00  0.00    +0.000 C 
BRANCH  17  19
ATOM     19  O   UNL     1       2.959   2.485  21.879  0.00  0.00    +0.000 OA
ATOM     20  H   UNL     1       2.301   2.336  22.581  0.00  0.00    +0.000 HD
ENDBRANCH  17  19
ENDBRANCH  16  17
ENDBRANCH   6  16
TORSDOF 5
ENDMDL
MODEL 2
REMARK VINA RESULT:      -6.9      1.421      1.509
REMARK  Name = 
REMARK  7 active torsions:
REMARK  status: ('A' for Active; 'I' for Inactive)
REMARK    1  A    between atoms: C_1  and  C_2
REMARK    2  A    between atoms: C_2  and  C_3
REMARK    3  A    between atoms: C_6  and  C_7
REMARK    4  A    between atoms: N_12  and  C_13
REMARK    5  A    between atoms: C_13  and  C_14
REMARK    6  A    between atoms: C_14  and  C_15
REMARK    7  A    between atoms: C_14  and  O_16
REMARK                            x       y       z     vdW  Elec       q    Type
REMARK                         _______ _______ _______ _____ _____    ______ ____
ROOT
ATOM      1  C   UNL     1       6.883   5.183  15.786  0.00  0.00    +0.000 C 
ATOM      2  O   UNL     1       7.579   6.132  16.148  0.00  0.00    +0.000 OA
ATOM      3  N   UNL     1       6.066   4.516  16.708  0.00  0.00    +0.000 N 
ATOM      4  C   UNL     1       6.104   4.910  18.120  0.00  0.00    +0.000 C 
ATOM      5  C   UNL     1       4.705   5.316  18.632  0.00  0.00    +0.000 C 
ATOM      6  N   UNL     1       3.633   4.325  18.371  0.00  0.00    +0.000 NA
ATOM      7  C   UNL     1       3.647   4.004  16.922  0.00  0.00    +0.000 C 
ATOM      8  C   UNL     1       5.016   3.549  16.373  0.00  0.00    +0.000 C 
ENDROOT
BRANCH   1  12
ATOM      9  C   UNL     1       6.234   3.625  12.616  0.00  0.00    +0.000 A 
ATOM     10  C   UNL     1       7.251   4.455  12.199  0.00  0.00    +0.000 A 
ATOM     11  C   UNL     1       7.679   5.163  13.347  0.00  0.00    +0.000 A 
ATOM     12  C   UNL     1       6.868   4.767  14.394  0.00  0.00    +0.000 A 
ATOM     13  O   UNL     1       6.010   3.793  13.950  0.00  0.00    +0.000 OA
BRANCH   9  15
ATOM     14  C   UNL     1       4.148   3.254  11.310  0.00  0.00    +0.000 C 
ATOM     15  C   UNL     1       5.388   2.622  11.920  0.00  0.00    +0.000 C 
ENDBRANCH   9  15
ENDBRANCH   1  12
BRANCH   6  16
ATOM     16  C   UNL     1       3.771   3.093  19.167  0.00  0.00    +0.000 C 
BRANCH  16  17
ATOM     17  C   UNL     1       2.471   2.465  19.718  0.00  0.00    +0.000 C 
ATOM     18  C   UNL     1       1.367   3.479  19.983  0.00  0.00    +0.000 C 
BRANCH  17  19
ATOM     19  O   UNL     1       1.991   1.510  18.763  0.00  0.00    +0.000 OA
ATOM     20  H   UNL     1       1.255   1.922  18.276  0.00  0.00    +0.000 HD
ENDBRANCH  17  19
ENDBRANCH  16  17
ENDBRANCH   6  16
TORSDOF 5
ENDMDL
MODEL 3
REMARK VINA RESULT:      -6.9      1.779      1.960
REMARK  Name = 
REMARK  7 active torsions:
REMARK  status: ('A' for Active; 'I' for Inactive)
REMARK    1  A    between atoms: C_1  and  C_2
REMARK    2  A    between atoms: C_2  and  C_3
REMARK    3  A    between atoms: C_6  and  C_7
REMARK    4  A    between atoms: N_12  and  C_13
REMARK    5  A    between atoms: C_13  and  C_14
REMARK    6  A    between atoms: C_14  and  C_15
REMARK    7  A    between atoms: C_14  and  O_16
REMARK                            x       y       z     vdW  Elec       q    Type
REMARK                         _______ _______ _______ _____ _____    ______ ____
ROOT
ATOM      1  C   UNL     1       6.892   4.358  16.485  0.00  0.00    +0.000 C 
ATOM      2  O   UNL     1       7.967   4.371  17.086  0.00  0.00    +0.000 OA
ATOM      3  N   UNL     1       5.686   4.315  17.197  0.00  0.00    +0.000 N 
ATOM      4  C   UNL     1       5.718   4.211  18.659  0.00  0.00    +0.000 C 
ATOM      5  C   UNL     1       4.956   5.376  19.327  0.00  0.00    +0.000 C 
ATOM      6  N   UNL     1       3.577   5.588  18.824  0.00  0.00    +0.000 NA
ATOM      7  C   UNL     1       3.638   5.710  17.347  0.00  0.00    +0.000 C 
ATOM      8  C   UNL     1       4.354   4.544  16.631  0.00  0.00    +0.000 C 
ENDROOT
BRANCH   1  12
ATOM      9  C   UNL     1       6.382   3.791  12.976  0.00  0.00    +0.000 A 
ATOM     10  C   UNL     1       7.101   4.961  12.862  0.00  0.00    +0.000 A 
ATOM     11  C   UNL     1       7.433   5.349  14.181  0.00  0.00    +0.000 A 
ATOM     12  C   UNL     1       6.856   4.427  15.035  0.00  0.00    +0.000 A 
ATOM     13  O   UNL     1       6.247   3.450  14.288  0.00  0.00    +0.000 OA
BRANCH   9  15
ATOM     14  C   UNL     1       4.385   3.340  11.560  0.00  0.00    +0.000 C 
ATOM     15  C   UNL     1       5.768   2.874  11.983  0.00  0.00    +0.000 C 
ENDBRANCH   9  15
ENDBRANCH   1  12
BRANCH   6  16
ATOM     16  C   UNL     1       2.644   4.514  19.209  0.00  0.00    +0.000 C 
BRANCH  16  17
ATOM     17  C   UNL     1       1.842   4.715  20.514  0.00  0.00    +0.000 C 
ATOM     18  C   UNL     1       2.227   3.746  21.623  0.00  0.00    +0.000 C 
BRANCH  17  19
ATOM     19  O   UNL     1       2.065   6.052  20.980  0.00  0.00    +0.000 OA
ATOM     20  H   UNL     1       2.538   5.994  21.829  0.00  0.00    +0.000 HD
ENDBRANCH  17  19
ENDBRANCH  16  17
ENDBRANCH   6  16
TORSDOF 5
ENDMDL
MODEL 4
REMARK VINA RESULT:      -6.8      2.776      4.492
REMARK  Name = 
REMARK  7 active torsions:
REMARK  status: ('A' for Active; 'I' for Inactive)
REMARK    1  A    between atoms: C_1  and  C_2
REMARK    2  A    between atoms: C_2  and  C_3
REMARK    3  A    between atoms: C_6  and  C_7
REMARK    4  A    between atoms: N_12  and  C_13
REMARK    5  A    between atoms: C_13  and  C_14
REMARK    6  A    between atoms: C_14  and  C_15
REMARK    7  A    between atoms: C_14  and  O_16
REMARK                            x       y       z     vdW  Elec       q    Type
REMARK                         _______ _______ _______ _____ _____    ______ ____
ROOT
ATOM      1  C   UNL     1       5.534   4.909  16.872  0.00  0.00    +0.000 C 
ATOM      2  O   UNL     1       5.592   4.653  15.669  0.00  0.00    +0.000 OA
ATOM      3  N   UNL     1       4.541   4.327  17.670  0.00  0.00    +0.000 N 
ATOM      4  C   UNL     1       3.527   3.470  17.046  0.00  0.00    +0.000 C 
ATOM      5  C   UNL     1       3.508   2.062  17.680  0.00  0.00    +0.000 C 
ATOM      6  N   UNL     1       3.402   2.046  19.159  0.00  0.00    +0.000 NA
ATOM      7  C   UNL     1       4.475   2.911  19.708  0.00  0.00    +0.000 C 
ATOM      8  C   UNL     1       4.506   4.345  19.135  0.00  0.00    +0.000 C 
ENDROOT
BRANCH   1  12
ATOM      9  C   UNL     1       7.653   7.642  17.841  0.00  0.00    +0.000 A 
ATOM     10  C   UNL     1       8.172   6.703  18.704  0.00  0.00    +0.000 A 
ATOM     11  C   UNL     1       7.464   5.503  18.454  0.00  0.00    +0.000 A 
ATOM     12  C   UNL     1       6.515   5.785  17.488  0.00  0.00    +0.000 A 
ATOM     13  O   UNL     1       6.662   7.088  17.086  0.00  0.00    +0.000 OA
BRANCH   9  15
ATOM     14  C   UNL     1       8.849   9.662  18.670  0.00  0.00    +0.000 C 
ATOM     15  C   UNL     1       7.965   9.071  17.584  0.00  0.00    +0.000 C 
ENDBRANCH   9  15
ENDBRANCH   1  12
BRANCH   6  16
ATOM     16  C   UNL     1       2.086   2.488  19.655  0.00  0.00    +0.000 C 
BRANCH  16  17
ATOM     17  C   UNL     1       2.075   3.368  20.925  0.00  0.00    +0.000 C 
ATOM     18  C   UNL     1       1.298   4.667  20.762  0.00  0.00    +0.000 C 
BRANCH  17  19
ATOM     19  O   UNL     1       1.483   2.615  21.991  0.00  0.00    +0.000 OA
ATOM     20  H   UNL     1       1.450   3.189  22.776  0.00  0.00    +0.000 HD
ENDBRANCH  17  19
ENDBRANCH  16  17
ENDBRANCH   6  16
TORSDOF 5
ENDMDL
MODEL 5
REMARK VINA RESULT:      -6.6      1.828      2.488
REMARK  Name = 
REMARK  7 active torsions:
REMARK  status: ('A' for Active; 'I' for Inactive)
REMARK    1  A    between atoms: C_1  and  C_2
REMARK    2  A    between atoms: C_2  and  C_3
REMARK    3  A    between atoms: C_6  and  C_7
REMARK    4  A    between atoms: N_12  and  C_13
REMARK    5  A    between atoms: C_13  and  C_14
REMARK    6  A    between atoms: C_14  and  C_15
REMARK    7  A    between atoms: C_14  and  O_16
REMARK                            x       y       z     vdW  Elec       q    Type
REMARK                         _______ _______ _______ _____ _____    ______ ____
ROOT
ATOM      1  C   UNL     1       6.852   4.614  14.155  0.00  0.00    +0.000 C 
ATOM      2  O   UNL     1       7.712   5.460  13.910  0.00  0.00    +0.000 OA
ATOM      3  N   UNL     1       6.413   4.415  15.471  0.00  0.00    +0.000 N 
ATOM      4  C   UNL     1       7.041   5.170  16.560  0.00  0.00    +0.000 C 
ATOM      5  C   UNL     1       6.000   5.984  17.358  0.00  0.00    +0.000 C 
ATOM      6  N   UNL     1       4.832   5.205  17.836  0.00  0.00    +0.000 NA
ATOM      7  C   UNL     1       4.243   4.497  16.673  0.00  0.00    +0.000 C 
ATOM      8  C   UNL     1       5.239   3.633  15.869  0.00  0.00    +0.000 C 
ENDROOT
BRANCH   1  12
ATOM      9  C   UNL     1       4.670   3.148  11.709  0.00  0.00    +0.000 A 
ATOM     10  C   UNL     1       5.789   2.399  11.417  0.00  0.00    +0.000 A 
ATOM     11  C   UNL     1       6.793   2.820  12.322  0.00  0.00    +0.000 A 
ATOM     12  C   UNL     1       6.251   3.840  13.083  0.00  0.00    +0.000 A 
ATOM     13  O   UNL     1       4.936   4.009  12.731  0.00  0.00    +0.000 OA
BRANCH   9  15
ATOM     14  C   UNL     1       3.213   4.027   9.893  0.00  0.00    +0.000 C 
ATOM     15  C   UNL     1       3.294   3.181  11.152  0.00  0.00    +0.000 C 
ENDBRANCH   9  15
ENDBRANCH   1  12
BRANCH   6  16
ATOM     16  C   UNL     1       5.168   4.243  18.900  0.00  0.00    +0.000 C 
BRANCH  16  17
ATOM     17  C   UNL     1       4.034   3.317  19.393  0.00  0.00    +0.000 C 
ATOM     18  C   UNL     1       4.525   2.132  20.213  0.00  0.00    +0.000 C 
BRANCH  17  19
ATOM     19  O   UNL     1       3.139   4.090  20.203  0.00  0.00    +0.000 OA
ATOM     20  H   UNL     1       2.255   4.041  19.797  0.00  0.00    +0.000 HD
ENDBRANCH  17  19
ENDBRANCH  16  17
ENDBRANCH   6  16
TORSDOF 5
ENDMDL
MODEL 6
REMARK VINA RESULT:      -6.4      3.155      4.934
REMARK  Name = 
REMARK  7 active torsions:
REMARK  status: ('A' for Active; 'I' for Inactive)
REMARK    1  A    between atoms: C_1  and  C_2
REMARK    2  A    between atoms: C_2  and  C_3
REMARK    3  A    between atoms: C_6  and  C_7
REMARK    4  A    between atoms: N_12  and  C_13
REMARK    5  A    between atoms: C_13  and  C_14
REMARK    6  A    between atoms: C_14  and  C_15
REMARK    7  A    between atoms: C_14  and  O_16
REMARK                            x       y       z     vdW  Elec       q    Type
REMARK                         _______ _______ _______ _____ _____    ______ ____
ROOT
ATOM      1  C   UNL     1       6.346   5.810  16.632  0.00  0.00    +0.000 C 
ATOM      2  O   UNL     1       6.697   5.504  15.492  0.00  0.00    +0.000 OA
ATOM      3  N   UNL     1       5.180   5.262  17.182  0.00  0.00    +0.000 N 
ATOM      4  C   UNL     1       4.342   4.382  16.361  0.00  0.00    +0.000 C 
ATOM      5  C   UNL     1       4.151   3.001  17.026  0.00  0.00    +0.000 C 
ATOM      6  N   UNL     1       3.681   3.046  18.432  0.00  0.00    +0.000 NA
ATOM      7  C   UNL     1       4.595   3.932  19.195  0.00  0.00    +0.000 C 
ATOM      8  C   UNL     1       4.783   5.341  18.591  0.00  0.00    +0.000 C 
ENDROOT
BRANCH   1  12
ATOM      9  C   UNL     1       8.133   8.598  18.021  0.00  0.00    +0.000 A 
ATOM     10  C   UNL     1       8.503   7.665  18.965  0.00  0.00    +0.000 A 
ATOM     11  C   UNL     1       7.902   6.446  18.571  0.00  0.00    +0.000 A 
ATOM     12  C   UNL     1       7.154   6.709  17.437  0.00  0.00    +0.000 A 
ATOM     13  O   UNL     1       7.333   8.022  17.081  0.00  0.00    +0.000 OA
BRANCH   9  15
ATOM     14  C   UNL     1       9.358  10.564  18.933  0.00  0.00    +0.000 C 
ATOM     15  C   UNL     1       8.440  10.039  17.841  0.00  0.00    +0.000 C 
ENDBRANCH   9  15
ENDBRANCH   1  12
BRANCH   6  16
ATOM     16  C   UNL     1       2.290   3.511  18.568  0.00  0.00    +0.000 C 
BRANCH  16  17
ATOM     17  C   UNL     1       1.455   2.900  19.717  0.00  0.00    +0.000 C 
ATOM     18  C   UNL     1       1.265   3.840  20.899  0.00  0.00    +0.000 C 
BRANCH  17  19
ATOM     19  O   UNL     1       0.165   2.550  19.201  0.00  0.00    +0.000 OA
ATOM     20  H   UNL     1      -0.249   1.936  19.833  0.00  0.00    +0.000 HD
ENDBRANCH  17  19
ENDBRANCH  16  17
ENDBRANCH   6  16
TORSDOF 5
ENDMDL
MODEL 7
REMARK VINA RESULT:      -6.3      1.712      1.946
REMARK  Name = 
REMARK  7 active torsions:
REMARK  status: ('A' for Active; 'I' for Inactive)
REMARK    1  A    between atoms: C_1  and  C_2
REMARK    2  A    between atoms: C_2  and  C_3
REMARK    3  A    between atoms: C_6  and  C_7
REMARK    4  A    between atoms: N_12  and  C_13
REMARK    5  A    between atoms: C_13  and  C_14
REMARK    6  A    between atoms: C_14  and  C_15
REMARK    7  A    between atoms: C_14  and  O_16
REMARK                            x       y       z     vdW  Elec       q    Type
REMARK                         _______ _______ _______ _____ _____    ______ ____
ROOT
ATOM      1  C   UNL     1       6.220   4.258  17.362  0.00  0.00    +0.000 C 
ATOM      2  O   UNL     1       7.165   4.264  18.152  0.00  0.00    +0.000 OA
ATOM      3  N   UNL     1       4.908   4.110  17.833  0.00  0.00    +0.000 N 
ATOM      4  C   UNL     1       4.679   3.887  19.263  0.00  0.00    +0.000 C 
ATOM      5  C   UNL     1       3.746   4.962  19.862  0.00  0.00    +0.000 C 
ATOM      6  N   UNL     1       2.472   5.161  19.128  0.00  0.00    +0.000 NA
ATOM      7  C   UNL     1       2.795   5.406  17.701  0.00  0.00    +0.000 C 
ATOM      8  C   UNL     1       3.691   4.332  17.047  0.00  0.00    +0.000 C 
ENDROOT
BRANCH   1  12
ATOM      9  C   UNL     1       6.416   3.951  13.790  0.00  0.00    +0.000 A 
ATOM     10  C   UNL     1       7.038   5.176  13.895  0.00  0.00    +0.000 A 
ATOM     11  C   UNL     1       7.086   5.476  15.277  0.00  0.00    +0.000 A 
ATOM     12  C   UNL     1       6.446   4.445  15.940  0.00  0.00    +0.000 A 
ATOM     13  O   UNL     1       6.073   3.492  15.026  0.00  0.00    +0.000 OA
BRANCH   9  15
ATOM     14  C   UNL     1       4.783   3.499  11.966  0.00  0.00    +0.000 C 
ATOM     15  C   UNL     1       6.079   3.077  12.638  0.00  0.00    +0.000 C 
ENDBRANCH   9  15
ENDBRANCH   1  12
BRANCH   6  16
ATOM     16  C   UNL     1       1.544   4.023  19.252  0.00  0.00    +0.000 C 
BRANCH  16  17
ATOM     17  C   UNL     1       2.038   2.799  20.055  0.00  0.00    +0.000 C 
ATOM     18  C   UNL     1       1.376   2.656  21.419  0.00  0.00    +0.000 C 
BRANCH  17  19
ATOM     19  O   UNL     1       1.767   1.617  19.291  0.00  0.00    +0.000 OA
ATOM     20  H   UNL     1       0.807   1.457  19.324  0.00  0.00    +0.000 HD
ENDBRANCH  17  19
ENDBRANCH  16  17
ENDBRANCH   6  16
TORSDOF 5
ENDMDL
MODEL 8
REMARK VINA RESULT:      -6.3      2.287      7.080
REMARK  Name = 
REMARK  7 active torsions:
REMARK  status: ('A' for Active; 'I' for Inactive)
REMARK    1  A    between atoms: C_1  and  C_2
REMARK    2  A    between atoms: C_2  and  C_3
REMARK    3  A    between atoms: C_6  and  C_7
REMARK    4  A    between atoms: N_12  and  C_13
REMARK    5  A    between atoms: C_13  and  C_14
REMARK    6  A    between atoms: C_14  and  C_15
REMARK    7  A    between atoms: C_14  and  O_16
REMARK                            x       y       z     vdW  Elec       q    Type
REMARK                         _______ _______ _______ _____ _____    ______ ____
ROOT
ATOM      1  C   UNL     1       5.344   5.453  19.091  0.00  0.00    +0.000 C 
ATOM      2  O   UNL     1       6.260   5.467  19.914  0.00  0.00    +0.000 OA
ATOM      3  N   UNL     1       5.628   5.401  17.720  0.00  0.00    +0.000 N 
ATOM      4  C   UNL     1       7.024   5.438  17.274  0.00  0.00    +0.000 C 
ATOM      5  C   UNL     1       7.376   4.206  16.412  0.00  0.00    +0.000 C 
ATOM      6  N   UNL     1       6.448   3.948  15.284  0.00  0.00    +0.000 NA
ATOM      7  C   UNL     1       5.067   3.898  15.826  0.00  0.00    +0.000 C 
ATOM      8  C   UNL     1       4.654   5.132  16.658  0.00  0.00    +0.000 C 
ENDROOT
BRANCH   1  12
ATOM      9  C   UNL     1       2.056   4.610  20.263  0.00  0.00    +0.000 A 
ATOM     10  C   UNL     1       1.834   5.956  20.071  0.00  0.00    +0.000 A 
ATOM     11  C   UNL     1       3.045   6.488  19.568  0.00  0.00    +0.000 A 
ATOM     12  C   UNL     1       3.959   5.451  19.528  0.00  0.00    +0.000 A 
ATOM     13  O   UNL     1       3.335   4.292  19.916  0.00  0.00    +0.000 OA
BRANCH   9  15
ATOM     14  C   UNL     1       1.946   2.574  21.690  0.00  0.00    +0.000 C 
ATOM     15  C   UNL     1       1.199   3.495  20.741  0.00  0.00    +0.000 C 
ENDBRANCH   9  15
ENDBRANCH   1  12
BRANCH   6  16
ATOM     16  C   UNL     1       6.539   4.954  14.212  0.00  0.00    +0.000 C 
BRANCH  16  17
ATOM     17  C   UNL     1       7.720   4.821  13.224  0.00  0.00    +0.000 C 
ATOM     18  C   UNL     1       7.294   4.789  11.763  0.00  0.00    +0.000 C 
BRANCH  17  19
ATOM     19  O   UNL     1       8.599   5.937  13.418  0.00  0.00    +0.000 OA
ATOM     20  H   UNL     1       9.211   5.709  14.140  0.00  0.00    +0.000 HD
ENDBRANCH  17  19
ENDBRANCH  16  17
ENDBRANCH   6  16
TORSDOF 5
ENDMDL
MODEL 9
REMARK VINA RESULT:      -6.3      1.909      2.204
REMARK  Name = 
REMARK  7 active torsions:
REMARK  status: ('A' for Active; 'I' for Inactive)
REMARK    1  A    between atoms: C_1  and  C_2
REMARK    2  A    between atoms: C_2  and  C_3
REMARK    3  A    between atoms: C_6  and  C_7
REMARK    4  A    between atoms: N_12  and  C_13
REMARK    5  A    between atoms: C_13  and  C_14
REMARK    6  A    between atoms: C_14  and  C_15
REMARK    7  A    between atoms: C_14  and  O_16
REMARK                            x       y       z     vdW  Elec       q    Type
REMARK                         _______ _______ _______ _____ _____    ______ ____
ROOT
ATOM      1  C   UNL     1       6.964   4.382  16.428  0.00  0.00    +0.000 C 
ATOM      2  O   UNL     1       8.049   4.438  17.008  0.00  0.00    +0.000 OA
ATOM      3  N   UNL     1       5.773   4.317  17.163  0.00  0.00    +0.000 N 
ATOM      4  C   UNL     1       5.834   4.240  18.626  0.00  0.00    +0.000 C 
ATOM      5  C   UNL     1       5.049   5.394  19.287  0.00  0.00    +0.000 C 
ATOM      6  N   UNL     1       3.656   5.556  18.806  0.00  0.00    +0.000 NA
ATOM      7  C   UNL     1       3.687   5.653  17.326  0.00  0.00    +0.000 C 
ATOM      8  C   UNL     1       4.424   4.496  16.617  0.00  0.00    +0.000 C 
ENDROOT
BRANCH   1  12
ATOM      9  C   UNL     1       6.373   3.759  12.941  0.00  0.00    +0.000 A 
ATOM     10  C   UNL     1       7.111   4.912  12.790  0.00  0.00    +0.000 A 
ATOM     11  C   UNL     1       7.477   5.320  14.095  0.00  0.00    +0.000 A 
ATOM     12  C   UNL     1       6.900   4.424  14.977  0.00  0.00    +0.000 A 
ATOM     13  O   UNL     1       6.258   3.445  14.262  0.00  0.00    +0.000 OA
BRANCH   9  15
ATOM     14  C   UNL     1       4.360   3.341  11.538  0.00  0.00    +0.000 C 
ATOM     15  C   UNL     1       5.723   2.833  11.979  0.00  0.00    +0.000 C 
ENDBRANCH   9  15
ENDBRANCH   1  12
BRANCH   6  16
ATOM     16  C   UNL     1       2.763   4.462  19.226  0.00  0.00    +0.000 C 
BRANCH  16  17
ATOM     17  C   UNL     1       2.298   3.475  18.131  0.00  0.00    +0.000 C 
ATOM     18  C   UNL     1       2.528   2.013  18.488  0.00  0.00    +0.000 C 
BRANCH  17  19
ATOM     19  O   UNL     1       0.897   3.675  17.907  0.00  0.00    +0.000 OA
ATOM     20  H   UNL     1       0.696   3.373  17.003  0.00  0.00    +0.000 HD
ENDBRANCH  17  19
ENDBRANCH  16  17
ENDBRANCH   6  16
TORSDOF 5
ENDMDL
