MODEL 1
REMARK VINA RESULT:      -7.9      0.000      0.000
REMARK  Name = 
REMARK  4 active torsions:
REMARK  status: ('A' for Active; 'I' for Inactive)
REMARK    1  A    between atoms: C_1  and  C_2
REMARK    2  A    between atoms: C_2  and  C_3
REMARK    3  A    between atoms: C_3  and  N_4
REMARK    4  A    between atoms: C_3  and  C_18
REMARK                            x       y       z     vdW  Elec       q    Type
REMARK                         _______ _______ _______ _____ _____    ______ ____
ROOT
ATOM      1  N   UNL     1       2.208   7.119  18.814  0.00  0.00    +0.000 N 
ATOM      2  C   UNL     1       1.985   8.375  18.318  0.00  0.00    +0.000 C 
ATOM      3  O   UNL     1       2.347   8.714  17.196  0.00  0.00    +0.000 OA
ATOM      4  N   UNL     1       1.320   9.230  19.171  0.00  0.00    +0.000 N 
ATOM      5  C   UNL     1       0.913  10.546  18.672  0.00  0.00    +0.000 C 
ATOM      6  C   UNL     1      -0.488  10.922  19.190  0.00  0.00    +0.000 C 
ATOM      7  N   UNL     1      -0.531  10.806  20.649  0.00  0.00    +0.000 N 
ATOM      8  C   UNL     1      -1.009  11.781  21.467  0.00  0.00    +0.000 A 
ATOM      9  N   UNL     1      -0.691  11.872  22.742  0.00  0.00    +0.000 NA
ATOM     10  C   UNL     1      -1.275  12.978  23.322  0.00  0.00    +0.000 A 
ATOM     11  C   UNL     1      -2.100  13.711  22.503  0.00  0.00    +0.000 A 
ATOM     12  S   UNL     1      -2.112  13.017  20.943  0.00  0.00    +0.000 S 
ATOM     13  C   UNL     1      -0.070   9.533  21.216  0.00  0.00    +0.000 C 
ATOM     14  C   UNL     1       1.300   9.131  20.640  0.00  0.00    +0.000 C 
ATOM     15  H   UNL     1       1.478   6.774  19.416  0.00  0.00    +0.000 HD
ENDROOT
BRANCH   1  16
ATOM     16  C   UNL     1       2.919   6.120  18.027  0.00  0.00    +0.000 C 
BRANCH  16  17
ATOM     17  C   UNL     1       2.502   4.708  18.422  0.00  0.00    +0.000 A 
ATOM     18  C   UNL     1       2.580   3.678  17.470  0.00  0.00    +0.000 A 
ATOM     19  C   UNL     1       2.304   2.352  17.816  0.00  0.00    +0.000 A 
ATOM     20  C   UNL     1       1.930   2.035  19.120  0.00  0.00    +0.000 A 
ATOM     21  C   UNL     1       1.804   3.053  20.061  0.00  0.00    +0.000 A 
ATOM     22 CL   UNL     1       1.339   2.666  21.675  0.00  0.00    +0.000 Cl
ATOM     23  C   UNL     1       2.073   4.380  19.719  0.00  0.00    +0.000 A 
ENDBRANCH  16  17
BRANCH  16  25
ATOM     24  C   UNL     1       5.105   6.476  16.758  0.00  0.00    +0.000 C 
ATOM     25  C   UNL     1       4.437   6.374  18.122  0.00  0.00    +0.000 C 
ENDBRANCH  16  25
ENDBRANCH   1  16
TORSDOF 3
ENDMDL
MODEL 2
REMARK VINA RESULT:      -7.4      1.024      1.337
REMARK  Name = 
REMARK  4 active torsions:
REMARK  status: ('A' for Active; 'I' for Inactive)
REMARK    1  A    between atoms: C_1  and  C_2
REMARK    2  A    between atoms: C_2  and  C_3
REMARK    3  A    between atoms: C_3  and  N_4
REMARK    4  A    between atoms: C_3  and  C_18
REMARK                            x       y       z     vdW  Elec       q    Type
REMARK                         _______ _______ _______ _____ _____    ______ ____
ROOT
ATOM      1  N   UNL     1       2.117   7.258  19.025  0.00  0.00    +0.000 N 
ATOM      2  C   UNL     1       1.846   8.479  18.468  0.00  0.00    +0.000 C 
ATOM      3  O   UNL     1       2.149   8.758  17.313  0.00  0.00    +0.000 OA
ATOM      4  N   UNL     1       1.203   9.369  19.302  0.00  0.00    +0.000 N 
ATOM      5  C   UNL     1       0.747  10.647  18.747  0.00  0.00    +0.000 C 
ATOM      6  C   UNL     1      -0.637  11.027  19.309  0.00  0.00    +0.000 C 
ATOM      7  N   UNL     1      -0.610  10.996  20.772  0.00  0.00    +0.000 N 
ATOM      8  C   UNL     1      -1.070  12.008  21.554  0.00  0.00    +0.000 A 
ATOM      9  N   UNL     1      -0.695  12.179  22.805  0.00  0.00    +0.000 NA
ATOM     10  C   UNL     1      -1.275  13.307  23.348  0.00  0.00    +0.000 A 
ATOM     11  C   UNL     1      -2.151  13.976  22.527  0.00  0.00    +0.000 A 
ATOM     12  S   UNL     1      -2.221  13.191  21.013  0.00  0.00    +0.000 S 
ATOM     13  C   UNL     1      -0.097   9.766  21.389  0.00  0.00    +0.000 C 
ATOM     14  C   UNL     1       1.253   9.356  20.773  0.00  0.00    +0.000 C 
ATOM     15  H   UNL     1       1.423   6.936  19.680  0.00  0.00    +0.000 HD
ENDROOT
BRANCH   1  16
ATOM     16  C   UNL     1       2.811   6.228  18.264  0.00  0.00    +0.000 C 
BRANCH  16  17
ATOM     17  C   UNL     1       2.513   4.838  18.816  0.00  0.00    +0.000 A 
ATOM     18  C   UNL     1       1.442   4.671  19.710  0.00  0.00    +0.000 A 
ATOM     19  C   UNL     1       1.071   3.401  20.163  0.00  0.00    +0.000 A 
ATOM     20  C   UNL     1       1.778   2.277  19.741  0.00  0.00    +0.000 A 
ATOM     21  C   UNL     1       2.870   2.434  18.892  0.00  0.00    +0.000 A 
ATOM     22 CL   UNL     1       3.747   1.047  18.370  0.00  0.00    +0.000 Cl
ATOM     23  C   UNL     1       3.248   3.701  18.442  0.00  0.00    +0.000 A 
ENDBRANCH  16  17
BRANCH  16  25
ATOM     24  C   UNL     1       4.843   6.618  16.767  0.00  0.00    +0.000 C 
ATOM     25  C   UNL     1       4.315   6.563  18.195  0.00  0.00    +0.000 C 
ENDBRANCH  16  25
ENDBRANCH   1  16
TORSDOF 3
ENDMDL
MODEL 3
REMARK VINA RESULT:      -7.3      4.107      8.362
REMARK  Name = 
REMARK  4 active torsions:
REMARK  status: ('A' for Active; 'I' for Inactive)
REMARK    1  A    between atoms: C_1  and  C_2
REMARK    2  A    between atoms: C_2  and  C_3
REMARK    3  A    between atoms: C_3  and  N_4
REMARK    4  A    between atoms: C_3  and  C_18
REMARK                            x       y       z     vdW  Elec       q    Type
REMARK                         _______ _______ _______ _____ _____    ______ ____
ROOT
ATOM      1  N   UNL     1      -0.271  10.340  18.932  0.00  0.00    +0.000 N 
ATOM      2  C   UNL     1       0.300   9.515  19.864  0.00  0.00    +0.000 C 
ATOM      3  O   UNL     1      -0.113   9.438  21.016  0.00  0.00    +0.000 OA
ATOM      4  N   UNL     1       1.370   8.775  19.408  0.00  0.00    +0.000 N 
ATOM      5  C   UNL     1       1.952   7.762  20.294  0.00  0.00    +0.000 C 
ATOM      6  C   UNL     1       2.321   6.490  19.507  0.00  0.00    +0.000 C 
ATOM      7  N   UNL     1       3.173   6.835  18.367  0.00  0.00    +0.000 N 
ATOM      8  C   UNL     1       4.342   6.202  18.083  0.00  0.00    +0.000 A 
ATOM      9  N   UNL     1       5.291   6.739  17.345  0.00  0.00    +0.000 NA
ATOM     10  C   UNL     1       6.385   5.904  17.257  0.00  0.00    +0.000 A 
ATOM     11  C   UNL     1       6.253   4.687  17.882  0.00  0.00    +0.000 A 
ATOM     12  S   UNL     1       4.725   4.602  18.640  0.00  0.00    +0.000 S 
ATOM     13  C   UNL     1       2.676   7.894  17.479  0.00  0.00    +0.000 C 
ATOM     14  C   UNL     1       2.245   9.135  18.281  0.00  0.00    +0.000 C 
ATOM     15  H   UNL     1      -0.264   9.975  17.994  0.00  0.00    +0.000 HD
ENDROOT
BRANCH   1  16
ATOM     16  C   UNL     1      -1.397  11.196  19.283  0.00  0.00    +0.000 C 
BRANCH  16  17
ATOM     17  C   UNL     1      -2.489  11.131  18.221  0.00  0.00    +0.000 A 
ATOM     18  C   UNL     1      -3.761  11.652  18.513  0.00  0.00    +0.000 A 
ATOM     19  C   UNL     1      -4.762  11.704  17.538  0.00  0.00    +0.000 A 
ATOM     20  C   UNL     1      -4.511  11.221  16.256  0.00  0.00    +0.000 A 
ATOM     21  C   UNL     1      -3.270  10.660  15.967  0.00  0.00    +0.000 A 
ATOM     22 CL   UNL     1      -2.956  10.059  14.383  0.00  0.00    +0.000 Cl
ATOM     23  C   UNL     1      -2.269  10.600  16.939  0.00  0.00    +0.000 A 
ENDBRANCH  16  17
BRANCH  16  25
ATOM     24  C   UNL     1      -0.131  13.228  18.397  0.00  0.00    +0.000 C 
ATOM     25  C   UNL     1      -0.890  12.623  19.571  0.00  0.00    +0.000 C 
ENDBRANCH  16  25
ENDBRANCH   1  16
TORSDOF 3
ENDMDL
MODEL 4
REMARK VINA RESULT:      -7.1      2.693      3.890
REMARK  Name = 
REMARK  4 active torsions:
REMARK  status: ('A' for Active; 'I' for Inactive)
REMARK    1  A    between atoms: C_1  and  C_2
REMARK    2  A    between atoms: C_2  and  C_3
REMARK    3  A    between atoms: C_3  and  N_4
REMARK    4  A    between atoms: C_3  and  C_18
REMARK                            x       y       z     vdW  Elec       q    Type
REMARK                         _______ _______ _______ _____ _____    ______ ____
ROOT
ATOM      1  N   UNL     1       2.545   6.827  18.513  0.00  0.00    +0.000 N 
ATOM      2  C   UNL     1       1.873   7.229  19.636  0.00  0.00    +0.000 C 
ATOM      3  O   UNL     1       1.660   6.476  20.581  0.00  0.00    +0.000 OA
ATOM      4  N   UNL     1       1.457   8.543  19.627  0.00  0.00    +0.000 N 
ATOM      5  C   UNL     1       0.856   9.099  20.843  0.00  0.00    +0.000 C 
ATOM      6  C   UNL     1       1.337  10.543  21.083  0.00  0.00    +0.000 C 
ATOM      7  N   UNL     1       1.104  11.355  19.887  0.00  0.00    +0.000 N 
ATOM      8  C   UNL     1       0.489  12.567  19.909  0.00  0.00    +0.000 A 
ATOM      9  N   UNL     1      -0.080  13.105  18.851  0.00  0.00    +0.000 NA
ATOM     10  C   UNL     1      -0.669  14.313  19.163  0.00  0.00    +0.000 A 
ATOM     11  C   UNL     1      -0.498  14.737  20.459  0.00  0.00    +0.000 A 
ATOM     12  S   UNL     1       0.393  13.567  21.326  0.00  0.00    +0.000 S 
ATOM     13  C   UNL     1       1.623  10.817  18.623  0.00  0.00    +0.000 C 
ATOM     14  C   UNL     1       1.195   9.351  18.425  0.00  0.00    +0.000 C 
ATOM     15  H   UNL     1       3.117   7.541  18.092  0.00  0.00    +0.000 HD
ENDROOT
BRANCH   1  16
ATOM     16  C   UNL     1       3.024   5.457  18.379  0.00  0.00    +0.000 C 
BRANCH  16  17
ATOM     17  C   UNL     1       4.372   5.411  17.670  0.00  0.00    +0.000 A 
ATOM     18  C   UNL     1       4.617   4.399  16.726  0.00  0.00    +0.000 A 
ATOM     19  C   UNL     1       5.799   4.377  15.980  0.00  0.00    +0.000 A 
ATOM     20  C   UNL     1       6.765   5.361  16.177  0.00  0.00    +0.000 A 
ATOM     21  C   UNL     1       6.556   6.343  17.141  0.00  0.00    +0.000 A 
ATOM     22 CL   UNL     1       7.749   7.560  17.390  0.00  0.00    +0.000 Cl
ATOM     23  C   UNL     1       5.379   6.366  17.894  0.00  0.00    +0.000 A 
ENDBRANCH  16  17
BRANCH  16  25
ATOM     24  C   UNL     1       1.426   3.480  18.614  0.00  0.00    +0.000 C 
ATOM     25  C   UNL     1       1.935   4.594  17.709  0.00  0.00    +0.000 C 
ENDBRANCH  16  25
ENDBRANCH   1  16
TORSDOF 3
ENDMDL
MODEL 5
REMARK VINA RESULT:      -7.1      1.000      1.123
REMARK  Name = 
REMARK  4 active torsions:
REMARK  status: ('A' for Active; 'I' for Inactive)
REMARK    1  A    between atoms: C_1  and  C_2
REMARK    2  A    between atoms: C_2  and  C_3
REMARK    3  A    between atoms: C_3  and  N_4
REMARK    4  A    between atoms: C_3  and  C_18
REMARK                            x       y       z     vdW  Elec       q    Type
REMARK                         _______ _______ _______ _____ _____    ______ ____
ROOT
ATOM      1  N   UNL     1       2.404   7.362  18.701  0.00  0.00    +0.000 N 
ATOM      2  C   UNL     1       2.007   8.582  18.224  0.00  0.00    +0.000 C 
ATOM      3  O   UNL     1       2.255   8.955  17.082  0.00  0.00    +0.000 OA
ATOM      4  N   UNL     1       1.305   9.358  19.121  0.00  0.00    +0.000 N 
ATOM      5  C   UNL     1       0.718  10.617  18.653  0.00  0.00    +0.000 C 
ATOM      6  C   UNL     1      -0.681  10.832  19.261  0.00  0.00    +0.000 C 
ATOM      7  N   UNL     1      -0.616  10.718  20.720  0.00  0.00    +0.000 N 
ATOM      8  C   UNL     1      -1.149  11.635  21.569  0.00  0.00    +0.000 A 
ATOM      9  N   UNL     1      -0.762  11.768  22.821  0.00  0.00    +0.000 NA
ATOM     10  C   UNL     1      -1.431  12.802  23.442  0.00  0.00    +0.000 A 
ATOM     11  C   UNL     1      -2.386  13.432  22.679  0.00  0.00    +0.000 A 
ATOM     12  S   UNL     1      -2.418  12.734  21.121  0.00  0.00    +0.000 S 
ATOM     13  C   UNL     1       0.024   9.509  21.252  0.00  0.00    +0.000 C 
ATOM     14  C   UNL     1       1.391   9.264  20.587  0.00  0.00    +0.000 C 
ATOM     15  H   UNL     1       1.759   6.938  19.348  0.00  0.00    +0.000 HD
ENDROOT
BRANCH   1  16
ATOM     16  C   UNL     1       3.173   6.448  17.866  0.00  0.00    +0.000 C 
BRANCH  16  17
ATOM     17  C   UNL     1       3.102   5.022  18.400  0.00  0.00    +0.000 A 
ATOM     18  C   UNL     1       4.218   4.479  19.059  0.00  0.00    +0.000 A 
ATOM     19  C   UNL     1       4.163   3.214  19.651  0.00  0.00    +0.000 A 
ATOM     20  C   UNL     1       2.992   2.462  19.581  0.00  0.00    +0.000 A 
ATOM     21  C   UNL     1       1.894   2.968  18.891  0.00  0.00    +0.000 A 
ATOM     22 CL   UNL     1       0.446   2.041  18.800  0.00  0.00    +0.000 Cl
ATOM     23  C   UNL     1       1.946   4.229  18.293  0.00  0.00    +0.000 A 
ENDBRANCH  16  17
BRANCH  16  25
ATOM     24  C   UNL     1       5.212   6.655  16.344  0.00  0.00    +0.000 C 
ATOM     25  C   UNL     1       4.610   6.983  17.704  0.00  0.00    +0.000 C 
ENDBRANCH  16  25
ENDBRANCH   1  16
TORSDOF 3
ENDMDL
MODEL 6
REMARK VINA RESULT:      -7.1      2.746      3.987
REMARK  Name = 
REMARK  4 active torsions:
REMARK  status: ('A' for Active; 'I' for Inactive)
REMARK    1  A    between atoms: C_1  and  C_2
REMARK    2  A    between atoms: C_2  and  C_3
REMARK    3  A    between atoms: C_3  and  N_4
REMARK    4  A    between atoms: C_3  and  C_18
REMARK                            x       y       z     vdW  Elec       q    Type
REMARK                         _______ _______ _______ _____ _____    ______ ____
ROOT
ATOM      1  N   UNL     1       2.696   6.713  18.681  0.00  0.00    +0.000 N 
ATOM      2  C   UNL     1       1.924   7.174  19.714  0.00  0.00    +0.000 C 
ATOM      3  O   UNL     1       1.607   6.468  20.665  0.00  0.00    +0.000 OA
ATOM      4  N   UNL     1       1.534   8.493  19.607  0.00  0.00    +0.000 N 
ATOM      5  C   UNL     1       0.828   9.111  20.732  0.00  0.00    +0.000 C 
ATOM      6  C   UNL     1       1.308  10.557  20.956  0.00  0.00    +0.000 C 
ATOM      7  N   UNL     1       1.208  11.318  19.709  0.00  0.00    +0.000 N 
ATOM      8  C   UNL     1       0.616  12.537  19.617  0.00  0.00    +0.000 A 
ATOM      9  N   UNL     1       0.163  13.035  18.485  0.00  0.00    +0.000 NA
ATOM     10  C   UNL     1      -0.432  14.264  18.685  0.00  0.00    +0.000 A 
ATOM     11  C   UNL     1      -0.382  14.743  19.972  0.00  0.00    +0.000 A 
ATOM     12  S   UNL     1       0.400  13.601  20.973  0.00  0.00    +0.000 S 
ATOM     13  C   UNL     1       1.838  10.716  18.526  0.00  0.00    +0.000 C 
ATOM     14  C   UNL     1       1.406   9.249  18.351  0.00  0.00    +0.000 C 
ATOM     15  H   UNL     1       3.319   7.400  18.288  0.00  0.00    +0.000 HD
ENDROOT
BRANCH   1  16
ATOM     16  C   UNL     1       3.161   5.333  18.655  0.00  0.00    +0.000 C 
BRANCH  16  17
ATOM     17  C   UNL     1       4.602   5.246  18.167  0.00  0.00    +0.000 A 
ATOM     18  C   UNL     1       5.648   5.490  19.073  0.00  0.00    +0.000 A 
ATOM     19  C   UNL     1       6.985   5.324  18.695  0.00  0.00    +0.000 A 
ATOM     20  C   UNL     1       7.297   4.924  17.397  0.00  0.00    +0.000 A 
ATOM     21  C   UNL     1       6.272   4.723  16.477  0.00  0.00    +0.000 A 
ATOM     22 CL   UNL     1       6.654   4.231  14.871  0.00  0.00    +0.000 Cl
ATOM     23  C   UNL     1       4.936   4.894  16.848  0.00  0.00    +0.000 A 
ENDBRANCH  16  17
BRANCH  16  25
ATOM     24  C   UNL     1       1.515   3.380  18.676  0.00  0.00    +0.000 C 
ATOM     25  C   UNL     1       2.173   4.472  17.842  0.00  0.00    +0.000 C 
ENDBRANCH  16  25
ENDBRANCH   1  16
TORSDOF 3
ENDMDL
MODEL 7
REMARK VINA RESULT:      -7.1      4.341      8.367
REMARK  Name = 
REMARK  4 active torsions:
REMARK  status: ('A' for Active; 'I' for Inactive)
REMARK    1  A    between atoms: C_1  and  C_2
REMARK    2  A    between atoms: C_2  and  C_3
REMARK    3  A    between atoms: C_3  and  N_4
REMARK    4  A    between atoms: C_3  and  C_18
REMARK                            x       y       z     vdW  Elec       q    Type
REMARK                         _______ _______ _______ _____ _____    ______ ____
ROOT
ATOM      1  N   UNL     1      -0.122  10.104  18.802  0.00  0.00    +0.000 N 
ATOM      2  C   UNL     1       0.433   9.277  19.741  0.00  0.00    +0.000 C 
ATOM      3  O   UNL     1      -0.022   9.171  20.876  0.00  0.00    +0.000 OA
ATOM      4  N   UNL     1       1.537   8.570  19.316  0.00  0.00    +0.000 N 
ATOM      5  C   UNL     1       2.109   7.556  20.206  0.00  0.00    +0.000 C 
ATOM      6  C   UNL     1       2.539   6.308  19.413  0.00  0.00    +0.000 C 
ATOM      7  N   UNL     1       3.425   6.692  18.313  0.00  0.00    +0.000 N 
ATOM      8  C   UNL     1       4.619   6.093  18.064  0.00  0.00    +0.000 A 
ATOM      9  N   UNL     1       5.582   6.665  17.372  0.00  0.00    +0.000 NA
ATOM     10  C   UNL     1       6.699   5.857  17.312  0.00  0.00    +0.000 A 
ATOM     11  C   UNL     1       6.573   4.628  17.912  0.00  0.00    +0.000 A 
ATOM     12  S   UNL     1       5.020   4.493  18.609  0.00  0.00    +0.000 S 
ATOM     13  C   UNL     1       2.937   7.754  17.424  0.00  0.00    +0.000 C 
ATOM     14  C   UNL     1       2.445   8.971  18.228  0.00  0.00    +0.000 C 
ATOM     15  H   UNL     1      -0.071   9.756  17.859  0.00  0.00    +0.000 HD
ENDROOT
BRANCH   1  16
ATOM     16  C   UNL     1      -1.282  10.926  19.123  0.00  0.00    +0.000 C 
BRANCH  16  17
ATOM     17  C   UNL     1      -2.282  10.941  17.973  0.00  0.00    +0.000 A 
ATOM     18  C   UNL     1      -2.020  10.174  16.826  0.00  0.00    +0.000 A 
ATOM     19  C   UNL     1      -2.955  10.079  15.790  0.00  0.00    +0.000 A 
ATOM     20  C   UNL     1      -4.165  10.763  15.880  0.00  0.00    +0.000 A 
ATOM     21  C   UNL     1      -4.418  11.563  16.990  0.00  0.00    +0.000 A 
ATOM     22 CL   UNL     1      -5.913  12.413  17.104  0.00  0.00    +0.000 Cl
ATOM     23  C   UNL     1      -3.485  11.666  18.024  0.00  0.00    +0.000 A 
ENDBRANCH  16  17
BRANCH  16  25
ATOM     24  C   UNL     1      -0.034  13.057  18.474  0.00  0.00    +0.000 C 
ATOM     25  C   UNL     1      -0.813  12.329  19.561  0.00  0.00    +0.000 C 
ENDBRANCH  16  25
ENDBRANCH   1  16
TORSDOF 3
ENDMDL
MODEL 8
REMARK VINA RESULT:      -6.9      2.261      3.287
REMARK  Name = 
REMARK  4 active torsions:
REMARK  status: ('A' for Active; 'I' for Inactive)
REMARK    1  A    between atoms: C_1  and  C_2
REMARK    2  A    between atoms: C_2  and  C_3
REMARK    3  A    between atoms: C_3  and  N_4
REMARK    4  A    between atoms: C_3  and  C_18
REMARK                            x       y       z     vdW  Elec       q    Type
REMARK                         _______ _______ _______ _____ _____    ______ ____
ROOT
ATOM      1  N   UNL     1       2.383   5.628  19.331  0.00  0.00    +0.000 N 
ATOM      2  C   UNL     1       2.503   6.709  18.499  0.00  0.00    +0.000 C 
ATOM      3  O   UNL     1       3.004   6.628  17.383  0.00  0.00    +0.000 OA
ATOM      4  N   UNL     1       2.014   7.893  19.009  0.00  0.00    +0.000 N 
ATOM      5  C   UNL     1       1.971   9.069  18.136  0.00  0.00    +0.000 C 
ATOM      6  C   UNL     1       0.674   9.871  18.357  0.00  0.00    +0.000 C 
ATOM      7  N   UNL     1       0.516  10.186  19.779  0.00  0.00    +0.000 N 
ATOM      8  C   UNL     1       0.240  11.432  20.246  0.00  0.00    +0.000 A 
ATOM      9  N   UNL     1       0.493  11.809  21.482  0.00  0.00    +0.000 NA
ATOM     10  C   UNL     1       0.160  13.134  21.675  0.00  0.00    +0.000 A 
ATOM     11  C   UNL     1      -0.410  13.765  20.595  0.00  0.00    +0.000 A 
ATOM     12  S   UNL     1      -0.495  12.676  19.283  0.00  0.00    +0.000 S 
ATOM     13  C   UNL     1       0.618   9.057  20.712  0.00  0.00    +0.000 C 
ATOM     14  C   UNL     1       1.882   8.221  20.438  0.00  0.00    +0.000 C 
ATOM     15  H   UNL     1       1.556   5.635  19.905  0.00  0.00    +0.000 HD
ENDROOT
BRANCH   1  16
ATOM     16  C   UNL     1       2.876   4.317  18.928  0.00  0.00    +0.000 C 
BRANCH  16  17
ATOM     17  C   UNL     1       4.290   4.409  18.365  0.00  0.00    +0.000 A 
ATOM     18  C   UNL     1       4.533   3.984  17.048  0.00  0.00    +0.000 A 
ATOM     19  C   UNL     1       5.791   4.143  16.458  0.00  0.00    +0.000 A 
ATOM     20  C   UNL     1       6.833   4.717  17.183  0.00  0.00    +0.000 A 
ATOM     21  C   UNL     1       6.618   5.100  18.503  0.00  0.00    +0.000 A 
ATOM     22 CL   UNL     1       7.904   5.808  19.404  0.00  0.00    +0.000 Cl
ATOM     23  C   UNL     1       5.365   4.938  19.099  0.00  0.00    +0.000 A 
ENDBRANCH  16  17
BRANCH  16  25
ATOM     24  C   UNL     1       1.037   2.570  18.641  0.00  0.00    +0.000 C 
ATOM     25  C   UNL     1       1.864   3.658  17.969  0.00  0.00    +0.000 C 
ENDBRANCH  16  25
ENDBRANCH   1  16
TORSDOF 3
ENDMDL
MODEL 9
REMARK VINA RESULT:      -6.8      2.339      3.494
REMARK  Name = 
REMARK  4 active torsions:
REMARK  status: ('A' for Active; 'I' for Inactive)
REMARK    1  A    between atoms: C_1  and  C_2
REMARK    2  A    between atoms: C_2  and  C_3
REMARK    3  A    between atoms: C_3  and  N_4
REMARK    4  A    between atoms: C_3  and  C_18
REMARK                            x       y       z     vdW  Elec       q    Type
REMARK                         _______ _______ _______ _____ _____    ______ ____
ROOT
ATOM      1  N   UNL     1       2.602   5.814  19.301  0.00  0.00    +0.000 N 
ATOM      2  C   UNL     1       2.581   6.968  18.566  0.00  0.00    +0.000 C 
ATOM      3  O   UNL     1       3.083   7.047  17.449  0.00  0.00    +0.000 OA
ATOM      4  N   UNL     1       1.950   8.034  19.172  0.00  0.00    +0.000 N 
ATOM      5  C   UNL     1       1.755   9.266  18.402  0.00  0.00    +0.000 C 
ATOM      6  C   UNL     1       0.369   9.876  18.683  0.00  0.00    +0.000 C 
ATOM      7  N   UNL     1       0.179  10.047  20.125  0.00  0.00    +0.000 N 
ATOM      8  C   UNL     1      -0.249  11.203  20.696  0.00  0.00    +0.000 A 
ATOM      9  N   UNL     1      -0.039  11.502  21.961  0.00  0.00    +0.000 NA
ATOM     10  C   UNL     1      -0.535  12.754  22.265  0.00  0.00    +0.000 A 
ATOM     11  C   UNL     1      -1.185  13.398  21.239  0.00  0.00    +0.000 A 
ATOM     12  S   UNL     1      -1.140  12.423  19.838  0.00  0.00    +0.000 S 
ATOM     13  C   UNL     1       0.427   8.864  20.959  0.00  0.00    +0.000 C 
ATOM     14  C   UNL     1       1.784   8.220  20.622  0.00  0.00    +0.000 C 
ATOM     15  H   UNL     1       1.784   5.668  19.869  0.00  0.00    +0.000 HD
ENDROOT
BRANCH   1  16
ATOM     16  C   UNL     1       3.254   4.615  18.790  0.00  0.00    +0.000 C 
BRANCH  16  17
ATOM     17  C   UNL     1       4.694   4.903  18.381  0.00  0.00    +0.000 A 
ATOM     18  C   UNL     1       5.605   5.357  19.349  0.00  0.00    +0.000 A 
ATOM     19  C   UNL     1       6.957   5.538  19.041  0.00  0.00    +0.000 A 
ATOM     20  C   UNL     1       7.418   5.280  17.751  0.00  0.00    +0.000 A 
ATOM     21  C   UNL     1       6.517   4.874  16.771  0.00  0.00    +0.000 A 
ATOM     22 CL   UNL     1       7.082   4.558  15.175  0.00  0.00    +0.000 Cl
ATOM     23  C   UNL     1       5.165   4.698  17.072  0.00  0.00    +0.000 A 
ENDBRANCH  16  17
BRANCH  16  25
ATOM     24  C   UNL     1       2.244   2.491  17.797  0.00  0.00    +0.000 C 
ATOM     25  C   UNL     1       2.396   4.001  17.666  0.00  0.00    +0.000 C 
ENDBRANCH  16  25
ENDBRANCH   1  16
TORSDOF 3
ENDMDL
