MODEL 1
REMARK VINA RESULT:      -8.0      0.000      0.000
REMARK  Name = 
REMARK  5 active torsions:
REMARK  status: ('A' for Active; 'I' for Inactive)
REMARK    1  A    between atoms: C_2  and  C_3
REMARK    2  A    between atoms: C_3  and  O_4
REMARK    3  A    between atoms: O_4  and  C_5
REMARK    4  A    between atoms: C_5  and  C_7
REMARK    5  A    between atoms: N_14  and  C_15
REMARK                            x       y       z     vdW  Elec       q    Type
REMARK                         _______ _______ _______ _____ _____    ______ ____
ROOT
ATOM      1  O   UNL     1       0.707   4.392  20.080  0.00  0.00    +0.000 OA
ATOM      2  C   UNL     1       1.837   4.576  20.527  0.00  0.00    +0.000 C 
ATOM      3  N   UNL     1       2.549   5.768  20.504  0.00  0.00    +0.000 N 
ATOM      4  H   UNL     1       3.514   5.719  20.803  0.00  0.00    +0.000 HD
ENDROOT
BRANCH   3   5
ATOM      5  C   UNL     1       2.106   7.001  19.972  0.00  0.00    +0.000 A 
ATOM      6  C   UNL     1       2.372   7.404  18.651  0.00  0.00    +0.000 A 
ATOM      7  C   UNL     1       1.960   8.651  18.171  0.00  0.00    +0.000 A 
ATOM      8  C   UNL     1       1.264   9.485  19.023  0.00  0.00    +0.000 A 
ATOM      9  C   UNL     1       0.963   9.088  20.328  0.00  0.00    +0.000 A 
ATOM     10  C   UNL     1       1.370   7.851  20.814  0.00  0.00    +0.000 A 
ATOM     11  C   UNL     1       0.255  10.188  21.059  0.00  0.00    +0.000 C 
ATOM     12  C   UNL     1      -0.217  11.071  19.894  0.00  0.00    +0.000 C 
ATOM     13  C   UNL     1       0.802  10.884  18.762  0.00  0.00    +0.000 C 
ENDBRANCH   3   5
BRANCH   2  14
ATOM     14  C   UNL     1       2.561   3.450  21.268  0.00  0.00    +0.000 C 
BRANCH  14  15
ATOM     15  O   UNL     1       2.997   2.357  20.461  0.00  0.00    +0.000 OA
BRANCH  15  16
ATOM     16  C   UNL     1       4.315   2.395  20.134  0.00  0.00    +0.000 C 
ATOM     17  O   UNL     1       5.205   1.742  20.646  0.00  0.00    +0.000 OA
BRANCH  16  18
ATOM     18  C   UNL     1       4.514   3.317  18.991  0.00  0.00    +0.000 A 
ATOM     19  C   UNL     1       5.385   4.402  19.156  0.00  0.00    +0.000 A 
ATOM     20  C   UNL     1       5.604   5.286  18.100  0.00  0.00    +0.000 A 
ATOM     21  C   UNL     1       4.948   5.092  16.884  0.00  0.00    +0.000 A 
ATOM     22 CL   UNL     1       5.225   6.176  15.579  0.00  0.00    +0.000 Cl
ATOM     23  C   UNL     1       4.064   4.025  16.720  0.00  0.00    +0.000 A 
ATOM     24  C   UNL     1       3.844   3.135  17.773  0.00  0.00    +0.000 A 
ENDBRANCH  16  18
ENDBRANCH  15  16
ENDBRANCH  14  15
ENDBRANCH   2  14
TORSDOF 5
ENDMDL
MODEL 2
REMARK VINA RESULT:      -7.9      0.134      1.019
REMARK  Name = 
REMARK  5 active torsions:
REMARK  status: ('A' for Active; 'I' for Inactive)
REMARK    1  A    between atoms: C_2  and  C_3
REMARK    2  A    between atoms: C_3  and  O_4
REMARK    3  A    between atoms: O_4  and  C_5
REMARK    4  A    between atoms: C_5  and  C_7
REMARK    5  A    between atoms: N_14  and  C_15
REMARK                            x       y       z     vdW  Elec       q    Type
REMARK                         _______ _______ _______ _____ _____    ______ ____
ROOT
ATOM      1  O   UNL     1       0.924   4.357  19.656  0.00  0.00    +0.000 OA
ATOM      2  C   UNL     1       1.902   4.592  20.362  0.00  0.00    +0.000 C 
ATOM      3  N   UNL     1       2.486   5.834  20.577  0.00  0.00    +0.000 N 
ATOM      4  H   UNL     1       3.359   5.836  21.088  0.00  0.00    +0.000 HD
ENDROOT
BRANCH   3   5
ATOM      5  C   UNL     1       2.059   7.068  20.034  0.00  0.00    +0.000 A 
ATOM      6  C   UNL     1       2.352   7.464  18.717  0.00  0.00    +0.000 A 
ATOM      7  C   UNL     1       1.955   8.712  18.225  0.00  0.00    +0.000 A 
ATOM      8  C   UNL     1       1.249   9.553  19.062  0.00  0.00    +0.000 A 
ATOM      9  C   UNL     1       0.923   9.162  20.363  0.00  0.00    +0.000 A 
ATOM     10  C   UNL     1       1.314   7.924  20.860  0.00  0.00    +0.000 A 
ATOM     11  C   UNL     1       0.209  10.269  21.078  0.00  0.00    +0.000 C 
ATOM     12  C   UNL     1      -0.237  11.151  19.901  0.00  0.00    +0.000 C 
ATOM     13  C   UNL     1       0.801  10.954  18.788  0.00  0.00    +0.000 C 
ENDBRANCH   3   5
BRANCH   2  14
ATOM     14  C   UNL     1       2.544   3.470  21.181  0.00  0.00    +0.000 C 
BRANCH  14  15
ATOM     15  O   UNL     1       3.014   2.349  20.433  0.00  0.00    +0.000 OA
BRANCH  15  16
ATOM     16  C   UNL     1       4.339   2.389  20.141  0.00  0.00    +0.000 C 
ATOM     17  O   UNL     1       5.212   1.709  20.649  0.00  0.00    +0.000 OA
BRANCH  16  18
ATOM     18  C   UNL     1       4.574   3.352  19.040  0.00  0.00    +0.000 A 
ATOM     19  C   UNL     1       3.965   3.107  17.802  0.00  0.00    +0.000 A 
ATOM     20  C   UNL     1       4.156   3.996  16.744  0.00  0.00    +0.000 A 
ATOM     21  C   UNL     1       4.962   5.121  16.919  0.00  0.00    +0.000 A 
ATOM     22 CL   UNL     1       5.191   6.221  15.617  0.00  0.00    +0.000 Cl
ATOM     23  C   UNL     1       5.588   5.360  18.143  0.00  0.00    +0.000 A 
ATOM     24  C   UNL     1       5.396   4.475  19.206  0.00  0.00    +0.000 A 
ENDBRANCH  16  18
ENDBRANCH  15  16
ENDBRANCH  14  15
ENDBRANCH   2  14
TORSDOF 5
ENDMDL
MODEL 3
REMARK VINA RESULT:      -7.8      3.771      5.709
REMARK  Name = 
REMARK  5 active torsions:
REMARK  status: ('A' for Active; 'I' for Inactive)
REMARK    1  A    between atoms: C_2  and  C_3
REMARK    2  A    between atoms: C_3  and  O_4
REMARK    3  A    between atoms: O_4  and  C_5
REMARK    4  A    between atoms: C_5  and  C_7
REMARK    5  A    between atoms: N_14  and  C_15
REMARK                            x       y       z     vdW  Elec       q    Type
REMARK                         _______ _______ _______ _____ _____    ______ ____
ROOT
ATOM      1  O   UNL     1       4.718   7.100  16.571  0.00  0.00    +0.000 OA
ATOM      2  C   UNL     1       5.580   6.690  17.344  0.00  0.00    +0.000 C 
ATOM      3  N   UNL     1       5.385   5.838  18.422  0.00  0.00    +0.000 N 
ATOM      4  H   UNL     1       6.181   5.697  19.031  0.00  0.00    +0.000 HD
ENDROOT
BRANCH   3   5
ATOM      5  C   UNL     1       4.157   5.267  18.831  0.00  0.00    +0.000 A 
ATOM      6  C   UNL     1       3.286   5.899  19.737  0.00  0.00    +0.000 A 
ATOM      7  C   UNL     1       2.101   5.286  20.157  0.00  0.00    +0.000 A 
ATOM      8  C   UNL     1       1.790   4.042  19.648  0.00  0.00    +0.000 A 
ATOM      9  C   UNL     1       2.627   3.414  18.722  0.00  0.00    +0.000 A 
ATOM     10  C   UNL     1       3.808   4.015  18.301  0.00  0.00    +0.000 A 
ATOM     11  C   UNL     1       2.097   2.058  18.371  0.00  0.00    +0.000 C 
ATOM     12  C   UNL     1       0.639   2.172  18.843  0.00  0.00    +0.000 C 
ATOM     13  C   UNL     1       0.633   3.165  20.012  0.00  0.00    +0.000 C 
ENDBRANCH   3   5
BRANCH   2  14
ATOM     14  C   UNL     1       7.050   7.047  17.110  0.00  0.00    +0.000 C 
BRANCH  14  15
ATOM     15  O   UNL     1       7.690   6.364  16.032  0.00  0.00    +0.000 OA
BRANCH  15  16
ATOM     16  C   UNL     1       7.579   5.012  16.083  0.00  0.00    +0.000 C 
ATOM     17  O   UNL     1       7.977   4.288  16.976  0.00  0.00    +0.000 OA
BRANCH  16  18
ATOM     18  C   UNL     1       6.824   4.533  14.900  0.00  0.00    +0.000 A 
ATOM     19  C   UNL     1       7.438   4.614  13.643  0.00  0.00    +0.000 A 
ATOM     20  C   UNL     1       6.763   4.165  12.509  0.00  0.00    +0.000 A 
ATOM     21  C   UNL     1       5.473   3.647  12.628  0.00  0.00    +0.000 A 
ATOM     22 CL   UNL     1       4.643   3.085  11.230  0.00  0.00    +0.000 Cl
ATOM     23  C   UNL     1       4.848   3.583  13.874  0.00  0.00    +0.000 A 
ATOM     24  C   UNL     1       5.523   4.026  15.013  0.00  0.00    +0.000 A 
ENDBRANCH  16  18
ENDBRANCH  15  16
ENDBRANCH  14  15
ENDBRANCH   2  14
TORSDOF 5
ENDMDL
MODEL 4
REMARK VINA RESULT:      -7.5      3.532      5.647
REMARK  Name = 
REMARK  5 active torsions:
REMARK  status: ('A' for Active; 'I' for Inactive)
REMARK    1  A    between atoms: C_2  and  C_3
REMARK    2  A    between atoms: C_3  and  O_4
REMARK    3  A    between atoms: O_4  and  C_5
REMARK    4  A    between atoms: C_5  and  C_7
REMARK    5  A    between atoms: N_14  and  C_15
REMARK                            x       y       z     vdW  Elec       q    Type
REMARK                         _______ _______ _______ _____ _____    ______ ____
ROOT
ATOM      1  O   UNL     1       6.769   5.662  19.401  0.00  0.00    +0.000 OA
ATOM      2  C   UNL     1       6.380   6.140  18.338  0.00  0.00    +0.000 C 
ATOM      3  N   UNL     1       5.080   6.124  17.852  0.00  0.00    +0.000 N 
ATOM      4  H   UNL     1       4.952   6.453  16.904  0.00  0.00    +0.000 HD
ENDROOT
BRANCH   3   5
ATOM      5  C   UNL     1       3.950   5.564  18.493  0.00  0.00    +0.000 A 
ATOM      6  C   UNL     1       3.200   6.257  19.460  0.00  0.00    +0.000 A 
ATOM      7  C   UNL     1       2.116   5.657  20.109  0.00  0.00    +0.000 A 
ATOM      8  C   UNL     1       1.782   4.362  19.769  0.00  0.00    +0.000 A 
ATOM      9  C   UNL     1       2.497   3.670  18.788  0.00  0.00    +0.000 A 
ATOM     10  C   UNL     1       3.577   4.258  18.139  0.00  0.00    +0.000 A 
ATOM     11  C   UNL     1       1.975   2.273  18.647  0.00  0.00    +0.000 C 
ATOM     12  C   UNL     1       0.600   2.395  19.322  0.00  0.00    +0.000 C 
ATOM     13  C   UNL     1       0.729   3.495  20.383  0.00  0.00    +0.000 C 
ENDBRANCH   3   5
BRANCH   2  14
ATOM     14  C   UNL     1       7.352   6.917  17.447  0.00  0.00    +0.000 C 
BRANCH  14  15
ATOM     15  O   UNL     1       7.519   6.412  16.124  0.00  0.00    +0.000 OA
BRANCH  15  16
ATOM     16  C   UNL     1       7.607   5.059  16.049  0.00  0.00    +0.000 C 
ATOM     17  O   UNL     1       8.142   4.324  16.859  0.00  0.00    +0.000 OA
BRANCH  16  18
ATOM     18  C   UNL     1       6.883   4.581  14.848  0.00  0.00    +0.000 A 
ATOM     19  C   UNL     1       5.624   3.992  15.022  0.00  0.00    +0.000 A 
ATOM     20  C   UNL     1       4.908   3.538  13.914  0.00  0.00    +0.000 A 
ATOM     21  C   UNL     1       5.454   3.664  12.636  0.00  0.00    +0.000 A 
ATOM     22 CL   UNL     1       4.568   3.113  11.269  0.00  0.00    +0.000 Cl
ATOM     23  C   UNL     1       6.716   4.231  12.458  0.00  0.00    +0.000 A 
ATOM     24  C   UNL     1       7.434   4.691  13.564  0.00  0.00    +0.000 A 
ENDBRANCH  16  18
ENDBRANCH  15  16
ENDBRANCH  14  15
ENDBRANCH   2  14
TORSDOF 5
ENDMDL
MODEL 5
REMARK VINA RESULT:      -7.5      1.826      2.291
REMARK  Name = 
REMARK  5 active torsions:
REMARK  status: ('A' for Active; 'I' for Inactive)
REMARK    1  A    between atoms: C_2  and  C_3
REMARK    2  A    between atoms: C_3  and  O_4
REMARK    3  A    between atoms: O_4  and  C_5
REMARK    4  A    between atoms: C_5  and  C_7
REMARK    5  A    between atoms: N_14  and  C_15
REMARK                            x       y       z     vdW  Elec       q    Type
REMARK                         _______ _______ _______ _____ _____    ______ ____
ROOT
ATOM      1  O   UNL     1       2.109   5.192  18.131  0.00  0.00    +0.000 OA
ATOM      2  C   UNL     1       2.720   5.399  19.177  0.00  0.00    +0.000 C 
ATOM      3  N   UNL     1       2.742   6.585  19.899  0.00  0.00    +0.000 N 
ATOM      4  H   UNL     1       3.393   6.626  20.672  0.00  0.00    +0.000 HD
ENDROOT
BRANCH   3   5
ATOM      5  C   UNL     1       2.056   7.778  19.575  0.00  0.00    +0.000 A 
ATOM      6  C   UNL     1       2.128   8.380  18.306  0.00  0.00    +0.000 A 
ATOM      7  C   UNL     1       1.474   9.586  18.032  0.00  0.00    +0.000 A 
ATOM      8  C   UNL     1       0.736  10.175  19.038  0.00  0.00    +0.000 A 
ATOM      9  C   UNL     1       0.628   9.575  20.295  0.00  0.00    +0.000 A 
ATOM     10  C   UNL     1       1.275   8.377  20.576  0.00  0.00    +0.000 A 
ATOM     11  C   UNL     1      -0.176  10.437  21.220  0.00  0.00    +0.000 C 
ATOM     12  C   UNL     1      -0.894  11.362  20.223  0.00  0.00    +0.000 C 
ATOM     13  C   UNL     1       0.030  11.494  19.006  0.00  0.00    +0.000 C 
ENDBRANCH   3   5
BRANCH   2  14
ATOM     14  C   UNL     1       3.488   4.261  19.853  0.00  0.00    +0.000 C 
BRANCH  14  15
ATOM     15  O   UNL     1       4.539   3.680  19.084  0.00  0.00    +0.000 OA
BRANCH  15  16
ATOM     16  C   UNL     1       5.585   4.512  18.847  0.00  0.00    +0.000 C 
ATOM     17  O   UNL     1       6.202   5.152  19.679  0.00  0.00    +0.000 OA
BRANCH  16  18
ATOM     18  C   UNL     1       5.926   4.481  17.405  0.00  0.00    +0.000 A 
ATOM     19  C   UNL     1       4.976   3.974  16.509  0.00  0.00    +0.000 A 
ATOM     20  C   UNL     1       5.257   3.937  15.144  0.00  0.00    +0.000 A 
ATOM     21  C   UNL     1       6.488   4.395  14.676  0.00  0.00    +0.000 A 
ATOM     22 CL   UNL     1       6.832   4.357  12.991  0.00  0.00    +0.000 Cl
ATOM     23  C   UNL     1       7.447   4.882  15.565  0.00  0.00    +0.000 A 
ATOM     24  C   UNL     1       7.168   4.925  16.932  0.00  0.00    +0.000 A 
ENDBRANCH  16  18
ENDBRANCH  15  16
ENDBRANCH  14  15
ENDBRANCH   2  14
TORSDOF 5
ENDMDL
MODEL 6
REMARK VINA RESULT:      -7.3      6.427      8.375
REMARK  Name = 
REMARK  5 active torsions:
REMARK  status: ('A' for Active; 'I' for Inactive)
REMARK    1  A    between atoms: C_2  and  C_3
REMARK    2  A    between atoms: C_3  and  O_4
REMARK    3  A    between atoms: O_4  and  C_5
REMARK    4  A    between atoms: C_5  and  C_7
REMARK    5  A    between atoms: N_14  and  C_15
REMARK                            x       y       z     vdW  Elec       q    Type
REMARK                         _______ _______ _______ _____ _____    ______ ____
ROOT
ATOM      1  O   UNL     1       8.153   7.012  18.629  0.00  0.00    +0.000 OA
ATOM      2  C   UNL     1       7.616   7.827  17.883  0.00  0.00    +0.000 C 
ATOM      3  N   UNL     1       6.459   7.629  17.140  0.00  0.00    +0.000 N 
ATOM      4  H   UNL     1       6.219   8.358  16.482  0.00  0.00    +0.000 HD
ENDROOT
BRANCH   3   5
ATOM      5  C   UNL     1       5.671   6.455  17.111  0.00  0.00    +0.000 A 
ATOM      6  C   UNL     1       6.118   5.249  16.541  0.00  0.00    +0.000 A 
ATOM      7  C   UNL     1       5.295   4.119  16.486  0.00  0.00    +0.000 A 
ATOM      8  C   UNL     1       4.026   4.205  17.021  0.00  0.00    +0.000 A 
ATOM      9  C   UNL     1       3.577   5.385  17.619  0.00  0.00    +0.000 A 
ATOM     10  C   UNL     1       4.388   6.513  17.677  0.00  0.00    +0.000 A 
ATOM     11  C   UNL     1       2.156   5.237  18.068  0.00  0.00    +0.000 C 
ATOM     12  C   UNL     1       1.998   3.708  18.075  0.00  0.00    +0.000 C 
ATOM     13  C   UNL     1       2.950   3.165  17.000  0.00  0.00    +0.000 C 
ENDBRANCH   3   5
BRANCH   2  14
ATOM     14  C   UNL     1       8.173   9.248  17.771  0.00  0.00    +0.000 C 
BRANCH  14  15
ATOM     15  O   UNL     1       9.400   9.488  18.459  0.00  0.00    +0.000 OA
BRANCH  15  16
ATOM     16  C   UNL     1       9.357  10.527  19.332  0.00  0.00    +0.000 C 
ATOM     17  O   UNL     1       9.039  10.473  20.506  0.00  0.00    +0.000 OA
BRANCH  16  18
ATOM     18  C   UNL     1       9.828  11.759  18.657  0.00  0.00    +0.000 A 
ATOM     19  C   UNL     1       9.095  12.939  18.839  0.00  0.00    +0.000 A 
ATOM     20  C   UNL     1       9.513  14.121  18.227  0.00  0.00    +0.000 A 
ATOM     21  C   UNL     1      10.655  14.121  17.426  0.00  0.00    +0.000 A 
ATOM     22 CL   UNL     1      11.176  15.580  16.678  0.00  0.00    +0.000 Cl
ATOM     23  C   UNL     1      11.379  12.945  17.224  0.00  0.00    +0.000 A 
ATOM     24  C   UNL     1      10.966  11.761  17.839  0.00  0.00    +0.000 A 
ENDBRANCH  16  18
ENDBRANCH  15  16
ENDBRANCH  14  15
ENDBRANCH   2  14
TORSDOF 5
ENDMDL
MODEL 7
REMARK VINA RESULT:      -7.3      1.478      2.400
REMARK  Name = 
REMARK  5 active torsions:
REMARK  status: ('A' for Active; 'I' for Inactive)
REMARK    1  A    between atoms: C_2  and  C_3
REMARK    2  A    between atoms: C_3  and  O_4
REMARK    3  A    between atoms: O_4  and  C_5
REMARK    4  A    between atoms: C_5  and  C_7
REMARK    5  A    between atoms: N_14  and  C_15
REMARK                            x       y       z     vdW  Elec       q    Type
REMARK                         _______ _______ _______ _____ _____    ______ ____
ROOT
ATOM      1  O   UNL     1       1.039   4.138  19.432  0.00  0.00    +0.000 OA
ATOM      2  C   UNL     1       2.172   4.292  19.883  0.00  0.00    +0.000 C 
ATOM      3  N   UNL     1       2.751   5.495  20.264  0.00  0.00    +0.000 N 
ATOM      4  H   UNL     1       3.735   5.464  20.500  0.00  0.00    +0.000 HD
ENDROOT
BRANCH   3   5
ATOM      5  C   UNL     1       2.145   6.772  20.216  0.00  0.00    +0.000 A 
ATOM      6  C   UNL     1       1.341   7.275  21.255  0.00  0.00    +0.000 A 
ATOM      7  C   UNL     1       0.718   8.523  21.157  0.00  0.00    +0.000 A 
ATOM      8  C   UNL     1       0.920   9.269  20.013  0.00  0.00    +0.000 A 
ATOM      9  C   UNL     1       1.741   8.799  18.985  0.00  0.00    +0.000 A 
ATOM     10  C   UNL     1       2.363   7.559  19.074  0.00  0.00    +0.000 A 
ATOM     11  C   UNL     1       1.750   9.764  17.840  0.00  0.00    +0.000 C 
ATOM     12  C   UNL     1       1.217  11.038  18.513  0.00  0.00    +0.000 C 
ATOM     13  C   UNL     1       0.295  10.579  19.650  0.00  0.00    +0.000 C 
ENDBRANCH   3   5
BRANCH   2  14
ATOM     14  C   UNL     1       3.059   3.076  20.157  0.00  0.00    +0.000 C 
BRANCH  14  15
ATOM     15  O   UNL     1       4.360   3.115  19.573  0.00  0.00    +0.000 OA
BRANCH  15  16
ATOM     16  C   UNL     1       4.375   3.477  18.265  0.00  0.00    +0.000 C 
ATOM     17  O   UNL     1       3.727   2.969  17.367  0.00  0.00    +0.000 OA
BRANCH  16  18
ATOM     18  C   UNL     1       5.261   4.651  18.086  0.00  0.00    +0.000 A 
ATOM     19  C   UNL     1       4.921   5.597  17.109  0.00  0.00    +0.000 A 
ATOM     20  C   UNL     1       5.726   6.720  16.918  0.00  0.00    +0.000 A 
ATOM     21  C   UNL     1       6.872   6.893  17.694  0.00  0.00    +0.000 A 
ATOM     22 CL   UNL     1       7.861   8.282  17.464  0.00  0.00    +0.000 Cl
ATOM     23  C   UNL     1       7.227   5.944  18.654  0.00  0.00    +0.000 A 
ATOM     24  C   UNL     1       6.422   4.821  18.852  0.00  0.00    +0.000 A 
ENDBRANCH  16  18
ENDBRANCH  15  16
ENDBRANCH  14  15
ENDBRANCH   2  14
TORSDOF 5
ENDMDL
MODEL 8
REMARK VINA RESULT:      -7.2      1.535      2.306
REMARK  Name = 
REMARK  5 active torsions:
REMARK  status: ('A' for Active; 'I' for Inactive)
REMARK    1  A    between atoms: C_2  and  C_3
REMARK    2  A    between atoms: C_3  and  O_4
REMARK    3  A    between atoms: O_4  and  C_5
REMARK    4  A    between atoms: C_5  and  C_7
REMARK    5  A    between atoms: N_14  and  C_15
REMARK                            x       y       z     vdW  Elec       q    Type
REMARK                         _______ _______ _______ _____ _____    ______ ____
ROOT
ATOM      1  O   UNL     1       0.894   4.197  19.921  0.00  0.00    +0.000 OA
ATOM      2  C   UNL     1       2.104   4.391  20.014  0.00  0.00    +0.000 C 
ATOM      3  N   UNL     1       2.737   5.622  20.114  0.00  0.00    +0.000 N 
ATOM      4  H   UNL     1       3.748   5.612  20.059  0.00  0.00    +0.000 HD
ENDROOT
BRANCH   3   5
ATOM      5  C   UNL     1       2.111   6.890  20.139  0.00  0.00    +0.000 A 
ATOM      6  C   UNL     1       1.322   7.330  21.217  0.00  0.00    +0.000 A 
ATOM      7  C   UNL     1       0.678   8.571  21.190  0.00  0.00    +0.000 A 
ATOM      8  C   UNL     1       0.844   9.373  20.079  0.00  0.00    +0.000 A 
ATOM      9  C   UNL     1       1.649   8.964  19.013  0.00  0.00    +0.000 A 
ATOM     10  C   UNL     1       2.292   7.732  19.031  0.00  0.00    +0.000 A 
ATOM     11  C   UNL     1       1.618   9.982  17.914  0.00  0.00    +0.000 C 
ATOM     12  C   UNL     1       1.080  11.214  18.658  0.00  0.00    +0.000 C 
ATOM     13  C   UNL     1       0.190  10.688  19.791  0.00  0.00    +0.000 C 
ENDBRANCH   3   5
BRANCH   2  14
ATOM     14  C   UNL     1       3.063   3.203  20.120  0.00  0.00    +0.000 C 
BRANCH  14  15
ATOM     15  O   UNL     1       4.411   3.459  19.728  0.00  0.00    +0.000 OA
BRANCH  15  16
ATOM     16  C   UNL     1       4.583   3.627  18.392  0.00  0.00    +0.000 C 
ATOM     17  O   UNL     1       4.091   2.948  17.509  0.00  0.00    +0.000 OA
BRANCH  16  18
ATOM     18  C   UNL     1       5.419   4.826  18.148  0.00  0.00    +0.000 A 
ATOM     19  C   UNL     1       6.646   4.928  18.817  0.00  0.00    +0.000 A 
ATOM     20  C   UNL     1       7.464   6.037  18.606  0.00  0.00    +0.000 A 
ATOM     21  C   UNL     1       7.054   7.047  17.736  0.00  0.00    +0.000 A 
ATOM     22 CL   UNL     1       8.066   8.412  17.469  0.00  0.00    +0.000 Cl
ATOM     23  C   UNL     1       5.824   6.962  17.082  0.00  0.00    +0.000 A 
ATOM     24  C   UNL     1       5.004   5.851  17.287  0.00  0.00    +0.000 A 
ENDBRANCH  16  18
ENDBRANCH  15  16
ENDBRANCH  14  15
ENDBRANCH   2  14
TORSDOF 5
ENDMDL
MODEL 9
REMARK VINA RESULT:      -7.2      3.816      7.649
REMARK  Name = 
REMARK  5 active torsions:
REMARK  status: ('A' for Active; 'I' for Inactive)
REMARK    1  A    between atoms: C_2  and  C_3
REMARK    2  A    between atoms: C_3  and  O_4
REMARK    3  A    between atoms: O_4  and  C_5
REMARK    4  A    between atoms: C_5  and  C_7
REMARK    5  A    between atoms: N_14  and  C_15
REMARK                            x       y       z     vdW  Elec       q    Type
REMARK                         _______ _______ _______ _____ _____    ______ ____
ROOT
ATOM      1  O   UNL     1      -0.464   8.035  21.288  0.00  0.00    +0.000 OA
ATOM      2  C   UNL     1       0.674   8.488  21.386  0.00  0.00    +0.000 C 
ATOM      3  N   UNL     1       1.835   7.922  20.875  0.00  0.00    +0.000 N 
ATOM      4  H   UNL     1       2.705   8.359  21.151  0.00  0.00    +0.000 HD
ENDROOT
BRANCH   3   5
ATOM      5  C   UNL     1       1.928   6.723  20.132  0.00  0.00    +0.000 A 
ATOM      6  C   UNL     1       2.387   6.682  18.803  0.00  0.00    +0.000 A 
ATOM      7  C   UNL     1       2.423   5.485  18.080  0.00  0.00    +0.000 A 
ATOM      8  C   UNL     1       2.009   4.327  18.707  0.00  0.00    +0.000 A 
ATOM      9  C   UNL     1       1.581   4.345  20.037  0.00  0.00    +0.000 A 
ATOM     10  C   UNL     1       1.540   5.530  20.762  0.00  0.00    +0.000 A 
ATOM     11  C   UNL     1       1.135   2.979  20.461  0.00  0.00    +0.000 C 
ATOM     12  C   UNL     1       1.785   2.100  19.381  0.00  0.00    +0.000 C 
ATOM     13  C   UNL     1       1.879   2.960  18.114  0.00  0.00    +0.000 C 
ENDBRANCH   3   5
BRANCH   2  14
ATOM     14  C   UNL     1       0.902   9.845  22.054  0.00  0.00    +0.000 C 
BRANCH  14  15
ATOM     15  O   UNL     1       0.145  10.932  21.524  0.00  0.00    +0.000 OA
BRANCH  15  16
ATOM     16  C   UNL     1       0.431  11.235  20.232  0.00  0.00    +0.000 C 
ATOM     17  O   UNL     1       1.537  11.440  19.766  0.00  0.00    +0.000 OA
BRANCH  16  18
ATOM     18  C   UNL     1      -0.816  11.214  19.432  0.00  0.00    +0.000 A 
ATOM     19  C   UNL     1      -0.874  10.369  18.315  0.00  0.00    +0.000 A 
ATOM     20  C   UNL     1      -2.034  10.316  17.543  0.00  0.00    +0.000 A 
ATOM     21  C   UNL     1      -3.129  11.112  17.878  0.00  0.00    +0.000 A 
ATOM     22 CL   UNL     1      -4.562  11.041  16.930  0.00  0.00    +0.000 Cl
ATOM     23  C   UNL     1      -3.070  11.971  18.976  0.00  0.00    +0.000 A 
ATOM     24  C   UNL     1      -1.913  12.024  19.755  0.00  0.00    +0.000 A 
ENDBRANCH  16  18
ENDBRANCH  15  16
ENDBRANCH  14  15
ENDBRANCH   2  14
TORSDOF 5
ENDMDL
