MODEL 1
REMARK VINA RESULT:      -8.2      0.000      0.000
REMARK  Name = 
REMARK  6 active torsions:
REMARK  status: ('A' for Active; 'I' for Inactive)
REMARK    1  A    between atoms: C_1  and  C_2
REMARK    2  A    between atoms: C_2  and  C_3
REMARK    3  A    between atoms: C_7  and  C_8
REMARK    4  A    between atoms: C_11  and  N_12
REMARK    5  A    between atoms: C_13  and  C_15
REMARK    6  A    between atoms: C_15  and  N_16
REMARK                            x       y       z     vdW  Elec       q    Type
REMARK                         _______ _______ _______ _____ _____    ______ ____
ROOT
ATOM      1  C   UNL     1       2.270   7.196  18.653  0.00  0.00    +0.000 A 
ATOM      2  C   UNL     1       2.192   6.920  20.029  0.00  0.00    +0.000 A 
ATOM      3  C   UNL     1       1.702   7.874  20.916  0.00  0.00    +0.000 A 
ATOM      4  C   UNL     1       1.227   9.094  20.437  0.00  0.00    +0.000 A 
ATOM      5  C   UNL     1       1.278   9.373  19.073  0.00  0.00    +0.000 A 
ATOM      6  C   UNL     1       1.823   8.444  18.190  0.00  0.00    +0.000 A 
ENDROOT
BRANCH   1  13
ATOM      7  C   UNL     1       3.605   2.331  17.775  0.00  0.00    +0.000 C 
ATOM      8  C   UNL     1       3.559   3.526  18.748  0.00  0.00    +0.000 C 
ATOM      9  C   UNL     1       3.835   3.042  20.184  0.00  0.00    +0.000 C 
ATOM     10  C   UNL     1       2.111   4.032  18.683  0.00  0.00    +0.000 C 
ATOM     11  O   UNL     1       1.176   3.512  19.296  0.00  0.00    +0.000 OA
ATOM     12  N   UNL     1       1.833   5.000  17.758  0.00  0.00    +0.000 N 
ATOM     13  C   UNL     1       2.709   6.143  17.641  0.00  0.00    +0.000 C 
ATOM     14  C   UNL     1       4.177   5.782  17.726  0.00  0.00    +0.000 A 
ATOM     15  C   UNL     1       5.136   6.718  17.294  0.00  0.00    +0.000 A 
ATOM     16  C   UNL     1       6.497   6.462  17.436  0.00  0.00    +0.000 A 
ATOM     17  C   UNL     1       6.914   5.265  18.005  0.00  0.00    +0.000 A 
ATOM     18  C   UNL     1       5.973   4.322  18.424  0.00  0.00    +0.000 A 
ATOM     19  C   UNL     1       4.592   4.565  18.299  0.00  0.00    +0.000 A 
ATOM     20  H   UNL     1       0.848   5.219  17.757  0.00  0.00    +0.000 HD
ENDBRANCH   1  13
BRANCH   4  21
ATOM     21  N   UNL     1       0.633  10.031  21.286  0.00  0.00    +0.000 N 
ATOM     22  C   UNL     1      -0.410   9.720  22.139  0.00  0.00    +0.000 C 
ATOM     23  O   UNL     1      -0.847   8.586  22.335  0.00  0.00    +0.000 OA
ATOM     24  H   UNL     1       1.146  10.883  21.472  0.00  0.00    +0.000 HD
BRANCH  22  25
ATOM     25  C   UNL     1      -0.994  10.937  22.860  0.00  0.00    +0.000 C 
BRANCH  25  26
ATOM     26  N   UNL     1      -0.963  12.128  21.986  0.00  0.00    +0.000 NA
ATOM     27  C   UNL     1      -0.753  13.359  22.780  0.00  0.00    +0.000 C 
ATOM     28  C   UNL     1      -1.975  13.776  23.622  0.00  0.00    +0.000 C 
ATOM     29  O   UNL     1      -3.150  13.913  22.816  0.00  0.00    +0.000 OA
ATOM     30  C   UNL     1      -3.424  12.706  22.090  0.00  0.00    +0.000 C 
ATOM     31  C   UNL     1      -2.223  12.304  21.220  0.00  0.00    +0.000 C 
ENDBRANCH  25  26
ENDBRANCH  22  25
ENDBRANCH   4  21
TORSDOF 4
ENDMDL
MODEL 2
REMARK VINA RESULT:      -8.2      1.027      1.344
REMARK  Name = 
REMARK  6 active torsions:
REMARK  status: ('A' for Active; 'I' for Inactive)
REMARK    1  A    between atoms: C_1  and  C_2
REMARK    2  A    between atoms: C_2  and  C_3
REMARK    3  A    between atoms: C_7  and  C_8
REMARK    4  A    between atoms: C_11  and  N_12
REMARK    5  A    between atoms: C_13  and  C_15
REMARK    6  A    between atoms: C_15  and  N_16
REMARK                            x       y       z     vdW  Elec       q    Type
REMARK                         _______ _______ _______ _____ _____    ______ ____
ROOT
ATOM      1  C   UNL     1       2.368   7.323  18.386  0.00  0.00    +0.000 A 
ATOM      2  C   UNL     1       2.088   7.232  19.760  0.00  0.00    +0.000 A 
ATOM      3  C   UNL     1       1.524   8.307  20.441  0.00  0.00    +0.000 A 
ATOM      4  C   UNL     1       1.175   9.466  19.749  0.00  0.00    +0.000 A 
ATOM      5  C   UNL     1       1.426   9.562  18.382  0.00  0.00    +0.000 A 
ATOM      6  C   UNL     1       2.046   8.511  17.710  0.00  0.00    +0.000 A 
ENDROOT
BRANCH   1  13
ATOM      7  C   UNL     1       3.615   2.357  18.335  0.00  0.00    +0.000 C 
ATOM      8  C   UNL     1       3.488   3.672  19.130  0.00  0.00    +0.000 C 
ATOM      9  C   UNL     1       3.553   3.379  20.640  0.00  0.00    +0.000 C 
ATOM     10  C   UNL     1       2.082   4.196  18.803  0.00  0.00    +0.000 C 
ATOM     11  O   UNL     1       1.055   3.783  19.347  0.00  0.00    +0.000 OA
ATOM     12  N   UNL     1       1.967   5.037  17.732  0.00  0.00    +0.000 N 
ATOM     13  C   UNL     1       2.895   6.135  17.588  0.00  0.00    +0.000 C 
ATOM     14  C   UNL     1       4.323   5.757  17.917  0.00  0.00    +0.000 A 
ATOM     15  C   UNL     1       5.367   6.606  17.502  0.00  0.00    +0.000 A 
ATOM     16  C   UNL     1       6.686   6.342  17.859  0.00  0.00    +0.000 A 
ATOM     17  C   UNL     1       6.977   5.223  18.630  0.00  0.00    +0.000 A 
ATOM     18  C   UNL     1       5.953   4.365  19.036  0.00  0.00    +0.000 A 
ATOM     19  C   UNL     1       4.611   4.619  18.694  0.00  0.00    +0.000 A 
ATOM     20  H   UNL     1       0.999   5.275  17.569  0.00  0.00    +0.000 HD
ENDBRANCH   1  13
BRANCH   4  21
ATOM     21  N   UNL     1       0.512  10.522  20.380  0.00  0.00    +0.000 N 
ATOM     22  C   UNL     1      -0.760  10.933  20.025  0.00  0.00    +0.000 C 
ATOM     23  O   UNL     1      -1.487  10.356  19.216  0.00  0.00    +0.000 OA
ATOM     24  H   UNL     1       0.860  10.818  21.282  0.00  0.00    +0.000 HD
BRANCH  22  25
ATOM     25  C   UNL     1      -1.219  12.198  20.751  0.00  0.00    +0.000 C 
BRANCH  25  26
ATOM     26  N   UNL     1      -0.691  12.230  22.131  0.00  0.00    +0.000 NA
ATOM     27  C   UNL     1      -1.563  11.461  23.047  0.00  0.00    +0.000 C 
ATOM     28  C   UNL     1      -2.912  12.145  23.346  0.00  0.00    +0.000 C 
ATOM     29  O   UNL     1      -2.731  13.473  23.849  0.00  0.00    +0.000 OA
ATOM     30  C   UNL     1      -1.951  14.268  22.943  0.00  0.00    +0.000 C 
ATOM     31  C   UNL     1      -0.589  13.611  22.669  0.00  0.00    +0.000 C 
ENDBRANCH  25  26
ENDBRANCH  22  25
ENDBRANCH   4  21
TORSDOF 4
ENDMDL
MODEL 3
REMARK VINA RESULT:      -7.9      2.333      9.178
REMARK  Name = 
REMARK  6 active torsions:
REMARK  status: ('A' for Active; 'I' for Inactive)
REMARK    1  A    between atoms: C_1  and  C_2
REMARK    2  A    between atoms: C_2  and  C_3
REMARK    3  A    between atoms: C_7  and  C_8
REMARK    4  A    between atoms: C_11  and  N_12
REMARK    5  A    between atoms: C_13  and  C_15
REMARK    6  A    between atoms: C_15  and  N_16
REMARK                            x       y       z     vdW  Elec       q    Type
REMARK                         _______ _______ _______ _____ _____    ______ ____
ROOT
ATOM      1  C   UNL     1       0.630  10.576  18.852  0.00  0.00    +0.000 A 
ATOM      2  C   UNL     1       0.453   9.846  20.040  0.00  0.00    +0.000 A 
ATOM      3  C   UNL     1       1.120   8.640  20.237  0.00  0.00    +0.000 A 
ATOM      4  C   UNL     1       2.018   8.175  19.278  0.00  0.00    +0.000 A 
ATOM      5  C   UNL     1       2.221   8.899  18.106  0.00  0.00    +0.000 A 
ATOM      6  C   UNL     1       1.510  10.075  17.879  0.00  0.00    +0.000 A 
ENDROOT
BRANCH   1  13
ATOM      7  C   UNL     1      -1.944  14.508  20.886  0.00  0.00    +0.000 C 
ATOM      8  C   UNL     1      -1.640  12.996  20.883  0.00  0.00    +0.000 C 
ATOM      9  C   UNL     1      -2.152  12.358  22.188  0.00  0.00    +0.000 C 
ATOM     10  C   UNL     1      -0.107  12.902  20.872  0.00  0.00    +0.000 C 
ATOM     11  O   UNL     1       0.593  13.028  21.879  0.00  0.00    +0.000 OA
ATOM     12  N   UNL     1       0.502  12.848  19.650  0.00  0.00    +0.000 N 
ATOM     13  C   UNL     1      -0.006  11.945  18.642  0.00  0.00    +0.000 C 
ATOM     14  C   UNL     1      -1.518  11.918  18.573  0.00  0.00    +0.000 A 
ATOM     15  C   UNL     1      -2.139  11.362  17.439  0.00  0.00    +0.000 A 
ATOM     16  C   UNL     1      -3.524  11.237  17.372  0.00  0.00    +0.000 A 
ATOM     17  C   UNL     1      -4.304  11.671  18.437  0.00  0.00    +0.000 A 
ATOM     18  C   UNL     1      -3.701  12.237  19.563  0.00  0.00    +0.000 A 
ATOM     19  C   UNL     1      -2.302  12.365  19.654  0.00  0.00    +0.000 A 
ATOM     20  H   UNL     1       1.506  12.847  19.752  0.00  0.00    +0.000 HD
ENDBRANCH   1  13
BRANCH   4  21
ATOM     21  N   UNL     1       2.782   7.024  19.491  0.00  0.00    +0.000 N 
ATOM     22  C   UNL     1       2.629   5.870  18.744  0.00  0.00    +0.000 C 
ATOM     23  O   UNL     1       1.908   5.762  17.752  0.00  0.00    +0.000 OA
ATOM     24  H   UNL     1       3.637   7.124  20.021  0.00  0.00    +0.000 HD
BRANCH  22  25
ATOM     25  C   UNL     1       3.468   4.697  19.254  0.00  0.00    +0.000 C 
BRANCH  25  26
ATOM     26  N   UNL     1       2.676   3.450  19.257  0.00  0.00    +0.000 NA
ATOM     27  C   UNL     1       1.613   3.502  20.287  0.00  0.00    +0.000 C 
ATOM     28  C   UNL     1       2.139   3.395  21.732  0.00  0.00    +0.000 C 
ATOM     29  O   UNL     1       2.937   2.222  21.919  0.00  0.00    +0.000 OA
ATOM     30  C   UNL     1       4.023   2.180  20.982  0.00  0.00    +0.000 C 
ATOM     31  C   UNL     1       3.505   2.249  19.537  0.00  0.00    +0.000 C 
ENDBRANCH  25  26
ENDBRANCH  22  25
ENDBRANCH   4  21
TORSDOF 4
ENDMDL
MODEL 4
REMARK VINA RESULT:      -7.9      1.215      1.422
REMARK  Name = 
REMARK  6 active torsions:
REMARK  status: ('A' for Active; 'I' for Inactive)
REMARK    1  A    between atoms: C_1  and  C_2
REMARK    2  A    between atoms: C_2  and  C_3
REMARK    3  A    between atoms: C_7  and  C_8
REMARK    4  A    between atoms: C_11  and  N_12
REMARK    5  A    between atoms: C_13  and  C_15
REMARK    6  A    between atoms: C_15  and  N_16
REMARK                            x       y       z     vdW  Elec       q    Type
REMARK                         _______ _______ _______ _____ _____    ______ ____
ROOT
ATOM      1  C   UNL     1       2.290   7.290  18.441  0.00  0.00    +0.000 A 
ATOM      2  C   UNL     1       2.165   7.158  19.834  0.00  0.00    +0.000 A 
ATOM      3  C   UNL     1       1.568   8.163  20.590  0.00  0.00    +0.000 A 
ATOM      4  C   UNL     1       1.034   9.285  19.961  0.00  0.00    +0.000 A 
ATOM      5  C   UNL     1       1.130   9.420  18.578  0.00  0.00    +0.000 A 
ATOM      6  C   UNL     1       1.781   8.445  17.825  0.00  0.00    +0.000 A 
ENDROOT
BRANCH   1  13
ATOM      7  C   UNL     1       3.674   2.374  18.075  0.00  0.00    +0.000 C 
ATOM      8  C   UNL     1       3.511   3.632  18.952  0.00  0.00    +0.000 C 
ATOM      9  C   UNL     1       3.586   3.244  20.441  0.00  0.00    +0.000 C 
ATOM     10  C   UNL     1       2.091   4.136  18.658  0.00  0.00    +0.000 C 
ATOM     11  O   UNL     1       1.077   3.661  19.173  0.00  0.00    +0.000 OA
ATOM     12  N   UNL     1       1.952   5.040  17.642  0.00  0.00    +0.000 N 
ATOM     13  C   UNL     1       2.849   6.171  17.569  0.00  0.00    +0.000 C 
ATOM     14  C   UNL     1       4.288   5.812  17.875  0.00  0.00    +0.000 A 
ATOM     15  C   UNL     1       5.307   6.714  17.517  0.00  0.00    +0.000 A 
ATOM     16  C   UNL     1       6.633   6.465  17.857  0.00  0.00    +0.000 A 
ATOM     17  C   UNL     1       6.956   5.308  18.556  0.00  0.00    +0.000 A 
ATOM     18  C   UNL     1       5.956   4.398  18.906  0.00  0.00    +0.000 A 
ATOM     19  C   UNL     1       4.608   4.635  18.579  0.00  0.00    +0.000 A 
ATOM     20  H   UNL     1       0.978   5.261  17.493  0.00  0.00    +0.000 HD
ENDBRANCH   1  13
BRANCH   4  21
ATOM     21  N   UNL     1       0.336  10.261  20.677  0.00  0.00    +0.000 N 
ATOM     22  C   UNL     1       0.733  11.584  20.733  0.00  0.00    +0.000 C 
ATOM     23  O   UNL     1       1.655  12.072  20.078  0.00  0.00    +0.000 OA
ATOM     24  H   UNL     1      -0.618  10.052  20.941  0.00  0.00    +0.000 HD
BRANCH  22  25
ATOM     25  C   UNL     1      -0.099  12.433  21.696  0.00  0.00    +0.000 C 
BRANCH  25  26
ATOM     26  N   UNL     1      -1.500  11.965  21.729  0.00  0.00    +0.000 NA
ATOM     27  C   UNL     1      -2.337  12.740  20.785  0.00  0.00    +0.000 C 
ATOM     28  C   UNL     1      -2.612  14.188  21.237  0.00  0.00    +0.000 C 
ATOM     29  O   UNL     1      -3.189  14.232  22.547  0.00  0.00    +0.000 OA
ATOM     30  C   UNL     1      -2.360  13.552  23.501  0.00  0.00    +0.000 C 
ATOM     31  C   UNL     1      -2.112  12.097  23.076  0.00  0.00    +0.000 C 
ENDBRANCH  25  26
ENDBRANCH  22  25
ENDBRANCH   4  21
TORSDOF 4
ENDMDL
MODEL 5
REMARK VINA RESULT:      -7.9      2.814      4.006
REMARK  Name = 
REMARK  6 active torsions:
REMARK  status: ('A' for Active; 'I' for Inactive)
REMARK    1  A    between atoms: C_1  and  C_2
REMARK    2  A    between atoms: C_2  and  C_3
REMARK    3  A    between atoms: C_7  and  C_8
REMARK    4  A    between atoms: C_11  and  N_12
REMARK    5  A    between atoms: C_13  and  C_15
REMARK    6  A    between atoms: C_15  and  N_16
REMARK                            x       y       z     vdW  Elec       q    Type
REMARK                         _______ _______ _______ _____ _____    ______ ____
ROOT
ATOM      1  C   UNL     1       2.214   7.129  19.674  0.00  0.00    +0.000 A 
ATOM      2  C   UNL     1       2.230   7.613  18.355  0.00  0.00    +0.000 A 
ATOM      3  C   UNL     1       1.618   8.822  18.036  0.00  0.00    +0.000 A 
ATOM      4  C   UNL     1       1.035   9.594  19.040  0.00  0.00    +0.000 A 
ATOM      5  C   UNL     1       1.032   9.138  20.355  0.00  0.00    +0.000 A 
ATOM      6  C   UNL     1       1.589   7.900  20.667  0.00  0.00    +0.000 A 
ENDROOT
BRANCH   1  13
ATOM      7  C   UNL     1       5.263   3.265  18.262  0.00  0.00    +0.000 C 
ATOM      8  C   UNL     1       4.180   4.293  17.877  0.00  0.00    +0.000 C 
ATOM      9  C   UNL     1       4.072   4.389  16.344  0.00  0.00    +0.000 C 
ATOM     10  C   UNL     1       4.704   5.635  18.407  0.00  0.00    +0.000 C 
ATOM     11  O   UNL     1       5.545   6.320  17.821  0.00  0.00    +0.000 OA
ATOM     12  N   UNL     1       4.338   5.986  19.677  0.00  0.00    +0.000 N 
ATOM     13  C   UNL     1       2.955   5.859  20.078  0.00  0.00    +0.000 C 
ATOM     14  C   UNL     1       2.305   4.584  19.585  0.00  0.00    +0.000 A 
ATOM     15  C   UNL     1       1.095   4.164  20.170  0.00  0.00    +0.000 A 
ATOM     16  C   UNL     1       0.420   3.046  19.688  0.00  0.00    +0.000 A 
ATOM     17  C   UNL     1       0.949   2.333  18.620  0.00  0.00    +0.000 A 
ATOM     18  C   UNL     1       2.155   2.730  18.040  0.00  0.00    +0.000 A 
ATOM     19  C   UNL     1       2.850   3.862  18.505  0.00  0.00    +0.000 A 
ATOM     20  H   UNL     1       4.780   6.852  19.948  0.00  0.00    +0.000 HD
ENDBRANCH   1  13
BRANCH   4  21
ATOM     21  N   UNL     1       0.507  10.860  18.773  0.00  0.00    +0.000 N 
ATOM     22  C   UNL     1       1.294  11.977  18.562  0.00  0.00    +0.000 C 
ATOM     23  O   UNL     1       2.522  11.967  18.465  0.00  0.00    +0.000 OA
ATOM     24  H   UNL     1      -0.457  10.908  18.469  0.00  0.00    +0.000 HD
BRANCH  22  25
ATOM     25  C   UNL     1       0.494  13.275  18.437  0.00  0.00    +0.000 C 
BRANCH  25  26
ATOM     26  N   UNL     1       0.922  14.254  19.457  0.00  0.00    +0.000 NA
ATOM     27  C   UNL     1      -0.016  14.265  20.603  0.00  0.00    +0.000 C 
ATOM     28  C   UNL     1      -1.381  14.908  20.286  0.00  0.00    +0.000 C 
ATOM     29  O   UNL     1      -1.233  16.233  19.767  0.00  0.00    +0.000 OA
ATOM     30  C   UNL     1      -0.387  16.245  18.608  0.00  0.00    +0.000 C 
ATOM     31  C   UNL     1       0.988  15.639  18.925  0.00  0.00    +0.000 C 
ENDBRANCH  25  26
ENDBRANCH  22  25
ENDBRANCH   4  21
TORSDOF 4
ENDMDL
MODEL 6
REMARK VINA RESULT:      -7.9      2.327      9.372
REMARK  Name = 
REMARK  6 active torsions:
REMARK  status: ('A' for Active; 'I' for Inactive)
REMARK    1  A    between atoms: C_1  and  C_2
REMARK    2  A    between atoms: C_2  and  C_3
REMARK    3  A    between atoms: C_7  and  C_8
REMARK    4  A    between atoms: C_11  and  N_12
REMARK    5  A    between atoms: C_13  and  C_15
REMARK    6  A    between atoms: C_15  and  N_16
REMARK                            x       y       z     vdW  Elec       q    Type
REMARK                         _______ _______ _______ _____ _____    ______ ____
ROOT
ATOM      1  C   UNL     1       0.527  10.460  19.089  0.00  0.00    +0.000 A 
ATOM      2  C   UNL     1       0.427   9.880  20.365  0.00  0.00    +0.000 A 
ATOM      3  C   UNL     1       1.052   8.667  20.643  0.00  0.00    +0.000 A 
ATOM      4  C   UNL     1       1.835   8.047  19.670  0.00  0.00    +0.000 A 
ATOM      5  C   UNL     1       1.961   8.622  18.408  0.00  0.00    +0.000 A 
ATOM      6  C   UNL     1       1.287   9.803  18.107  0.00  0.00    +0.000 A 
ENDROOT
BRANCH   1  13
ATOM      7  C   UNL     1      -2.024  14.562  20.787  0.00  0.00    +0.000 C 
ATOM      8  C   UNL     1      -1.762  13.045  20.880  0.00  0.00    +0.000 C 
ATOM      9  C   UNL     1      -2.348  12.494  22.194  0.00  0.00    +0.000 C 
ATOM     10  C   UNL     1      -0.234  12.913  20.944  0.00  0.00    +0.000 C 
ATOM     11  O   UNL     1       0.425  13.077  21.973  0.00  0.00    +0.000 OA
ATOM     12  N   UNL     1       0.426  12.775  19.754  0.00  0.00    +0.000 N 
ATOM     13  C   UNL     1      -0.063  11.831  18.775  0.00  0.00    +0.000 C 
ATOM     14  C   UNL     1      -1.570  11.838  18.640  0.00  0.00    +0.000 A 
ATOM     15  C   UNL     1      -2.157  11.235  17.511  0.00  0.00    +0.000 A 
ATOM     16  C   UNL     1      -3.540  11.141  17.390  0.00  0.00    +0.000 A 
ATOM     17  C   UNL     1      -4.353  11.653  18.393  0.00  0.00    +0.000 A 
ATOM     18  C   UNL     1      -3.784  12.266  19.512  0.00  0.00    +0.000 A 
ATOM     19  C   UNL     1      -2.388  12.363  19.659  0.00  0.00    +0.000 A 
ATOM     20  H   UNL     1       1.424  12.755  19.902  0.00  0.00    +0.000 HD
ENDBRANCH   1  13
BRANCH   4  21
ATOM     21  N   UNL     1       2.561   6.886  19.949  0.00  0.00    +0.000 N 
ATOM     22  C   UNL     1       3.296   6.210  18.993  0.00  0.00    +0.000 C 
ATOM     23  O   UNL     1       3.494   6.606  17.844  0.00  0.00    +0.000 OA
ATOM     24  H   UNL     1       2.764   6.685  20.919  0.00  0.00    +0.000 HD
BRANCH  22  25
ATOM     25  C   UNL     1       3.882   4.888  19.494  0.00  0.00    +0.000 C 
BRANCH  25  26
ATOM     26  N   UNL     1       2.807   3.929  19.819  0.00  0.00    +0.000 NA
ATOM     27  C   UNL     1       3.361   2.709  20.448  0.00  0.00    +0.000 C 
ATOM     28  C   UNL     1       4.136   1.800  19.472  0.00  0.00    +0.000 C 
ATOM     29  O   UNL     1       3.339   1.442  18.338  0.00  0.00    +0.000 OA
ATOM     30  C   UNL     1       2.848   2.609  17.661  0.00  0.00    +0.000 C 
ATOM     31  C   UNL     1       2.044   3.501  18.618  0.00  0.00    +0.000 C 
ENDBRANCH  25  26
ENDBRANCH  22  25
ENDBRANCH   4  21
TORSDOF 4
ENDMDL
MODEL 7
REMARK VINA RESULT:      -7.9      2.395      9.324
REMARK  Name = 
REMARK  6 active torsions:
REMARK  status: ('A' for Active; 'I' for Inactive)
REMARK    1  A    between atoms: C_1  and  C_2
REMARK    2  A    between atoms: C_2  and  C_3
REMARK    3  A    between atoms: C_7  and  C_8
REMARK    4  A    between atoms: C_11  and  N_12
REMARK    5  A    between atoms: C_13  and  C_15
REMARK    6  A    between atoms: C_15  and  N_16
REMARK                            x       y       z     vdW  Elec       q    Type
REMARK                         _______ _______ _______ _____ _____    ______ ____
ROOT
ATOM      1  C   UNL     1       0.726  10.711  19.161  0.00  0.00    +0.000 A 
ATOM      2  C   UNL     1       1.389   9.936  18.194  0.00  0.00    +0.000 A 
ATOM      3  C   UNL     1       1.909   8.688  18.520  0.00  0.00    +0.000 A 
ATOM      4  C   UNL     1       1.723   8.167  19.800  0.00  0.00    +0.000 A 
ATOM      5  C   UNL     1       1.049   8.914  20.763  0.00  0.00    +0.000 A 
ATOM      6  C   UNL     1       0.580  10.189  20.457  0.00  0.00    +0.000 A 
ENDROOT
BRANCH   1  13
ATOM      7  C   UNL     1      -2.038  14.709  20.772  0.00  0.00    +0.000 C 
ATOM      8  C   UNL     1      -1.692  13.212  20.903  0.00  0.00    +0.000 C 
ATOM      9  C   UNL     1      -2.239  12.664  22.234  0.00  0.00    +0.000 C 
ATOM     10  C   UNL     1      -0.158  13.165  20.958  0.00  0.00    +0.000 C 
ATOM     11  O   UNL     1       0.496  13.393  21.978  0.00  0.00    +0.000 OA
ATOM     12  N   UNL     1       0.501  13.034  19.768  0.00  0.00    +0.000 N 
ATOM     13  C   UNL     1       0.060  12.039  18.817  0.00  0.00    +0.000 C 
ATOM     14  C   UNL     1      -1.446  11.959  18.693  0.00  0.00    +0.000 A 
ATOM     15  C   UNL     1      -2.005  11.295  17.584  0.00  0.00    +0.000 A 
ATOM     16  C   UNL     1      -3.382  11.122  17.475  0.00  0.00    +0.000 A 
ATOM     17  C   UNL     1      -4.216  11.615  18.471  0.00  0.00    +0.000 A 
ATOM     18  C   UNL     1      -3.676  12.287  19.570  0.00  0.00    +0.000 A 
ATOM     19  C   UNL     1      -2.286  12.465  19.704  0.00  0.00    +0.000 A 
ATOM     20  H   UNL     1       1.500  13.072  19.909  0.00  0.00    +0.000 HD
ENDBRANCH   1  13
BRANCH   4  21
ATOM     21  N   UNL     1       2.139   6.875  20.130  0.00  0.00    +0.000 N 
ATOM     22  C   UNL     1       3.064   6.167  19.385  0.00  0.00    +0.000 C 
ATOM     23  O   UNL     1       3.703   6.623  18.436  0.00  0.00    +0.000 OA
ATOM     24  H   UNL     1       1.961   6.555  21.073  0.00  0.00    +0.000 HD
BRANCH  22  25
ATOM     25  C   UNL     1       3.251   4.723  19.853  0.00  0.00    +0.000 C 
BRANCH  25  26
ATOM     26  N   UNL     1       2.038   3.923  19.582  0.00  0.00    +0.000 NA
ATOM     27  C   UNL     1       2.266   2.496  19.899  0.00  0.00    +0.000 C 
ATOM     28  C   UNL     1       3.194   1.774  18.902  0.00  0.00    +0.000 C 
ATOM     29  O   UNL     1       2.725   1.903  17.556  0.00  0.00    +0.000 OA
ATOM     30  C   UNL     1       2.567   3.282  17.192  0.00  0.00    +0.000 C 
ATOM     31  C   UNL     1       1.613   3.999  18.160  0.00  0.00    +0.000 C 
ENDBRANCH  25  26
ENDBRANCH  22  25
ENDBRANCH   4  21
TORSDOF 4
ENDMDL
MODEL 8
REMARK VINA RESULT:      -7.8      2.379      8.976
REMARK  Name = 
REMARK  6 active torsions:
REMARK  status: ('A' for Active; 'I' for Inactive)
REMARK    1  A    between atoms: C_1  and  C_2
REMARK    2  A    between atoms: C_2  and  C_3
REMARK    3  A    between atoms: C_7  and  C_8
REMARK    4  A    between atoms: C_11  and  N_12
REMARK    5  A    between atoms: C_13  and  C_15
REMARK    6  A    between atoms: C_15  and  N_16
REMARK                            x       y       z     vdW  Elec       q    Type
REMARK                         _______ _______ _______ _____ _____    ______ ____
ROOT
ATOM      1  C   UNL     1       1.204   9.985  18.807  0.00  0.00    +0.000 A 
ATOM      2  C   UNL     1       1.895   9.214  17.856  0.00  0.00    +0.000 A 
ATOM      3  C   UNL     1       2.412   7.967  18.195  0.00  0.00    +0.000 A 
ATOM      4  C   UNL     1       2.194   7.445  19.468  0.00  0.00    +0.000 A 
ATOM      5  C   UNL     1       1.492   8.187  20.415  0.00  0.00    +0.000 A 
ATOM      6  C   UNL     1       1.026   9.461  20.098  0.00  0.00    +0.000 A 
ENDROOT
BRANCH   1  13
ATOM      7  C   UNL     1      -1.474  14.052  20.389  0.00  0.00    +0.000 C 
ATOM      8  C   UNL     1      -1.139  12.555  20.549  0.00  0.00    +0.000 C 
ATOM      9  C   UNL     1      -1.654  12.047  21.909  0.00  0.00    +0.000 C 
ATOM     10  C   UNL     1       0.395  12.494  20.563  0.00  0.00    +0.000 C 
ATOM     11  O   UNL     1       1.080  12.741  21.558  0.00  0.00    +0.000 OA
ATOM     12  N   UNL     1       1.019  12.325  19.359  0.00  0.00    +0.000 N 
ATOM     13  C   UNL     1       0.541  11.310  18.447  0.00  0.00    +0.000 C 
ATOM     14  C   UNL     1      -0.968  11.243  18.367  0.00  0.00    +0.000 A 
ATOM     15  C   UNL     1      -1.565  10.557  17.291  0.00  0.00    +0.000 A 
ATOM     16  C   UNL     1      -2.946  10.396  17.226  0.00  0.00    +0.000 A 
ATOM     17  C   UNL     1      -3.747  10.923  18.231  0.00  0.00    +0.000 A 
ATOM     18  C   UNL     1      -3.169  11.617  19.297  0.00  0.00    +0.000 A 
ATOM     19  C   UNL     1      -1.774  11.784  19.387  0.00  0.00    +0.000 A 
ATOM     20  H   UNL     1       2.022  12.356  19.470  0.00  0.00    +0.000 HD
ENDBRANCH   1  13
BRANCH   4  21
ATOM     21  N   UNL     1       2.607   6.154  19.808  0.00  0.00    +0.000 N 
ATOM     22  C   UNL     1       3.751   5.569  19.297  0.00  0.00    +0.000 C 
ATOM     23  O   UNL     1       4.585   6.144  18.596  0.00  0.00    +0.000 OA
ATOM     24  H   UNL     1       2.208   5.741  20.641  0.00  0.00    +0.000 HD
BRANCH  22  25
ATOM     25  C   UNL     1       3.919   4.101  19.695  0.00  0.00    +0.000 C 
BRANCH  25  26
ATOM     26  N   UNL     1       3.797   3.222  18.515  0.00  0.00    +0.000 NA
ATOM     27  C   UNL     1       2.882   3.810  17.511  0.00  0.00    +0.000 C 
ATOM     28  C   UNL     1       1.397   3.778  17.924  0.00  0.00    +0.000 C 
ATOM     29  O   UNL     1       0.969   2.452  18.253  0.00  0.00    +0.000 OA
ATOM     30  C   UNL     1       1.792   1.881  19.280  0.00  0.00    +0.000 C 
ATOM     31  C   UNL     1       3.270   1.876  18.860  0.00  0.00    +0.000 C 
ENDBRANCH  25  26
ENDBRANCH  22  25
ENDBRANCH   4  21
TORSDOF 4
ENDMDL
MODEL 9
REMARK VINA RESULT:      -7.8      2.264      9.332
REMARK  Name = 
REMARK  6 active torsions:
REMARK  status: ('A' for Active; 'I' for Inactive)
REMARK    1  A    between atoms: C_1  and  C_2
REMARK    2  A    between atoms: C_2  and  C_3
REMARK    3  A    between atoms: C_7  and  C_8
REMARK    4  A    between atoms: C_11  and  N_12
REMARK    5  A    between atoms: C_13  and  C_15
REMARK    6  A    between atoms: C_15  and  N_16
REMARK                            x       y       z     vdW  Elec       q    Type
REMARK                         _______ _______ _______ _____ _____    ______ ____
ROOT
ATOM      1  C   UNL     1       0.566  10.478  19.037  0.00  0.00    +0.000 A 
ATOM      2  C   UNL     1       0.590   9.881  20.309  0.00  0.00    +0.000 A 
ATOM      3  C   UNL     1       1.213   8.652  20.505  0.00  0.00    +0.000 A 
ATOM      4  C   UNL     1       1.873   8.030  19.447  0.00  0.00    +0.000 A 
ATOM      5  C   UNL     1       1.877   8.619  18.185  0.00  0.00    +0.000 A 
ATOM      6  C   UNL     1       1.202   9.819  17.972  0.00  0.00    +0.000 A 
ENDROOT
BRANCH   1  13
ATOM      7  C   UNL     1      -1.945  14.493  20.985  0.00  0.00    +0.000 C 
ATOM      8  C   UNL     1      -1.688  12.972  20.995  0.00  0.00    +0.000 C 
ATOM      9  C   UNL     1      -2.258  12.355  22.285  0.00  0.00    +0.000 C 
ATOM     10  C   UNL     1      -0.159  12.831  21.029  0.00  0.00    +0.000 C 
ATOM     11  O   UNL     1       0.514  12.939  22.056  0.00  0.00    +0.000 OA
ATOM     12  N   UNL     1       0.484  12.755  19.826  0.00  0.00    +0.000 N 
ATOM     13  C   UNL     1      -0.022  11.865  18.805  0.00  0.00    +0.000 C 
ATOM     14  C   UNL     1      -1.531  11.884  18.691  0.00  0.00    +0.000 A 
ATOM     15  C   UNL     1      -2.136  11.344  17.540  0.00  0.00    +0.000 A 
ATOM     16  C   UNL     1      -3.521  11.262  17.433  0.00  0.00    +0.000 A 
ATOM     17  C   UNL     1      -4.318  11.723  18.474  0.00  0.00    +0.000 A 
ATOM     18  C   UNL     1      -3.731  12.273  19.615  0.00  0.00    +0.000 A 
ATOM     19  C   UNL     1      -2.332  12.358  19.748  0.00  0.00    +0.000 A 
ATOM     20  H   UNL     1       1.484  12.723  19.958  0.00  0.00    +0.000 HD
ENDBRANCH   1  13
BRANCH   4  21
ATOM     21  N   UNL     1       2.598   6.849  19.632  0.00  0.00    +0.000 N 
ATOM     22  C   UNL     1       2.050   5.708  20.189  0.00  0.00    +0.000 C 
ATOM     23  O   UNL     1       0.859   5.560  20.467  0.00  0.00    +0.000 OA
ATOM     24  H   UNL     1       3.458   6.744  19.112  0.00  0.00    +0.000 HD
BRANCH  22  25
ATOM     25  C   UNL     1       3.070   4.593  20.428  0.00  0.00    +0.000 C 
BRANCH  25  26
ATOM     26  N   UNL     1       3.794   4.270  19.181  0.00  0.00    +0.000 NA
ATOM     27  C   UNL     1       2.871   3.723  18.162  0.00  0.00    +0.000 C 
ATOM     28  C   UNL     1       2.378   2.294  18.469  0.00  0.00    +0.000 C 
ATOM     29  O   UNL     1       3.470   1.391  18.670  0.00  0.00    +0.000 OA
ATOM     30  C   UNL     1       4.344   1.858  19.708  0.00  0.00    +0.000 C 
ATOM     31  C   UNL     1       4.869   3.266  19.391  0.00  0.00    +0.000 C 
ENDBRANCH  25  26
ENDBRANCH  22  25
ENDBRANCH   4  21
TORSDOF 4
ENDMDL
