MODEL 1
REMARK VINA RESULT:      -9.1      0.000      0.000
REMARK  Name = 
REMARK  11 active torsions:
REMARK  status: ('A' for Active; 'I' for Inactive)
REMARK    1  A    between atoms: C_1  and  C_2
REMARK    2  A    between atoms: C_5  and  C_6
REMARK    3  A    between atoms: C_12  and  C_13
REMARK    4  A    between atoms: C_23  and  C_24
REMARK    5  A    between atoms: C_27  and  O_28
REMARK    6  A    between atoms: C_29  and  O_30
REMARK    7  A    between atoms: O_30  and  C_31
REMARK    8  A    between atoms: C_31  and  C_32
REMARK    9  A    between atoms: C_32  and  N_33
REMARK   10  A    between atoms: N_33  and  C_34
REMARK   11  A    between atoms: N_33  and  C_35
REMARK                            x       y       z     vdW  Elec       q    Type
REMARK                         _______ _______ _______ _____ _____    ______ ____
ROOT
ATOM      1  C   UNL     1      -0.311   8.486  21.662  0.00  0.00    +0.000 C 
ATOM      2  C   UNL     1       0.706   8.431  20.542  0.00  0.00    +0.000 A 
ATOM      3  N   UNL     1       1.441   7.261  20.460  0.00  0.00    +0.000 N 
ATOM      4  C   UNL     1       2.329   7.032  19.461  0.00  0.00    +0.000 A 
ATOM      5  C   UNL     1       3.137   5.969  19.113  0.00  0.00    +0.000 A 
ATOM      6  C   UNL     1       3.816   6.418  17.920  0.00  0.00    +0.000 A 
ATOM      7  N   UNL     1       3.473   7.685  17.614  0.00  0.00    +0.000 NA
ATOM      8  N   UNL     1       2.547   8.034  18.544  0.00  0.00    +0.000 N 
ATOM      9  C   UNL     1       1.904   9.287  18.560  0.00  0.00    +0.000 A 
ATOM     10  O   UNL     1       2.168  10.152  17.731  0.00  0.00    +0.000 OA
ATOM     11  C   UNL     1       0.888   9.448  19.663  0.00  0.00    +0.000 A 
ATOM     12  H   UNL     1       1.315   6.589  21.214  0.00  0.00    +0.000 HD
ENDROOT
BRANCH   5  13
ATOM     13  C   UNL     1       3.209   4.720  19.869  0.00  0.00    +0.000 A 
ATOM     14  C   UNL     1       2.270   4.421  20.867  0.00  0.00    +0.000 A 
ATOM     15  C   UNL     1       2.340   3.224  21.585  0.00  0.00    +0.000 A 
ATOM     16  C   UNL     1       3.315   2.282  21.273  0.00  0.00    +0.000 A 
ATOM     17  C   UNL     1       4.241   2.551  20.268  0.00  0.00    +0.000 A 
ATOM     18  C   UNL     1       4.210   3.776  19.597  0.00  0.00    +0.000 A 
ENDBRANCH   5  13
BRANCH   6  19
ATOM     19  C   UNL     1       4.774   5.690  17.070  0.00  0.00    +0.000 A 
ATOM     20  C   UNL     1       6.123   6.070  17.006  0.00  0.00    +0.000 A 
ATOM     21  C   UNL     1       7.010   5.439  16.130  0.00  0.00    +0.000 A 
ATOM     22  C   UNL     1       6.574   4.376  15.345  0.00  0.00    +0.000 A 
ATOM     23  C   UNL     1       5.252   3.944  15.438  0.00  0.00    +0.000 A 
ATOM     24  C   UNL     1       4.355   4.602  16.290  0.00  0.00    +0.000 A 
ENDBRANCH   6  19
BRANCH  11  25
ATOM     25  C   UNL     1       0.146  10.714  19.795  0.00  0.00    +0.000 A 
ATOM     26  C   UNL     1       0.747  11.841  20.367  0.00  0.00    +0.000 A 
ATOM     27  C   UNL     1       0.055  13.055  20.414  0.00  0.00    +0.000 A 
ATOM     28  C   UNL     1      -1.233  13.139  19.881  0.00  0.00    +0.000 A 
ATOM     29  C   UNL     1      -1.852  12.023  19.303  0.00  0.00    +0.000 A 
ATOM     30  C   UNL     1      -1.153  10.811  19.277  0.00  0.00    +0.000 A 
BRANCH  28  31
ATOM     31  O   UNL     1      -1.901  14.334  19.915  0.00  0.00    +0.000 OA
ATOM     32  H   UNL     1      -1.259  15.056  19.979  0.00  0.00    +0.000 HD
ENDBRANCH  28  31
BRANCH  29  33
ATOM     33  O   UNL     1      -3.109  12.215  18.785  0.00  0.00    +0.000 OA
BRANCH  33  34
ATOM     34  C   UNL     1      -3.682  11.099  18.092  0.00  0.00    +0.000 C 
BRANCH  34  35
ATOM     35  C   UNL     1      -3.922  11.471  16.618  0.00  0.00    +0.000 C 
BRANCH  35  36
ATOM     36  N   UNL     1      -2.986  10.806  15.684  0.00  0.00    +0.000 NA
ATOM     37  C   UNL     1      -2.244   9.719  16.327  0.00  0.00    +0.000 C 
ATOM     38  C   UNL     1      -3.720  10.282  14.530  0.00  0.00    +0.000 C 
ENDBRANCH  35  36
ENDBRANCH  34  35
ENDBRANCH  33  34
ENDBRANCH  29  33
ENDBRANCH  11  25
TORSDOF 8
ENDMDL
MODEL 2
REMARK VINA RESULT:      -8.9      0.972      1.375
REMARK  Name = 
REMARK  11 active torsions:
REMARK  status: ('A' for Active; 'I' for Inactive)
REMARK    1  A    between atoms: C_1  and  C_2
REMARK    2  A    between atoms: C_5  and  C_6
REMARK    3  A    between atoms: C_12  and  C_13
REMARK    4  A    between atoms: C_23  and  C_24
REMARK    5  A    between atoms: C_27  and  O_28
REMARK    6  A    between atoms: C_29  and  O_30
REMARK    7  A    between atoms: O_30  and  C_31
REMARK    8  A    between atoms: C_31  and  C_32
REMARK    9  A    between atoms: C_32  and  N_33
REMARK   10  A    between atoms: N_33  and  C_34
REMARK   11  A    between atoms: N_33  and  C_35
REMARK                            x       y       z     vdW  Elec       q    Type
REMARK                         _______ _______ _______ _____ _____    ______ ____
ROOT
ATOM      1  C   UNL     1      -0.106   8.484  21.609  0.00  0.00    +0.000 C 
ATOM      2  C   UNL     1       0.881   8.410  20.464  0.00  0.00    +0.000 A 
ATOM      3  N   UNL     1       1.600   7.231  20.369  0.00  0.00    +0.000 N 
ATOM      4  C   UNL     1       2.459   6.986  19.349  0.00  0.00    +0.000 A 
ATOM      5  C   UNL     1       3.245   5.912  18.986  0.00  0.00    +0.000 A 
ATOM      6  C   UNL     1       3.899   6.346  17.775  0.00  0.00    +0.000 A 
ATOM      7  N   UNL     1       3.563   7.616  17.471  0.00  0.00    +0.000 NA
ATOM      8  N   UNL     1       2.666   7.981  18.422  0.00  0.00    +0.000 N 
ATOM      9  C   UNL     1       2.040   9.242  18.448  0.00  0.00    +0.000 A 
ATOM     10  O   UNL     1       2.292  10.099  17.608  0.00  0.00    +0.000 OA
ATOM     11  C   UNL     1       1.053   9.420  19.575  0.00  0.00    +0.000 A 
ATOM     12  H   UNL     1       1.485   6.564  21.130  0.00  0.00    +0.000 HD
ENDROOT
BRANCH   5  13
ATOM     13  C   UNL     1       3.321   4.665  19.747  0.00  0.00    +0.000 A 
ATOM     14  C   UNL     1       2.323   4.316  20.669  0.00  0.00    +0.000 A 
ATOM     15  C   UNL     1       2.397   3.122  21.391  0.00  0.00    +0.000 A 
ATOM     16  C   UNL     1       3.440   2.231  21.156  0.00  0.00    +0.000 A 
ATOM     17  C   UNL     1       4.427   2.550  20.227  0.00  0.00    +0.000 A 
ATOM     18  C   UNL     1       4.386   3.774  19.554  0.00  0.00    +0.000 A 
ENDBRANCH   5  13
BRANCH   6  19
ATOM     19  C   UNL     1       4.826   5.602  16.904  0.00  0.00    +0.000 A 
ATOM     20  C   UNL     1       6.164   5.998  16.761  0.00  0.00    +0.000 A 
ATOM     21  C   UNL     1       7.017   5.350  15.864  0.00  0.00    +0.000 A 
ATOM     22  C   UNL     1       6.560   4.253  15.139  0.00  0.00    +0.000 A 
ATOM     23  C   UNL     1       5.251   3.807  15.312  0.00  0.00    +0.000 A 
ATOM     24  C   UNL     1       4.387   4.481  16.184  0.00  0.00    +0.000 A 
ENDBRANCH   6  19
BRANCH  11  25
ATOM     25  C   UNL     1       0.331  10.696  19.720  0.00  0.00    +0.000 A 
ATOM     26  C   UNL     1       0.948  11.808  20.305  0.00  0.00    +0.000 A 
ATOM     27  C   UNL     1       0.275  13.032  20.363  0.00  0.00    +0.000 A 
ATOM     28  C   UNL     1      -1.011  13.142  19.829  0.00  0.00    +0.000 A 
ATOM     29  C   UNL     1      -1.646  12.041  19.238  0.00  0.00    +0.000 A 
ATOM     30  C   UNL     1      -0.966  10.819  19.201  0.00  0.00    +0.000 A 
BRANCH  28  31
ATOM     31  O   UNL     1      -1.661  14.346  19.874  0.00  0.00    +0.000 OA
ATOM     32  H   UNL     1      -2.499  14.237  20.348  0.00  0.00    +0.000 HD
ENDBRANCH  28  31
BRANCH  29  33
ATOM     33  O   UNL     1      -2.899  12.258  18.721  0.00  0.00    +0.000 OA
BRANCH  33  34
ATOM     34  C   UNL     1      -3.229  11.517  17.540  0.00  0.00    +0.000 C 
BRANCH  34  35
ATOM     35  C   UNL     1      -4.540  10.741  17.761  0.00  0.00    +0.000 C 
BRANCH  35  36
ATOM     36  N   UNL     1      -5.657  11.595  18.222  0.00  0.00    +0.000 NA
ATOM     37  C   UNL     1      -6.056  12.576  17.208  0.00  0.00    +0.000 C 
ATOM     38  C   UNL     1      -6.809  10.763  18.577  0.00  0.00    +0.000 C 
ENDBRANCH  35  36
ENDBRANCH  34  35
ENDBRANCH  33  34
ENDBRANCH  29  33
ENDBRANCH  11  25
TORSDOF 8
ENDMDL
MODEL 3
REMARK VINA RESULT:      -8.8      0.238      1.008
REMARK  Name = 
REMARK  11 active torsions:
REMARK  status: ('A' for Active; 'I' for Inactive)
REMARK    1  A    between atoms: C_1  and  C_2
REMARK    2  A    between atoms: C_5  and  C_6
REMARK    3  A    between atoms: C_12  and  C_13
REMARK    4  A    between atoms: C_23  and  C_24
REMARK    5  A    between atoms: C_27  and  O_28
REMARK    6  A    between atoms: C_29  and  O_30
REMARK    7  A    between atoms: O_30  and  C_31
REMARK    8  A    between atoms: C_31  and  C_32
REMARK    9  A    between atoms: C_32  and  N_33
REMARK   10  A    between atoms: N_33  and  C_34
REMARK   11  A    between atoms: N_33  and  C_35
REMARK                            x       y       z     vdW  Elec       q    Type
REMARK                         _______ _______ _______ _____ _____    ______ ____
ROOT
ATOM      1  C   UNL     1      -0.382   8.457  21.763  0.00  0.00    +0.000 C 
ATOM      2  C   UNL     1       0.634   8.430  20.642  0.00  0.00    +0.000 A 
ATOM      3  N   UNL     1       1.378   7.267  20.537  0.00  0.00    +0.000 N 
ATOM      4  C   UNL     1       2.267   7.063  19.534  0.00  0.00    +0.000 A 
ATOM      5  C   UNL     1       3.082   6.013  19.165  0.00  0.00    +0.000 A 
ATOM      6  C   UNL     1       3.757   6.488  17.981  0.00  0.00    +0.000 A 
ATOM      7  N   UNL     1       3.405   7.759  17.700  0.00  0.00    +0.000 NA
ATOM      8  N   UNL     1       2.478   8.083  18.636  0.00  0.00    +0.000 N 
ATOM      9  C   UNL     1       1.826   9.331  18.676  0.00  0.00    +0.000 A 
ATOM     10  O   UNL     1       2.083  10.214  17.863  0.00  0.00    +0.000 OA
ATOM     11  C   UNL     1       0.809   9.464  19.782  0.00  0.00    +0.000 A 
ATOM     12  H   UNL     1       1.257   6.580  21.279  0.00  0.00    +0.000 HD
ENDROOT
BRANCH   5  13
ATOM     13  C   UNL     1       3.163   4.749  19.898  0.00  0.00    +0.000 A 
ATOM     14  C   UNL     1       2.231   4.429  20.896  0.00  0.00    +0.000 A 
ATOM     15  C   UNL     1       2.310   3.219  21.592  0.00  0.00    +0.000 A 
ATOM     16  C   UNL     1       3.286   2.287  21.255  0.00  0.00    +0.000 A 
ATOM     17  C   UNL     1       4.205   2.578  20.250  0.00  0.00    +0.000 A 
ATOM     18  C   UNL     1       4.165   3.814  19.602  0.00  0.00    +0.000 A 
ENDBRANCH   5  13
BRANCH   6  19
ATOM     19  C   UNL     1       4.720   5.783  17.117  0.00  0.00    +0.000 A 
ATOM     20  C   UNL     1       4.326   4.685  16.337  0.00  0.00    +0.000 A 
ATOM     21  C   UNL     1       5.258   3.959  15.590  0.00  0.00    +0.000 A 
ATOM     22  C   UNL     1       6.591   4.358  15.565  0.00  0.00    +0.000 A 
ATOM     23  C   UNL     1       6.991   5.481  16.286  0.00  0.00    +0.000 A 
ATOM     24  C   UNL     1       6.062   6.186  17.063  0.00  0.00    +0.000 A 
ENDBRANCH   6  19
BRANCH  11  25
ATOM     25  C   UNL     1       0.058  10.723  19.939  0.00  0.00    +0.000 A 
ATOM     26  C   UNL     1       0.550  11.755  20.746  0.00  0.00    +0.000 A 
ATOM     27  C   UNL     1      -0.137  12.971  20.821  0.00  0.00    +0.000 A 
ATOM     28  C   UNL     1      -1.307  13.153  20.083  0.00  0.00    +0.000 A 
ATOM     29  C   UNL     1      -1.816  12.132  19.267  0.00  0.00    +0.000 A 
ATOM     30  C   UNL     1      -1.126  10.915  19.214  0.00  0.00    +0.000 A 
BRANCH  28  31
ATOM     31  O   UNL     1      -1.968  14.350  20.147  0.00  0.00    +0.000 OA
ATOM     32  H   UNL     1      -1.933  14.779  19.279  0.00  0.00    +0.000 HD
ENDBRANCH  28  31
BRANCH  29  33
ATOM     33  O   UNL     1      -2.958  12.417  18.562  0.00  0.00    +0.000 OA
BRANCH  33  34
ATOM     34  C   UNL     1      -3.756  11.293  18.173  0.00  0.00    +0.000 C 
BRANCH  34  35
ATOM     35  C   UNL     1      -4.013  11.337  16.656  0.00  0.00    +0.000 C 
BRANCH  35  36
ATOM     36  N   UNL     1      -3.569  10.117  15.948  0.00  0.00    +0.000 NA
ATOM     37  C   UNL     1      -3.502  10.313  14.497  0.00  0.00    +0.000 C 
ATOM     38  C   UNL     1      -2.257   9.699  16.447  0.00  0.00    +0.000 C 
ENDBRANCH  35  36
ENDBRANCH  34  35
ENDBRANCH  33  34
ENDBRANCH  29  33
ENDBRANCH  11  25
TORSDOF 8
ENDMDL
MODEL 4
REMARK VINA RESULT:      -8.8      1.022      1.834
REMARK  Name = 
REMARK  11 active torsions:
REMARK  status: ('A' for Active; 'I' for Inactive)
REMARK    1  A    between atoms: C_1  and  C_2
REMARK    2  A    between atoms: C_5  and  C_6
REMARK    3  A    between atoms: C_12  and  C_13
REMARK    4  A    between atoms: C_23  and  C_24
REMARK    5  A    between atoms: C_27  and  O_28
REMARK    6  A    between atoms: C_29  and  O_30
REMARK    7  A    between atoms: O_30  and  C_31
REMARK    8  A    between atoms: C_31  and  C_32
REMARK    9  A    between atoms: C_32  and  N_33
REMARK   10  A    between atoms: N_33  and  C_34
REMARK   11  A    between atoms: N_33  and  C_35
REMARK                            x       y       z     vdW  Elec       q    Type
REMARK                         _______ _______ _______ _____ _____    ______ ____
ROOT
ATOM      1  C   UNL     1      -0.392   8.351  21.697  0.00  0.00    +0.000 C 
ATOM      2  C   UNL     1       0.635   8.318  20.587  0.00  0.00    +0.000 A 
ATOM      3  N   UNL     1       1.369   7.148  20.485  0.00  0.00    +0.000 N 
ATOM      4  C   UNL     1       2.266   6.939  19.491  0.00  0.00    +0.000 A 
ATOM      5  C   UNL     1       3.074   5.882  19.126  0.00  0.00    +0.000 A 
ATOM      6  C   UNL     1       3.767   6.356  17.951  0.00  0.00    +0.000 A 
ATOM      7  N   UNL     1       3.430   7.631  17.671  0.00  0.00    +0.000 NA
ATOM      8  N   UNL     1       2.496   7.961  18.599  0.00  0.00    +0.000 N 
ATOM      9  C   UNL     1       1.857   9.215  18.637  0.00  0.00    +0.000 A 
ATOM     10  O   UNL     1       2.131  10.098  17.831  0.00  0.00    +0.000 OA
ATOM     11  C   UNL     1       0.829   9.354  19.733  0.00  0.00    +0.000 A 
ATOM     12  H   UNL     1       1.233   6.459  21.223  0.00  0.00    +0.000 HD
ENDROOT
BRANCH   5  13
ATOM     13  C   UNL     1       3.135   4.615  19.855  0.00  0.00    +0.000 A 
ATOM     14  C   UNL     1       4.210   3.730  19.679  0.00  0.00    +0.000 A 
ATOM     15  C   UNL     1       4.267   2.522  20.380  0.00  0.00    +0.000 A 
ATOM     16  C   UNL     1       3.281   2.212  21.312  0.00  0.00    +0.000 A 
ATOM     17  C   UNL     1       2.220   3.090  21.517  0.00  0.00    +0.000 A 
ATOM     18  C   UNL     1       2.130   4.266  20.767  0.00  0.00    +0.000 A 
ENDBRANCH   5  13
BRANCH   6  19
ATOM     19  C   UNL     1       4.731   5.644  17.094  0.00  0.00    +0.000 A 
ATOM     20  C   UNL     1       4.361   4.488  16.390  0.00  0.00    +0.000 A 
ATOM     21  C   UNL     1       5.300   3.761  15.652  0.00  0.00    +0.000 A 
ATOM     22  C   UNL     1       6.612   4.214  15.559  0.00  0.00    +0.000 A 
ATOM     23  C   UNL     1       6.985   5.393  16.203  0.00  0.00    +0.000 A 
ATOM     24  C   UNL     1       6.052   6.100  16.972  0.00  0.00    +0.000 A 
ENDBRANCH   6  19
BRANCH  11  25
ATOM     25  C   UNL     1       0.090  10.619  19.887  0.00  0.00    +0.000 A 
ATOM     26  C   UNL     1       0.656  11.702  20.568  0.00  0.00    +0.000 A 
ATOM     27  C   UNL     1      -0.028  12.920  20.637  0.00  0.00    +0.000 A 
ATOM     28  C   UNL     1      -1.272  13.052  20.017  0.00  0.00    +0.000 A 
ATOM     29  C   UNL     1      -1.856  11.980  19.329  0.00  0.00    +0.000 A 
ATOM     30  C   UNL     1      -1.167  10.763  19.281  0.00  0.00    +0.000 A 
BRANCH  28  31
ATOM     31  O   UNL     1      -1.932  14.251  20.074  0.00  0.00    +0.000 OA
ATOM     32  H   UNL     1      -1.318  14.938  20.373  0.00  0.00    +0.000 HD
ENDBRANCH  28  31
BRANCH  29  33
ATOM     33  O   UNL     1      -3.070  12.217  18.733  0.00  0.00    +0.000 OA
BRANCH  33  34
ATOM     34  C   UNL     1      -3.524  11.220  17.811  0.00  0.00    +0.000 C 
BRANCH  34  35
ATOM     35  C   UNL     1      -4.815  11.699  17.121  0.00  0.00    +0.000 C 
BRANCH  35  36
ATOM     36  N   UNL     1      -5.911  11.998  18.068  0.00  0.00    +0.000 NA
ATOM     37  C   UNL     1      -6.965  12.810  17.453  0.00  0.00    +0.000 C 
ATOM     38  C   UNL     1      -6.487  10.751  18.576  0.00  0.00    +0.000 C 
ENDBRANCH  35  36
ENDBRANCH  34  35
ENDBRANCH  33  34
ENDBRANCH  29  33
ENDBRANCH  11  25
TORSDOF 8
ENDMDL
MODEL 5
REMARK VINA RESULT:      -8.7      1.446      2.059
REMARK  Name = 
REMARK  11 active torsions:
REMARK  status: ('A' for Active; 'I' for Inactive)
REMARK    1  A    between atoms: C_1  and  C_2
REMARK    2  A    between atoms: C_5  and  C_6
REMARK    3  A    between atoms: C_12  and  C_13
REMARK    4  A    between atoms: C_23  and  C_24
REMARK    5  A    between atoms: C_27  and  O_28
REMARK    6  A    between atoms: C_29  and  O_30
REMARK    7  A    between atoms: O_30  and  C_31
REMARK    8  A    between atoms: C_31  and  C_32
REMARK    9  A    between atoms: C_32  and  N_33
REMARK   10  A    between atoms: N_33  and  C_34
REMARK   11  A    between atoms: N_33  and  C_35
REMARK                            x       y       z     vdW  Elec       q    Type
REMARK                         _______ _______ _______ _____ _____    ______ ____
ROOT
ATOM      1  C   UNL     1      -0.349   8.439  21.599  0.00  0.00    +0.000 C 
ATOM      2  C   UNL     1       0.681   8.390  20.492  0.00  0.00    +0.000 A 
ATOM      3  N   UNL     1       1.426   7.224  20.419  0.00  0.00    +0.000 N 
ATOM      4  C   UNL     1       2.328   7.001  19.432  0.00  0.00    +0.000 A 
ATOM      5  C   UNL     1       3.147   5.943  19.094  0.00  0.00    +0.000 A 
ATOM      6  C   UNL     1       3.838   6.396  17.910  0.00  0.00    +0.000 A 
ATOM      7  N   UNL     1       3.489   7.660  17.599  0.00  0.00    +0.000 NA
ATOM      8  N   UNL     1       2.551   8.003  18.517  0.00  0.00    +0.000 N 
ATOM      9  C   UNL     1       1.899   9.252  18.524  0.00  0.00    +0.000 A 
ATOM     10  O   UNL     1       2.167  10.118  17.698  0.00  0.00    +0.000 OA
ATOM     11  C   UNL     1       0.867   9.407  19.614  0.00  0.00    +0.000 A 
ATOM     12  H   UNL     1       1.295   6.552  21.173  0.00  0.00    +0.000 HD
ENDROOT
BRANCH   5  13
ATOM     13  C   UNL     1       3.218   4.695  19.853  0.00  0.00    +0.000 A 
ATOM     14  C   UNL     1       2.278   4.398  20.851  0.00  0.00    +0.000 A 
ATOM     15  C   UNL     1       2.347   3.202  21.571  0.00  0.00    +0.000 A 
ATOM     16  C   UNL     1       3.322   2.259  21.260  0.00  0.00    +0.000 A 
ATOM     17  C   UNL     1       4.248   2.526  20.255  0.00  0.00    +0.000 A 
ATOM     18  C   UNL     1       4.218   3.750  19.582  0.00  0.00    +0.000 A 
ENDBRANCH   5  13
BRANCH   6  19
ATOM     19  C   UNL     1       4.811   5.673  17.072  0.00  0.00    +0.000 A 
ATOM     20  C   UNL     1       6.167   6.031  17.063  0.00  0.00    +0.000 A 
ATOM     21  C   UNL     1       7.072   5.408  16.199  0.00  0.00    +0.000 A 
ATOM     22  C   UNL     1       6.645   4.374  15.372  0.00  0.00    +0.000 A 
ATOM     23  C   UNL     1       5.313   3.963  15.410  0.00  0.00    +0.000 A 
ATOM     24  C   UNL     1       4.400   4.614  16.250  0.00  0.00    +0.000 A 
ENDBRANCH   6  19
BRANCH  11  25
ATOM     25  C   UNL     1       0.116  10.668  19.736  0.00  0.00    +0.000 A 
ATOM     26  C   UNL     1       0.622  11.735  20.486  0.00  0.00    +0.000 A 
ATOM     27  C   UNL     1      -0.067  12.951  20.528  0.00  0.00    +0.000 A 
ATOM     28  C   UNL     1      -1.257  13.098  19.812  0.00  0.00    +0.000 A 
ATOM     29  C   UNL     1      -1.781  12.041  19.053  0.00  0.00    +0.000 A 
ATOM     30  C   UNL     1      -1.088  10.826  19.034  0.00  0.00    +0.000 A 
BRANCH  28  31
ATOM     31  O   UNL     1      -1.921  14.295  19.842  0.00  0.00    +0.000 OA
ATOM     32  H   UNL     1      -2.766  14.178  20.301  0.00  0.00    +0.000 HD
ENDBRANCH  28  31
BRANCH  29  33
ATOM     33  O   UNL     1      -2.942  12.293  18.366  0.00  0.00    +0.000 OA
BRANCH  33  34
ATOM     34  C   UNL     1      -4.108  11.597  18.824  0.00  0.00    +0.000 C 
BRANCH  34  35
ATOM     35  C   UNL     1      -5.217  12.609  19.164  0.00  0.00    +0.000 C 
BRANCH  35  36
ATOM     36  N   UNL     1      -4.859  13.523  20.271  0.00  0.00    +0.000 NA
ATOM     37  C   UNL     1      -5.851  14.586  20.452  0.00  0.00    +0.000 C 
ATOM     38  C   UNL     1      -4.719  12.767  21.518  0.00  0.00    +0.000 C 
ENDBRANCH  35  36
ENDBRANCH  34  35
ENDBRANCH  33  34
ENDBRANCH  29  33
ENDBRANCH  11  25
TORSDOF 8
ENDMDL
MODEL 6
REMARK VINA RESULT:      -8.6      2.026      2.942
REMARK  Name = 
REMARK  11 active torsions:
REMARK  status: ('A' for Active; 'I' for Inactive)
REMARK    1  A    between atoms: C_1  and  C_2
REMARK    2  A    between atoms: C_5  and  C_6
REMARK    3  A    between atoms: C_12  and  C_13
REMARK    4  A    between atoms: C_23  and  C_24
REMARK    5  A    between atoms: C_27  and  O_28
REMARK    6  A    between atoms: C_29  and  O_30
REMARK    7  A    between atoms: O_30  and  C_31
REMARK    8  A    between atoms: C_31  and  C_32
REMARK    9  A    between atoms: C_32  and  N_33
REMARK   10  A    between atoms: N_33  and  C_34
REMARK   11  A    between atoms: N_33  and  C_35
REMARK                            x       y       z     vdW  Elec       q    Type
REMARK                         _______ _______ _______ _____ _____    ______ ____
ROOT
ATOM      1  C   UNL     1      -0.404   8.962  22.223  0.00  0.00    +0.000 C 
ATOM      2  C   UNL     1       0.519   8.837  21.031  0.00  0.00    +0.000 A 
ATOM      3  N   UNL     1       1.098   7.592  20.850  0.00  0.00    +0.000 N 
ATOM      4  C   UNL     1       1.880   7.304  19.781  0.00  0.00    +0.000 A 
ATOM      5  C   UNL     1       2.525   6.170  19.335  0.00  0.00    +0.000 A 
ATOM      6  C   UNL     1       3.171   6.588  18.113  0.00  0.00    +0.000 A 
ATOM      7  N   UNL     1       2.966   7.900  17.881  0.00  0.00    +0.000 NA
ATOM      8  N   UNL     1       2.156   8.314  18.889  0.00  0.00    +0.000 N 
ATOM      9  C   UNL     1       1.675   9.633  18.999  0.00  0.00    +0.000 A 
ATOM     10  O   UNL     1       1.986  10.498  18.185  0.00  0.00    +0.000 OA
ATOM     11  C   UNL     1       0.764   9.864  20.179  0.00  0.00    +0.000 A 
ATOM     12  H   UNL     1       0.942   6.906  21.586  0.00  0.00    +0.000 HD
ENDROOT
BRANCH   5  13
ATOM     13  C   UNL     1       2.495   4.887  20.037  0.00  0.00    +0.000 A 
ATOM     14  C   UNL     1       3.669   4.149  20.248  0.00  0.00    +0.000 A 
ATOM     15  C   UNL     1       3.637   2.925  20.922  0.00  0.00    +0.000 A 
ATOM     16  C   UNL     1       2.439   2.453  21.449  0.00  0.00    +0.000 A 
ATOM     17  C   UNL     1       1.268   3.184  21.270  0.00  0.00    +0.000 A 
ATOM     18  C   UNL     1       1.290   4.374  20.538  0.00  0.00    +0.000 A 
ENDBRANCH   5  13
BRANCH   6  19
ATOM     19  C   UNL     1       3.971   5.790  17.168  0.00  0.00    +0.000 A 
ATOM     20  C   UNL     1       3.809   4.399  17.073  0.00  0.00    +0.000 A 
ATOM     21  C   UNL     1       4.632   3.632  16.244  0.00  0.00    +0.000 A 
ATOM     22  C   UNL     1       5.593   4.252  15.452  0.00  0.00    +0.000 A 
ATOM     23  C   UNL     1       5.730   5.638  15.488  0.00  0.00    +0.000 A 
ATOM     24  C   UNL     1       4.928   6.402  16.345  0.00  0.00    +0.000 A 
ENDBRANCH   6  19
BRANCH  11  25
ATOM     25  C   UNL     1       0.195  11.203  20.413  0.00  0.00    +0.000 A 
ATOM     26  C   UNL     1       0.971  12.224  20.971  0.00  0.00    +0.000 A 
ATOM     27  C   UNL     1       0.438  13.509  21.114  0.00  0.00    +0.000 A 
ATOM     28  C   UNL     1      -0.867  13.769  20.690  0.00  0.00    +0.000 A 
ATOM     29  C   UNL     1      -1.660  12.760  20.127  0.00  0.00    +0.000 A 
ATOM     30  C   UNL     1      -1.119  11.476  20.004  0.00  0.00    +0.000 A 
BRANCH  28  31
ATOM     31  O   UNL     1      -1.380  15.032  20.817  0.00  0.00    +0.000 OA
ATOM     32  H   UNL     1      -1.402  15.456  19.946  0.00  0.00    +0.000 HD
ENDBRANCH  28  31
BRANCH  29  33
ATOM     33  O   UNL     1      -2.920  13.122  19.719  0.00  0.00    +0.000 OA
BRANCH  33  34
ATOM     34  C   UNL     1      -4.009  12.465  20.379  0.00  0.00    +0.000 C 
BRANCH  34  35
ATOM     35  C   UNL     1      -4.392  13.243  21.651  0.00  0.00    +0.000 C 
BRANCH  35  36
ATOM     36  N   UNL     1      -4.407  12.406  22.870  0.00  0.00    +0.000 NA
ATOM     37  C   UNL     1      -3.065  12.220  23.428  0.00  0.00    +0.000 C 
ATOM     38  C   UNL     1      -5.278  13.010  23.881  0.00  0.00    +0.000 C 
ENDBRANCH  35  36
ENDBRANCH  34  35
ENDBRANCH  33  34
ENDBRANCH  29  33
ENDBRANCH  11  25
TORSDOF 8
ENDMDL
MODEL 7
REMARK VINA RESULT:      -8.6      1.768      3.264
REMARK  Name = 
REMARK  11 active torsions:
REMARK  status: ('A' for Active; 'I' for Inactive)
REMARK    1  A    between atoms: C_1  and  C_2
REMARK    2  A    between atoms: C_5  and  C_6
REMARK    3  A    between atoms: C_12  and  C_13
REMARK    4  A    between atoms: C_23  and  C_24
REMARK    5  A    between atoms: C_27  and  O_28
REMARK    6  A    between atoms: C_29  and  O_30
REMARK    7  A    between atoms: O_30  and  C_31
REMARK    8  A    between atoms: C_31  and  C_32
REMARK    9  A    between atoms: C_32  and  N_33
REMARK   10  A    between atoms: N_33  and  C_34
REMARK   11  A    between atoms: N_33  and  C_35
REMARK                            x       y       z     vdW  Elec       q    Type
REMARK                         _______ _______ _______ _____ _____    ______ ____
ROOT
ATOM      1  C   UNL     1      -0.349   8.723  21.545  0.00  0.00    +0.000 C 
ATOM      2  C   UNL     1       0.690   8.614  20.451  0.00  0.00    +0.000 A 
ATOM      3  N   UNL     1       1.389   7.420  20.405  0.00  0.00    +0.000 N 
ATOM      4  C   UNL     1       2.291   7.144  19.432  0.00  0.00    +0.000 A 
ATOM      5  C   UNL     1       3.071   6.049  19.121  0.00  0.00    +0.000 A 
ATOM      6  C   UNL     1       3.791   6.454  17.936  0.00  0.00    +0.000 A 
ATOM      7  N   UNL     1       3.496   7.725  17.600  0.00  0.00    +0.000 NA
ATOM      8  N   UNL     1       2.562   8.121  18.502  0.00  0.00    +0.000 N 
ATOM      9  C   UNL     1       1.960   9.394  18.481  0.00  0.00    +0.000 A 
ATOM     10  O   UNL     1       2.269  10.234  17.643  0.00  0.00    +0.000 OA
ATOM     11  C   UNL     1       0.924   9.608  19.557  0.00  0.00    +0.000 A 
ATOM     12  H   UNL     1       1.225   6.766  21.169  0.00  0.00    +0.000 HD
ENDROOT
BRANCH   5  13
ATOM     13  C   UNL     1       3.086   4.812  19.901  0.00  0.00    +0.000 A 
ATOM     14  C   UNL     1       2.143   4.583  20.914  0.00  0.00    +0.000 A 
ATOM     15  C   UNL     1       2.158   3.398  21.655  0.00  0.00    +0.000 A 
ATOM     16  C   UNL     1       3.079   2.400  21.352  0.00  0.00    +0.000 A 
ATOM     17  C   UNL     1       4.008   2.601  20.333  0.00  0.00    +0.000 A 
ATOM     18  C   UNL     1       4.033   3.813  19.638  0.00  0.00    +0.000 A 
ENDBRANCH   5  13
BRANCH   6  19
ATOM     19  C   UNL     1       4.743   5.679  17.121  0.00  0.00    +0.000 A 
ATOM     20  C   UNL     1       6.101   6.027  17.066  0.00  0.00    +0.000 A 
ATOM     21  C   UNL     1       6.986   5.351  16.220  0.00  0.00    +0.000 A 
ATOM     22  C   UNL     1       6.536   4.275  15.461  0.00  0.00    +0.000 A 
ATOM     23  C   UNL     1       5.203   3.876  15.548  0.00  0.00    +0.000 A 
ATOM     24  C   UNL     1       4.311   4.578  16.368  0.00  0.00    +0.000 A 
ENDBRANCH   6  19
BRANCH  11  25
ATOM     25  C   UNL     1       0.221  10.899  19.650  0.00  0.00    +0.000 A 
ATOM     26  C   UNL     1      -0.953  11.130  18.925  0.00  0.00    +0.000 A 
ATOM     27  C   UNL     1      -1.649  12.333  19.084  0.00  0.00    +0.000 A 
ATOM     28  C   UNL     1      -1.172  13.296  19.975  0.00  0.00    +0.000 A 
ATOM     29  C   UNL     1       0.002  13.084  20.712  0.00  0.00    +0.000 A 
ATOM     30  C   UNL     1       0.695  11.882  20.530  0.00  0.00    +0.000 A 
BRANCH  28  31
ATOM     31  O   UNL     1      -1.864  14.466  20.141  0.00  0.00    +0.000 OA
ATOM     32  H   UNL     1      -2.265  14.475  21.023  0.00  0.00    +0.000 HD
ENDBRANCH  28  31
BRANCH  29  33
ATOM     33  O   UNL     1       0.374  14.081  21.579  0.00  0.00    +0.000 OA
BRANCH  33  34
ATOM     34  C   UNL     1       1.714  14.569  21.440  0.00  0.00    +0.000 C 
BRANCH  34  35
ATOM     35  C   UNL     1       1.820  15.440  20.175  0.00  0.00    +0.000 C 
BRANCH  35  36
ATOM     36  N   UNL     1       3.035  15.170  19.376  0.00  0.00    +0.000 NA
ATOM     37  C   UNL     1       4.167  14.763  20.212  0.00  0.00    +0.000 C 
ATOM     38  C   UNL     1       2.759  14.128  18.384  0.00  0.00    +0.000 C 
ENDBRANCH  35  36
ENDBRANCH  34  35
ENDBRANCH  33  34
ENDBRANCH  29  33
ENDBRANCH  11  25
TORSDOF 8
ENDMDL
MODEL 8
REMARK VINA RESULT:      -8.6      1.610      2.273
REMARK  Name = 
REMARK  11 active torsions:
REMARK  status: ('A' for Active; 'I' for Inactive)
REMARK    1  A    between atoms: C_1  and  C_2
REMARK    2  A    between atoms: C_5  and  C_6
REMARK    3  A    between atoms: C_12  and  C_13
REMARK    4  A    between atoms: C_23  and  C_24
REMARK    5  A    between atoms: C_27  and  O_28
REMARK    6  A    between atoms: C_29  and  O_30
REMARK    7  A    between atoms: O_30  and  C_31
REMARK    8  A    between atoms: C_31  and  C_32
REMARK    9  A    between atoms: C_32  and  N_33
REMARK   10  A    between atoms: N_33  and  C_34
REMARK   11  A    between atoms: N_33  and  C_35
REMARK                            x       y       z     vdW  Elec       q    Type
REMARK                         _______ _______ _______ _____ _____    ______ ____
ROOT
ATOM      1  C   UNL     1      -0.403   8.642  21.776  0.00  0.00    +0.000 C 
ATOM      2  C   UNL     1       0.608   8.578  20.652  0.00  0.00    +0.000 A 
ATOM      3  N   UNL     1       1.326   7.397  20.559  0.00  0.00    +0.000 N 
ATOM      4  C   UNL     1       2.206   7.161  19.555  0.00  0.00    +0.000 A 
ATOM      5  C   UNL     1       2.996   6.089  19.198  0.00  0.00    +0.000 A 
ATOM      6  C   UNL     1       3.676   6.534  18.005  0.00  0.00    +0.000 A 
ATOM      7  N   UNL     1       3.350   7.808  17.707  0.00  0.00    +0.000 NA
ATOM      8  N   UNL     1       2.434   8.165  18.643  0.00  0.00    +0.000 N 
ATOM      9  C   UNL     1       1.810   9.427  18.669  0.00  0.00    +0.000 A 
ATOM     10  O   UNL     1       2.083  10.293  17.843  0.00  0.00    +0.000 OA
ATOM     11  C   UNL     1       0.801   9.596  19.777  0.00  0.00    +0.000 A 
ATOM     12  H   UNL     1       1.193   6.723  21.311  0.00  0.00    +0.000 HD
ENDROOT
BRANCH   5  13
ATOM     13  C   UNL     1       3.053   4.834  19.947  0.00  0.00    +0.000 A 
ATOM     14  C   UNL     1       2.111   4.542  20.944  0.00  0.00    +0.000 A 
ATOM     15  C   UNL     1       2.167   3.340  21.656  0.00  0.00    +0.000 A 
ATOM     16  C   UNL     1       3.129   2.387  21.336  0.00  0.00    +0.000 A 
ATOM     17  C   UNL     1       4.058   2.650  20.332  0.00  0.00    +0.000 A 
ATOM     18  C   UNL     1       4.041   3.879  19.668  0.00  0.00    +0.000 A 
ENDBRANCH   5  13
BRANCH   6  19
ATOM     19  C   UNL     1       4.619   5.796  17.146  0.00  0.00    +0.000 A 
ATOM     20  C   UNL     1       4.227   4.632  16.469  0.00  0.00    +0.000 A 
ATOM     21  C   UNL     1       5.146   3.881  15.731  0.00  0.00    +0.000 A 
ATOM     22  C   UNL     1       6.461   4.318  15.608  0.00  0.00    +0.000 A 
ATOM     23  C   UNL     1       6.856   5.505  16.224  0.00  0.00    +0.000 A 
ATOM     24  C   UNL     1       5.942   6.236  16.994  0.00  0.00    +0.000 A 
ENDBRANCH   6  19
BRANCH  11  25
ATOM     25  C   UNL     1       0.078  10.873  19.920  0.00  0.00    +0.000 A 
ATOM     26  C   UNL     1       0.649  11.946  20.613  0.00  0.00    +0.000 A 
ATOM     27  C   UNL     1      -0.017  13.175  20.672  0.00  0.00    +0.000 A 
ATOM     28  C   UNL     1      -1.248  13.327  20.031  0.00  0.00    +0.000 A 
ATOM     29  C   UNL     1      -1.836  12.264  19.330  0.00  0.00    +0.000 A 
ATOM     30  C   UNL     1      -1.165  11.037  19.293  0.00  0.00    +0.000 A 
BRANCH  28  31
ATOM     31  O   UNL     1      -1.890  14.535  20.077  0.00  0.00    +0.000 OA
ATOM     32  H   UNL     1      -2.503  14.541  20.827  0.00  0.00    +0.000 HD
ENDBRANCH  28  31
BRANCH  29  33
ATOM     33  O   UNL     1      -3.035  12.521  18.713  0.00  0.00    +0.000 OA
BRANCH  33  34
ATOM     34  C   UNL     1      -4.170  11.808  19.220  0.00  0.00    +0.000 C 
BRANCH  34  35
ATOM     35  C   UNL     1      -4.997  12.730  20.135  0.00  0.00    +0.000 C 
BRANCH  35  36
ATOM     36  N   UNL     1      -5.907  11.995  21.041  0.00  0.00    +0.000 NA
ATOM     37  C   UNL     1      -6.496  12.869  22.059  0.00  0.00    +0.000 C 
ATOM     38  C   UNL     1      -6.974  11.356  20.267  0.00  0.00    +0.000 C 
ENDBRANCH  35  36
ENDBRANCH  34  35
ENDBRANCH  33  34
ENDBRANCH  29  33
ENDBRANCH  11  25
TORSDOF 8
ENDMDL
MODEL 9
REMARK VINA RESULT:      -8.5      1.285      1.685
REMARK  Name = 
REMARK  11 active torsions:
REMARK  status: ('A' for Active; 'I' for Inactive)
REMARK    1  A    between atoms: C_1  and  C_2
REMARK    2  A    between atoms: C_5  and  C_6
REMARK    3  A    between atoms: C_12  and  C_13
REMARK    4  A    between atoms: C_23  and  C_24
REMARK    5  A    between atoms: C_27  and  O_28
REMARK    6  A    between atoms: C_29  and  O_30
REMARK    7  A    between atoms: O_30  and  C_31
REMARK    8  A    between atoms: C_31  and  C_32
REMARK    9  A    between atoms: C_32  and  N_33
REMARK   10  A    between atoms: N_33  and  C_34
REMARK   11  A    between atoms: N_33  and  C_35
REMARK                            x       y       z     vdW  Elec       q    Type
REMARK                         _______ _______ _______ _____ _____    ______ ____
ROOT
ATOM      1  C   UNL     1      -0.405   8.958  22.286  0.00  0.00    +0.000 C 
ATOM      2  C   UNL     1       0.505   8.836  21.084  0.00  0.00    +0.000 A 
ATOM      3  N   UNL     1       1.097   7.597  20.904  0.00  0.00    +0.000 N 
ATOM      4  C   UNL     1       1.870   7.312  19.827  0.00  0.00    +0.000 A 
ATOM      5  C   UNL     1       2.522   6.182  19.380  0.00  0.00    +0.000 A 
ATOM      6  C   UNL     1       3.149   6.601  18.148  0.00  0.00    +0.000 A 
ATOM      7  N   UNL     1       2.926   7.909  17.911  0.00  0.00    +0.000 NA
ATOM      8  N   UNL     1       2.124   8.320  18.926  0.00  0.00    +0.000 N 
ATOM      9  C   UNL     1       1.629   9.634  19.034  0.00  0.00    +0.000 A 
ATOM     10  O   UNL     1       1.920  10.497  18.212  0.00  0.00    +0.000 OA
ATOM     11  C   UNL     1       0.729   9.861  20.223  0.00  0.00    +0.000 A 
ATOM     12  H   UNL     1       0.957   6.914  21.646  0.00  0.00    +0.000 HD
ENDROOT
BRANCH   5  13
ATOM     13  C   UNL     1       2.515   4.903  20.090  0.00  0.00    +0.000 A 
ATOM     14  C   UNL     1       1.328   4.375  20.618  0.00  0.00    +0.000 A 
ATOM     15  C   UNL     1       1.324   3.150  21.292  0.00  0.00    +0.000 A 
ATOM     16  C   UNL     1       2.497   2.409  21.393  0.00  0.00    +0.000 A 
ATOM     17  C   UNL     1       3.680   2.907  20.852  0.00  0.00    +0.000 A 
ATOM     18  C   UNL     1       3.695   4.161  20.237  0.00  0.00    +0.000 A 
ENDBRANCH   5  13
BRANCH   6  19
ATOM     19  C   UNL     1       3.947   5.806  17.199  0.00  0.00    +0.000 A 
ATOM     20  C   UNL     1       3.767   4.420  17.080  0.00  0.00    +0.000 A 
ATOM     21  C   UNL     1       4.587   3.654  16.248  0.00  0.00    +0.000 A 
ATOM     22  C   UNL     1       5.565   4.272  15.474  0.00  0.00    +0.000 A 
ATOM     23  C   UNL     1       5.721   5.656  15.533  0.00  0.00    +0.000 A 
ATOM     24  C   UNL     1       4.921   6.418  16.395  0.00  0.00    +0.000 A 
ENDBRANCH   6  19
BRANCH  11  25
ATOM     25  C   UNL     1       0.147  11.195  20.456  0.00  0.00    +0.000 A 
ATOM     26  C   UNL     1       0.908  12.219  21.030  0.00  0.00    +0.000 A 
ATOM     27  C   UNL     1       0.364  13.499  21.172  0.00  0.00    +0.000 A 
ATOM     28  C   UNL     1      -0.937  13.752  20.732  0.00  0.00    +0.000 A 
ATOM     29  C   UNL     1      -1.716  12.740  20.153  0.00  0.00    +0.000 A 
ATOM     30  C   UNL     1      -1.163  11.460  20.032  0.00  0.00    +0.000 A 
BRANCH  28  31
ATOM     31  O   UNL     1      -1.461  15.011  20.858  0.00  0.00    +0.000 OA
ATOM     32  H   UNL     1      -1.131  15.566  20.136  0.00  0.00    +0.000 HD
ENDBRANCH  28  31
BRANCH  29  33
ATOM     33  O   UNL     1      -2.973  13.095  19.730  0.00  0.00    +0.000 OA
BRANCH  33  34
ATOM     34  C   UNL     1      -4.062  12.641  20.542  0.00  0.00    +0.000 C 
BRANCH  34  35
ATOM     35  C   UNL     1      -5.220  12.171  19.644  0.00  0.00    +0.000 C 
BRANCH  35  36
ATOM     36  N   UNL     1      -4.845  12.049  18.218  0.00  0.00    +0.000 NA
ATOM     37  C   UNL     1      -4.467  10.679  17.861  0.00  0.00    +0.000 C 
ATOM     38  C   UNL     1      -5.956  12.487  17.370  0.00  0.00    +0.000 C 
ENDBRANCH  35  36
ENDBRANCH  34  35
ENDBRANCH  33  34
ENDBRANCH  29  33
ENDBRANCH  11  25
TORSDOF 8
ENDMDL
