MODEL 1
REMARK VINA RESULT:      -7.3      0.000      0.000
REMARK  Name = 
REMARK  4 active torsions:
REMARK  status: ('A' for Active; 'I' for Inactive)
REMARK    1  A    between atoms: C_1  and  N_2
REMARK    2  A    between atoms: N_2  and  C_3
REMARK    3  A    between atoms: N_2  and  C_4
REMARK    4  A    between atoms: C_7  and  N_8
REMARK                            x       y       z     vdW  Elec       q    Type
REMARK                         _______ _______ _______ _____ _____    ______ ____
ROOT
ATOM      1  N   UNL     1       2.845   6.962  18.308  0.00  0.00    +0.000 N 
ATOM      2  C   UNL     1       3.904   7.478  17.457  0.00  0.00    +0.000 C 
ATOM      3  C   UNL     1       4.605   6.253  17.010  0.00  0.00    +0.000 A 
ATOM      4  C   UNL     1       5.811   6.139  16.341  0.00  0.00    +0.000 A 
ATOM      5  C   UNL     1       6.187   4.869  15.918  0.00  0.00    +0.000 A 
ATOM      6  F   UNL     1       7.357   4.717  15.287  0.00  0.00    +0.000 F 
ATOM      7  C   UNL     1       5.366   3.752  16.134  0.00  0.00    +0.000 A 
ATOM      8  C   UNL     1       4.175   3.875  16.863  0.00  0.00    +0.000 A 
ATOM      9  C   UNL     1       3.838   5.134  17.326  0.00  0.00    +0.000 A 
ATOM     10  C   UNL     1       2.735   5.576  18.211  0.00  0.00    +0.000 C 
ATOM     11  O   UNL     1       1.942   4.811  18.727  0.00  0.00    +0.000 OA
ENDROOT
BRANCH   1  15
ATOM     12  C   UNL     1       0.522   9.553  20.817  0.00  0.00    +0.000 A 
ATOM     13  C   UNL     1       0.712   9.833  19.452  0.00  0.00    +0.000 A 
ATOM     14  C   UNL     1       1.505   9.016  18.615  0.00  0.00    +0.000 A 
ATOM     15  C   UNL     1       2.088   7.850  19.108  0.00  0.00    +0.000 A 
ATOM     16  C   UNL     1       1.850   7.527  20.446  0.00  0.00    +0.000 A 
ATOM     17  C   UNL     1       1.099   8.363  21.275  0.00  0.00    +0.000 A 
BRANCH  12  19
ATOM     18  C   UNL     1      -0.182  11.819  21.516  0.00  0.00    +0.000 C 
ATOM     19  N   UNL     1      -0.211  10.371  21.683  0.00  0.00    +0.000 N 
ATOM     20  C   UNL     1      -0.438   9.878  23.043  0.00  0.00    +0.000 C 
ENDBRANCH  12  19
ENDBRANCH   1  15
TORSDOF 2
ENDMDL
MODEL 2
REMARK VINA RESULT:      -7.3      0.205      1.083
REMARK  Name = 
REMARK  4 active torsions:
REMARK  status: ('A' for Active; 'I' for Inactive)
REMARK    1  A    between atoms: C_1  and  N_2
REMARK    2  A    between atoms: N_2  and  C_3
REMARK    3  A    between atoms: N_2  and  C_4
REMARK    4  A    between atoms: C_7  and  N_8
REMARK                            x       y       z     vdW  Elec       q    Type
REMARK                         _______ _______ _______ _____ _____    ______ ____
ROOT
ATOM      1  N   UNL     1       2.916   6.868  18.267  0.00  0.00    +0.000 N 
ATOM      2  C   UNL     1       3.934   7.446  17.405  0.00  0.00    +0.000 C 
ATOM      3  C   UNL     1       4.679   6.261  16.922  0.00  0.00    +0.000 A 
ATOM      4  C   UNL     1       5.876   6.211  16.228  0.00  0.00    +0.000 A 
ATOM      5  C   UNL     1       6.299   4.967  15.775  0.00  0.00    +0.000 A 
ATOM      6  F   UNL     1       7.461   4.879  15.119  0.00  0.00    +0.000 F 
ATOM      7  C   UNL     1       5.532   3.812  15.987  0.00  0.00    +0.000 A 
ATOM      8  C   UNL     1       4.352   3.869  16.741  0.00  0.00    +0.000 A 
ATOM      9  C   UNL     1       3.969   5.103  17.233  0.00  0.00    +0.000 A 
ATOM     10  C   UNL     1       2.865   5.481  18.147  0.00  0.00    +0.000 C 
ATOM     11  O   UNL     1       2.117   4.672  18.664  0.00  0.00    +0.000 OA
ENDROOT
BRANCH   1  15
ATOM     12  C   UNL     1       0.587   9.518  20.709  0.00  0.00    +0.000 A 
ATOM     13  C   UNL     1       1.133   8.332  21.230  0.00  0.00    +0.000 A 
ATOM     14  C   UNL     1       1.870   7.424  20.435  0.00  0.00    +0.000 A 
ATOM     15  C   UNL     1       2.137   7.708  19.097  0.00  0.00    +0.000 A 
ATOM     16  C   UNL     1       1.657   8.916  18.587  0.00  0.00    +0.000 A 
ATOM     17  C   UNL     1       0.895   9.786  19.369  0.00  0.00    +0.000 A 
BRANCH  12  19
ATOM     18  C   UNL     1      -0.257  11.814  21.074  0.00  0.00    +0.000 C 
ATOM     19  N   UNL     1      -0.192  10.408  21.454  0.00  0.00    +0.000 N 
ATOM     20  C   UNL     1      -0.380  10.110  22.875  0.00  0.00    +0.000 C 
ENDBRANCH  12  19
ENDBRANCH   1  15
TORSDOF 2
ENDMDL
MODEL 3
REMARK VINA RESULT:      -7.3      3.286      7.639
REMARK  Name = 
REMARK  4 active torsions:
REMARK  status: ('A' for Active; 'I' for Inactive)
REMARK    1  A    between atoms: C_1  and  N_2
REMARK    2  A    between atoms: N_2  and  C_3
REMARK    3  A    between atoms: N_2  and  C_4
REMARK    4  A    between atoms: C_7  and  N_8
REMARK                            x       y       z     vdW  Elec       q    Type
REMARK                         _______ _______ _______ _____ _____    ______ ____
ROOT
ATOM      1  N   UNL     1       2.258   7.674  18.874  0.00  0.00    +0.000 N 
ATOM      2  C   UNL     1       1.843   7.311  20.220  0.00  0.00    +0.000 C 
ATOM      3  C   UNL     1       1.188   8.542  20.714  0.00  0.00    +0.000 A 
ATOM      4  C   UNL     1       0.775   8.849  21.999  0.00  0.00    +0.000 A 
ATOM      5  C   UNL     1       0.062  10.030  22.174  0.00  0.00    +0.000 A 
ATOM      6  F   UNL     1      -0.335  10.369  23.406  0.00  0.00    +0.000 F 
ATOM      7  C   UNL     1      -0.252  10.863  21.090  0.00  0.00    +0.000 A 
ATOM      8  C   UNL     1       0.223  10.568  19.805  0.00  0.00    +0.000 A 
ATOM      9  C   UNL     1       0.977   9.419  19.653  0.00  0.00    +0.000 A 
ATOM     10  C   UNL     1       1.714   8.894  18.478  0.00  0.00    +0.000 C 
ATOM     11  O   UNL     1       1.794   9.485  17.418  0.00  0.00    +0.000 OA
ENDROOT
BRANCH   1  15
ATOM     12  C   UNL     1       4.926   5.196  16.605  0.00  0.00    +0.000 A 
ATOM     13  C   UNL     1       3.786   4.662  17.232  0.00  0.00    +0.000 A 
ATOM     14  C   UNL     1       2.914   5.451  18.017  0.00  0.00    +0.000 A 
ATOM     15  C   UNL     1       3.126   6.822  18.151  0.00  0.00    +0.000 A 
ATOM     16  C   UNL     1       4.217   7.374  17.477  0.00  0.00    +0.000 A 
ATOM     17  C   UNL     1       5.096   6.579  16.738  0.00  0.00    +0.000 A 
BRANCH  12  19
ATOM     18  C   UNL     1       7.233   4.363  16.285  0.00  0.00    +0.000 C 
ATOM     19  N   UNL     1       5.837   4.432  15.869  0.00  0.00    +0.000 N 
ATOM     20  C   UNL     1       5.577   4.270  14.437  0.00  0.00    +0.000 C 
ENDBRANCH  12  19
ENDBRANCH   1  15
TORSDOF 2
ENDMDL
MODEL 4
REMARK VINA RESULT:      -7.1      3.290      7.598
REMARK  Name = 
REMARK  4 active torsions:
REMARK  status: ('A' for Active; 'I' for Inactive)
REMARK    1  A    between atoms: C_1  and  N_2
REMARK    2  A    between atoms: N_2  and  C_3
REMARK    3  A    between atoms: N_2  and  C_4
REMARK    4  A    between atoms: C_7  and  N_8
REMARK                            x       y       z     vdW  Elec       q    Type
REMARK                         _______ _______ _______ _____ _____    ______ ____
ROOT
ATOM      1  N   UNL     1       2.282   7.760  18.847  0.00  0.00    +0.000 N 
ATOM      2  C   UNL     1       1.921   7.335  20.189  0.00  0.00    +0.000 C 
ATOM      3  C   UNL     1       1.207   8.511  20.735  0.00  0.00    +0.000 A 
ATOM      4  C   UNL     1       0.807   8.756  22.037  0.00  0.00    +0.000 A 
ATOM      5  C   UNL     1       0.031   9.887  22.264  0.00  0.00    +0.000 A 
ATOM      6  F   UNL     1      -0.355  10.166  23.513  0.00  0.00    +0.000 F 
ATOM      7  C   UNL     1      -0.356  10.731  21.213  0.00  0.00    +0.000 A 
ATOM      8  C   UNL     1       0.105  10.502  19.909  0.00  0.00    +0.000 A 
ATOM      9  C   UNL     1       0.921   9.405  19.705  0.00  0.00    +0.000 A 
ATOM     10  C   UNL     1       1.659   8.957  18.500  0.00  0.00    +0.000 C 
ATOM     11  O   UNL     1       1.679   9.583  17.457  0.00  0.00    +0.000 OA
ENDROOT
BRANCH   1  15
ATOM     12  C   UNL     1       4.973   5.294  16.591  0.00  0.00    +0.000 A 
ATOM     13  C   UNL     1       5.178   6.680  16.714  0.00  0.00    +0.000 A 
ATOM     14  C   UNL     1       4.284   7.519  17.418  0.00  0.00    +0.000 A 
ATOM     15  C   UNL     1       3.180   6.982  18.078  0.00  0.00    +0.000 A 
ATOM     16  C   UNL     1       3.004   5.599  18.020  0.00  0.00    +0.000 A 
ATOM     17  C   UNL     1       3.870   4.784  17.286  0.00  0.00    +0.000 A 
BRANCH  12  19
ATOM     18  C   UNL     1       7.200   4.277  16.249  0.00  0.00    +0.000 C 
ATOM     19  N   UNL     1       5.807   4.448  15.855  0.00  0.00    +0.000 N 
ATOM     20  C   UNL     1       5.509   4.279  14.432  0.00  0.00    +0.000 C 
ENDBRANCH  12  19
ENDBRANCH   1  15
TORSDOF 2
ENDMDL
MODEL 5
REMARK VINA RESULT:      -6.9      1.856      2.463
REMARK  Name = 
REMARK  4 active torsions:
REMARK  status: ('A' for Active; 'I' for Inactive)
REMARK    1  A    between atoms: C_1  and  N_2
REMARK    2  A    between atoms: N_2  and  C_3
REMARK    3  A    between atoms: N_2  and  C_4
REMARK    4  A    between atoms: C_7  and  N_8
REMARK                            x       y       z     vdW  Elec       q    Type
REMARK                         _______ _______ _______ _____ _____    ______ ____
ROOT
ATOM      1  N   UNL     1       2.310   7.022  19.346  0.00  0.00    +0.000 N 
ATOM      2  C   UNL     1       2.187   5.714  19.968  0.00  0.00    +0.000 C 
ATOM      3  C   UNL     1       2.800   4.808  18.971  0.00  0.00    +0.000 A 
ATOM      4  C   UNL     1       2.790   3.424  18.934  0.00  0.00    +0.000 A 
ATOM      5  C   UNL     1       3.559   2.807  17.953  0.00  0.00    +0.000 A 
ATOM      6  F   UNL     1       3.556   1.472  17.875  0.00  0.00    +0.000 F 
ATOM      7  C   UNL     1       4.336   3.554  17.055  0.00  0.00    +0.000 A 
ATOM      8  C   UNL     1       4.291   4.954  17.069  0.00  0.00    +0.000 A 
ATOM      9  C   UNL     1       3.481   5.557  18.014  0.00  0.00    +0.000 A 
ATOM     10  C   UNL     1       3.121   6.981  18.214  0.00  0.00    +0.000 C 
ATOM     11  O   UNL     1       3.491   7.875  17.477  0.00  0.00    +0.000 OA
ENDROOT
BRANCH   1  15
ATOM     12  C   UNL     1       0.202  10.309  21.124  0.00  0.00    +0.000 A 
ATOM     13  C   UNL     1       0.519  10.298  19.753  0.00  0.00    +0.000 A 
ATOM     14  C   UNL     1       1.248   9.245  19.154  0.00  0.00    +0.000 A 
ATOM     15  C   UNL     1       1.631   8.133  19.901  0.00  0.00    +0.000 A 
ATOM     16  C   UNL     1       1.262   8.102  21.247  0.00  0.00    +0.000 A 
ATOM     17  C   UNL     1       0.579   9.167  21.840  0.00  0.00    +0.000 A 
BRANCH  12  19
ATOM     18  C   UNL     1      -0.001  12.731  21.583  0.00  0.00    +0.000 C 
ATOM     19  N   UNL     1      -0.468  11.361  21.757  0.00  0.00    +0.000 N 
ATOM     20  C   UNL     1      -1.150  11.062  23.018  0.00  0.00    +0.000 C 
ENDBRANCH  12  19
ENDBRANCH   1  15
TORSDOF 2
ENDMDL
MODEL 6
REMARK VINA RESULT:      -6.9      3.481      7.641
REMARK  Name = 
REMARK  4 active torsions:
REMARK  status: ('A' for Active; 'I' for Inactive)
REMARK    1  A    between atoms: C_1  and  N_2
REMARK    2  A    between atoms: N_2  and  C_3
REMARK    3  A    between atoms: N_2  and  C_4
REMARK    4  A    between atoms: C_7  and  N_8
REMARK                            x       y       z     vdW  Elec       q    Type
REMARK                         _______ _______ _______ _____ _____    ______ ____
ROOT
ATOM      1  N   UNL     1       1.833   8.065  19.461  0.00  0.00    +0.000 N 
ATOM      2  C   UNL     1       1.376   7.812  20.817  0.00  0.00    +0.000 C 
ATOM      3  C   UNL     1       0.611   9.035  21.149  0.00  0.00    +0.000 A 
ATOM      4  C   UNL     1       0.112   9.440  22.375  0.00  0.00    +0.000 A 
ATOM      5  C   UNL     1      -0.690  10.575  22.393  0.00  0.00    +0.000 A 
ATOM      6  F   UNL     1      -1.173  11.008  23.563  0.00  0.00    +0.000 F 
ATOM      7  C   UNL     1      -1.006  11.267  21.214  0.00  0.00    +0.000 A 
ATOM      8  C   UNL     1      -0.446  10.879  19.990  0.00  0.00    +0.000 A 
ATOM      9  C   UNL     1       0.394   9.780  19.992  0.00  0.00    +0.000 A 
ATOM     10  C   UNL     1       1.225   9.194  18.914  0.00  0.00    +0.000 C 
ATOM     11  O   UNL     1       1.318   9.678  17.802  0.00  0.00    +0.000 OA
ENDROOT
BRANCH   1  15
ATOM     12  C   UNL     1       4.771   5.423  17.789  0.00  0.00    +0.000 A 
ATOM     13  C   UNL     1       4.474   6.661  17.190  0.00  0.00    +0.000 A 
ATOM     14  C   UNL     1       3.483   7.530  17.700  0.00  0.00    +0.000 A 
ATOM     15  C   UNL     1       2.794   7.212  18.870  0.00  0.00    +0.000 A 
ATOM     16  C   UNL     1       3.128   6.017  19.510  0.00  0.00    +0.000 A 
ATOM     17  C   UNL     1       4.080   5.145  18.974  0.00  0.00    +0.000 A 
BRANCH  12  19
ATOM     18  C   UNL     1       7.128   4.728  17.514  0.00  0.00    +0.000 C 
ATOM     19  N   UNL     1       5.705   4.517  17.278  0.00  0.00    +0.000 N 
ATOM     20  C   UNL     1       5.349   3.804  16.050  0.00  0.00    +0.000 C 
ENDBRANCH  12  19
ENDBRANCH   1  15
TORSDOF 2
ENDMDL
MODEL 7
REMARK VINA RESULT:      -6.9      3.384      7.661
REMARK  Name = 
REMARK  4 active torsions:
REMARK  status: ('A' for Active; 'I' for Inactive)
REMARK    1  A    between atoms: C_1  and  N_2
REMARK    2  A    between atoms: N_2  and  C_3
REMARK    3  A    between atoms: N_2  and  C_4
REMARK    4  A    between atoms: C_7  and  N_8
REMARK                            x       y       z     vdW  Elec       q    Type
REMARK                         _______ _______ _______ _____ _____    ______ ____
ROOT
ATOM      1  N   UNL     1       2.218   7.864  19.180  0.00  0.00    +0.000 N 
ATOM      2  C   UNL     1       1.729   7.546  20.512  0.00  0.00    +0.000 C 
ATOM      3  C   UNL     1       0.935   8.742  20.874  0.00  0.00    +0.000 A 
ATOM      4  C   UNL     1       0.397   9.087  22.101  0.00  0.00    +0.000 A 
ATOM      5  C   UNL     1      -0.424  10.208  22.145  0.00  0.00    +0.000 A 
ATOM      6  F   UNL     1      -0.945  10.584  23.318  0.00  0.00    +0.000 F 
ATOM      7  C   UNL     1      -0.719  10.944  20.987  0.00  0.00    +0.000 A 
ATOM      8  C   UNL     1      -0.121  10.616  19.763  0.00  0.00    +0.000 A 
ATOM      9  C   UNL     1       0.737   9.532  19.744  0.00  0.00    +0.000 A 
ATOM     10  C   UNL     1       1.606   9.005  18.665  0.00  0.00    +0.000 C 
ATOM     11  O   UNL     1       1.720   9.536  17.577  0.00  0.00    +0.000 OA
ENDROOT
BRANCH   1  15
ATOM     12  C   UNL     1       5.197   5.458  17.245  0.00  0.00    +0.000 A 
ATOM     13  C   UNL     1       4.530   5.009  18.399  0.00  0.00    +0.000 A 
ATOM     14  C   UNL     1       3.573   5.800  19.077  0.00  0.00    +0.000 A 
ATOM     15  C   UNL     1       3.208   7.050  18.581  0.00  0.00    +0.000 A 
ATOM     16  C   UNL     1       3.815   7.477  17.398  0.00  0.00    +0.000 A 
ATOM     17  C   UNL     1       4.789   6.706  16.759  0.00  0.00    +0.000 A 
BRANCH  12  19
ATOM     18  C   UNL     1       5.810   3.705  15.612  0.00  0.00    +0.000 C 
ATOM     19  N   UNL     1       6.187   4.723  16.585  0.00  0.00    +0.000 N 
ATOM     20  C   UNL     1       7.451   4.510  17.292  0.00  0.00    +0.000 C 
ENDBRANCH  12  19
ENDBRANCH   1  15
TORSDOF 2
ENDMDL
MODEL 8
REMARK VINA RESULT:      -6.8      1.113      1.828
REMARK  Name = 
REMARK  4 active torsions:
REMARK  status: ('A' for Active; 'I' for Inactive)
REMARK    1  A    between atoms: C_1  and  N_2
REMARK    2  A    between atoms: N_2  and  C_3
REMARK    3  A    between atoms: N_2  and  C_4
REMARK    4  A    between atoms: C_7  and  N_8
REMARK                            x       y       z     vdW  Elec       q    Type
REMARK                         _______ _______ _______ _____ _____    ______ ____
ROOT
ATOM      1  N   UNL     1       2.226   7.432  19.212  0.00  0.00    +0.000 N 
ATOM      2  C   UNL     1       2.912   7.829  17.993  0.00  0.00    +0.000 C 
ATOM      3  C   UNL     1       3.665   6.611  17.618  0.00  0.00    +0.000 A 
ATOM      4  C   UNL     1       4.647   6.460  16.654  0.00  0.00    +0.000 A 
ATOM      5  C   UNL     1       5.106   5.171  16.409  0.00  0.00    +0.000 A 
ATOM      6  F   UNL     1       6.070   4.991  15.498  0.00  0.00    +0.000 F 
ATOM      7  C   UNL     1       4.577   4.064  17.088  0.00  0.00    +0.000 A 
ATOM      8  C   UNL     1       3.626   4.239  18.102  0.00  0.00    +0.000 A 
ATOM      9  C   UNL     1       3.215   5.531  18.375  0.00  0.00    +0.000 A 
ATOM     10  C   UNL     1       2.333   6.062  19.441  0.00  0.00    +0.000 C 
ATOM     11  O   UNL     1       1.852   5.370  20.319  0.00  0.00    +0.000 OA
ENDROOT
BRANCH   1  15
ATOM     12  C   UNL     1       0.273  10.480  21.515  0.00  0.00    +0.000 A 
ATOM     13  C   UNL     1       0.850   9.354  22.130  0.00  0.00    +0.000 A 
ATOM     14  C   UNL     1       1.464   8.318  21.389  0.00  0.00    +0.000 A 
ATOM     15  C   UNL     1       1.573   8.407  20.002  0.00  0.00    +0.000 A 
ATOM     16  C   UNL     1       1.064   9.552  19.388  0.00  0.00    +0.000 A 
ATOM     17  C   UNL     1       0.421  10.550  20.125  0.00  0.00    +0.000 A 
BRANCH  12  19
ATOM     18  C   UNL     1      -1.488  11.159  23.114  0.00  0.00    +0.000 C 
ATOM     19  N   UNL     1      -0.390  11.493  22.215  0.00  0.00    +0.000 N 
ATOM     20  C   UNL     1      -0.438  12.818  21.595  0.00  0.00    +0.000 C 
ENDBRANCH  12  19
ENDBRANCH   1  15
TORSDOF 2
ENDMDL
MODEL 9
REMARK VINA RESULT:      -6.8      0.865      1.212
REMARK  Name = 
REMARK  4 active torsions:
REMARK  status: ('A' for Active; 'I' for Inactive)
REMARK    1  A    between atoms: C_1  and  N_2
REMARK    2  A    between atoms: N_2  and  C_3
REMARK    3  A    between atoms: N_2  and  C_4
REMARK    4  A    between atoms: C_7  and  N_8
REMARK                            x       y       z     vdW  Elec       q    Type
REMARK                         _______ _______ _______ _____ _____    ______ ____
ROOT
ATOM      1  N   UNL     1       2.359   7.201  18.931  0.00  0.00    +0.000 N 
ATOM      2  C   UNL     1       3.166   7.571  17.780  0.00  0.00    +0.000 C 
ATOM      3  C   UNL     1       3.862   6.310  17.437  0.00  0.00    +0.000 A 
ATOM      4  C   UNL     1       4.905   6.108  16.550  0.00  0.00    +0.000 A 
ATOM      5  C   UNL     1       5.294   4.795  16.311  0.00  0.00    +0.000 A 
ATOM      6  F   UNL     1       6.313   4.564  15.475  0.00  0.00    +0.000 F 
ATOM      7  C   UNL     1       4.638   3.716  16.921  0.00  0.00    +0.000 A 
ATOM      8  C   UNL     1       3.622   3.938  17.860  0.00  0.00    +0.000 A 
ATOM      9  C   UNL     1       3.280   5.250  18.130  0.00  0.00    +0.000 A 
ATOM     10  C   UNL     1       2.354   5.822  19.136  0.00  0.00    +0.000 C 
ATOM     11  O   UNL     1       1.758   5.150  19.956  0.00  0.00    +0.000 OA
ENDROOT
BRANCH   1  15
ATOM     12  C   UNL     1       0.374  10.153  21.329  0.00  0.00    +0.000 A 
ATOM     13  C   UNL     1       0.456  10.280  19.931  0.00  0.00    +0.000 A 
ATOM     14  C   UNL     1       1.139   9.341  19.124  0.00  0.00    +0.000 A 
ATOM     15  C   UNL     1       1.713   8.204  19.691  0.00  0.00    +0.000 A 
ATOM     16  C   UNL     1       1.579   8.034  21.070  0.00  0.00    +0.000 A 
ATOM     17  C   UNL     1       0.939   8.989  21.864  0.00  0.00    +0.000 A 
BRANCH  12  19
ATOM     18  C   UNL     1      -1.184  10.652  23.184  0.00  0.00    +0.000 C 
ATOM     19  N   UNL     1      -0.246  11.093  22.159  0.00  0.00    +0.000 N 
ATOM     20  C   UNL     1      -0.463  12.434  21.613  0.00  0.00    +0.000 C 
ENDBRANCH  12  19
ENDBRANCH   1  15
TORSDOF 2
ENDMDL
