MODEL 1
REMARK VINA RESULT:      -7.6      0.000      0.000
REMARK  Name = 
REMARK  8 active torsions:
REMARK  status: ('A' for Active; 'I' for Inactive)
REMARK    1  A    between atoms: C_1  and  O_2
REMARK    2  A    between atoms: O_2  and  C_3
REMARK    3  A    between atoms: C_4  and  C_5
REMARK    4  A    between atoms: C_7  and  C_8
REMARK    5  A    between atoms: C_8  and  N_9
REMARK    6  A    between atoms: N_9  and  C_10
REMARK    7  A    between atoms: C_10  and  C_11
REMARK    8  A    between atoms: C_24  and  C_25
REMARK                            x       y       z     vdW  Elec       q    Type
REMARK                         _______ _______ _______ _____ _____    ______ ____
ROOT
ATOM      1  N   UNL     1       1.204   9.054  17.948  0.00  0.00    +0.000 NA
ATOM      2  H   UNL     1       0.810   9.366  17.061  0.00  0.00    +0.000 HD
ENDROOT
BRANCH   1   3
ATOM      3  C   UNL     1       0.723   9.929  19.013  0.00  0.00    +0.000 C 
BRANCH   3   8
ATOM      4  C   UNL     1      -3.260  11.326  17.991  0.00  0.00    +0.000 A 
ATOM      5  C   UNL     1      -2.571  10.458  17.128  0.00  0.00    +0.000 A 
ATOM      6  C   UNL     1      -3.058   9.977  15.790  0.00  0.00    +0.000 C 
ATOM      7  C   UNL     1      -1.301   9.989  17.513  0.00  0.00    +0.000 A 
ATOM      8  C   UNL     1      -0.668  10.419  18.685  0.00  0.00    +0.000 A 
ATOM      9  C   UNL     1      -1.338  11.326  19.506  0.00  0.00    +0.000 A 
ATOM     10  C   UNL     1      -2.625  11.782  19.172  0.00  0.00    +0.000 A 
ATOM     11  C   UNL     1      -3.303  12.769  20.087  0.00  0.00    +0.000 C 
BRANCH   4  13
ATOM     12  C   UNL     1      -5.641  11.066  18.028  0.00  0.00    +0.000 C 
ATOM     13  O   UNL     1      -4.499  11.872  17.771  0.00  0.00    +0.000 OA
ENDBRANCH   4  13
ENDBRANCH   3   8
ENDBRANCH   1   3
BRANCH   1  14
ATOM     14  C   UNL     1       2.657   9.044  17.858  0.00  0.00    +0.000 C 
BRANCH  14  15
ATOM     15  C   UNL     1       3.150   7.626  17.737  0.00  0.00    +0.000 A 
ATOM     16  C   UNL     1       4.300   7.310  17.017  0.00  0.00    +0.000 A 
ATOM     17  C   UNL     1       4.713   5.989  16.980  0.00  0.00    +0.000 A 
ATOM     18  N   UNL     1       4.072   4.970  17.604  0.00  0.00    +0.000 NA
ATOM     19  C   UNL     1       2.970   5.278  18.324  0.00  0.00    +0.000 A 
ATOM     20  N   UNL     1       2.269   4.290  19.020  0.00  0.00    +0.000 N 
ATOM     21  C   UNL     1       2.523   2.905  18.581  0.00  0.00    +0.000 C 
ATOM     22  C   UNL     1       1.518   1.988  19.308  0.00  0.00    +0.000 C 
ATOM     23  O   UNL     1       1.632   2.100  20.742  0.00  0.00    +0.000 OA
ATOM     24  C   UNL     1       1.435   3.461  21.161  0.00  0.00    +0.000 C 
ATOM     25  C   UNL     1       2.436   4.409  20.484  0.00  0.00    +0.000 C 
ATOM     26  C   UNL     1       2.484   6.586  18.389  0.00  0.00    +0.000 A 
ENDBRANCH  14  15
ENDBRANCH   1  14
TORSDOF 5
ENDMDL
MODEL 2
REMARK VINA RESULT:      -7.4      0.306      1.768
REMARK  Name = 
REMARK  8 active torsions:
REMARK  status: ('A' for Active; 'I' for Inactive)
REMARK    1  A    between atoms: C_1  and  O_2
REMARK    2  A    between atoms: O_2  and  C_3
REMARK    3  A    between atoms: C_4  and  C_5
REMARK    4  A    between atoms: C_7  and  C_8
REMARK    5  A    between atoms: C_8  and  N_9
REMARK    6  A    between atoms: N_9  and  C_10
REMARK    7  A    between atoms: C_10  and  C_11
REMARK    8  A    between atoms: C_24  and  C_25
REMARK                            x       y       z     vdW  Elec       q    Type
REMARK                         _______ _______ _______ _____ _____    ______ ____
ROOT
ATOM      1  N   UNL     1       1.191   9.109  18.813  0.00  0.00    +0.000 NA
ATOM      2  H   UNL     1       0.396   8.692  18.331  0.00  0.00    +0.000 HD
ENDROOT
BRANCH   1   3
ATOM      3  C   UNL     1       0.815  10.441  19.278  0.00  0.00    +0.000 C 
BRANCH   3   8
ATOM      4  C   UNL     1      -3.230  11.405  18.028  0.00  0.00    +0.000 A 
ATOM      5  C   UNL     1      -2.710  11.941  19.217  0.00  0.00    +0.000 A 
ATOM      6  C   UNL     1      -3.454  12.813  20.189  0.00  0.00    +0.000 C 
ATOM      7  C   UNL     1      -1.379  11.645  19.567  0.00  0.00    +0.000 A 
ATOM      8  C   UNL     1      -0.585  10.770  18.816  0.00  0.00    +0.000 A 
ATOM      9  C   UNL     1      -1.132  10.198  17.669  0.00  0.00    +0.000 A 
ATOM     10  C   UNL     1      -2.443  10.506  17.267  0.00  0.00    +0.000 A 
ATOM     11  C   UNL     1      -2.992   9.853  16.024  0.00  0.00    +0.000 C 
BRANCH   4  13
ATOM     12  C   UNL     1      -5.575  10.951  18.210  0.00  0.00    +0.000 C 
ATOM     13  O   UNL     1      -4.499  11.594  17.541  0.00  0.00    +0.000 OA
ENDBRANCH   4  13
ENDBRANCH   3   8
ENDBRANCH   1   3
BRANCH   1  14
ATOM     14  C   UNL     1       2.340   9.140  17.921  0.00  0.00    +0.000 C 
BRANCH  14  15
ATOM     15  C   UNL     1       2.936   7.761  17.808  0.00  0.00    +0.000 A 
ATOM     16  C   UNL     1       4.131   7.534  17.130  0.00  0.00    +0.000 A 
ATOM     17  C   UNL     1       4.637   6.246  17.099  0.00  0.00    +0.000 A 
ATOM     18  N   UNL     1       4.046   5.178  17.691  0.00  0.00    +0.000 NA
ATOM     19  C   UNL     1       2.899   5.401  18.370  0.00  0.00    +0.000 A 
ATOM     20  N   UNL     1       2.243   4.359  19.032  0.00  0.00    +0.000 N 
ATOM     21  C   UNL     1       2.610   3.000  18.592  0.00  0.00    +0.000 C 
ATOM     22  C   UNL     1       1.646   2.008  19.274  0.00  0.00    +0.000 C 
ATOM     23  O   UNL     1       1.698   2.113  20.712  0.00  0.00    +0.000 OA
ATOM     24  C   UNL     1       1.389   3.453  21.133  0.00  0.00    +0.000 C 
ATOM     25  C   UNL     1       2.346   4.475  20.502  0.00  0.00    +0.000 C 
ATOM     26  C   UNL     1       2.320   6.671  18.427  0.00  0.00    +0.000 A 
ENDBRANCH  14  15
ENDBRANCH   1  14
TORSDOF 5
ENDMDL
MODEL 3
REMARK VINA RESULT:      -7.3      6.490      9.206
REMARK  Name = 
REMARK  8 active torsions:
REMARK  status: ('A' for Active; 'I' for Inactive)
REMARK    1  A    between atoms: C_1  and  O_2
REMARK    2  A    between atoms: O_2  and  C_3
REMARK    3  A    between atoms: C_4  and  C_5
REMARK    4  A    between atoms: C_7  and  C_8
REMARK    5  A    between atoms: C_8  and  N_9
REMARK    6  A    between atoms: N_9  and  C_10
REMARK    7  A    between atoms: C_10  and  C_11
REMARK    8  A    between atoms: C_24  and  C_25
REMARK                            x       y       z     vdW  Elec       q    Type
REMARK                         _______ _______ _______ _____ _____    ______ ____
ROOT
ATOM      1  N   UNL     1       7.795   9.309  18.006  0.00  0.00    +0.000 NA
ATOM      2  H   UNL     1       7.768  10.154  17.437  0.00  0.00    +0.000 HD
ENDROOT
BRANCH   1   3
ATOM      3  C   UNL     1       8.973   9.356  18.867  0.00  0.00    +0.000 C 
BRANCH   3   8
ATOM      4  C   UNL     1      10.436  13.434  19.156  0.00  0.00    +0.000 A 
ATOM      5  C   UNL     1      10.571  12.717  17.955  0.00  0.00    +0.000 A 
ATOM      6  C   UNL     1      11.253  13.207  16.709  0.00  0.00    +0.000 C 
ATOM      7  C   UNL     1      10.043  11.414  17.884  0.00  0.00    +0.000 A 
ATOM      8  C   UNL     1       9.464  10.780  18.989  0.00  0.00    +0.000 A 
ATOM      9  C   UNL     1       9.388  11.481  20.191  0.00  0.00    +0.000 A 
ATOM     10  C   UNL     1       9.866  12.799  20.286  0.00  0.00    +0.000 A 
ATOM     11  C   UNL     1       9.770  13.511  21.611  0.00  0.00    +0.000 C 
BRANCH   4  13
ATOM     12  C   UNL     1      12.290  14.905  19.526  0.00  0.00    +0.000 C 
ATOM     13  O   UNL     1      10.889  14.707  19.393  0.00  0.00    +0.000 OA
ENDBRANCH   4  13
ENDBRANCH   3   8
ENDBRANCH   1   3
BRANCH   1  14
ATOM     14  C   UNL     1       7.792   8.139  17.139  0.00  0.00    +0.000 C 
BRANCH  14  15
ATOM     15  C   UNL     1       7.333   6.932  17.914  0.00  0.00    +0.000 A 
ATOM     16  C   UNL     1       8.093   6.397  18.951  0.00  0.00    +0.000 A 
ATOM     17  C   UNL     1       7.591   5.308  19.643  0.00  0.00    +0.000 A 
ATOM     18  N   UNL     1       6.397   4.720  19.382  0.00  0.00    +0.000 NA
ATOM     19  C   UNL     1       5.647   5.253  18.391  0.00  0.00    +0.000 A 
ATOM     20  N   UNL     1       4.392   4.724  18.078  0.00  0.00    +0.000 N 
ATOM     21  C   UNL     1       4.146   3.351  18.558  0.00  0.00    +0.000 C 
ATOM     22  C   UNL     1       2.817   2.869  17.944  0.00  0.00    +0.000 C 
ATOM     23  O   UNL     1       1.719   3.738  18.293  0.00  0.00    +0.000 OA
ATOM     24  C   UNL     1       1.986   5.086  17.868  0.00  0.00    +0.000 C 
ATOM     25  C   UNL     1       3.289   5.621  18.481  0.00  0.00    +0.000 C 
ATOM     26  C   UNL     1       6.099   6.339  17.638  0.00  0.00    +0.000 A 
ENDBRANCH  14  15
ENDBRANCH   1  14
TORSDOF 5
ENDMDL
MODEL 4
REMARK VINA RESULT:      -7.3      2.992      4.652
REMARK  Name = 
REMARK  8 active torsions:
REMARK  status: ('A' for Active; 'I' for Inactive)
REMARK    1  A    between atoms: C_1  and  O_2
REMARK    2  A    between atoms: O_2  and  C_3
REMARK    3  A    between atoms: C_4  and  C_5
REMARK    4  A    between atoms: C_7  and  C_8
REMARK    5  A    between atoms: C_8  and  N_9
REMARK    6  A    between atoms: N_9  and  C_10
REMARK    7  A    between atoms: C_10  and  C_11
REMARK    8  A    between atoms: C_24  and  C_25
REMARK                            x       y       z     vdW  Elec       q    Type
REMARK                         _______ _______ _______ _____ _____    ______ ____
ROOT
ATOM      1  N   UNL     1       2.033   6.986  20.926  0.00  0.00    +0.000 NA
ATOM      2  H   UNL     1       1.585   7.418  21.734  0.00  0.00    +0.000 HD
ENDROOT
BRANCH   1   3
ATOM      3  C   UNL     1       1.774   7.808  19.748  0.00  0.00    +0.000 C 
BRANCH   3   8
ATOM      4  C   UNL     1      -0.682  11.197  20.905  0.00  0.00    +0.000 A 
ATOM      5  C   UNL     1      -0.336  10.218  21.851  0.00  0.00    +0.000 A 
ATOM      6  C   UNL     1      -0.791  10.177  23.282  0.00  0.00    +0.000 C 
ATOM      7  C   UNL     1       0.500   9.158  21.452  0.00  0.00    +0.000 A 
ATOM      8  C   UNL     1       0.930   9.002  20.129  0.00  0.00    +0.000 A 
ATOM      9  C   UNL     1       0.533   9.949  19.186  0.00  0.00    +0.000 A 
ATOM     10  C   UNL     1      -0.267  11.043  19.560  0.00  0.00    +0.000 A 
ATOM     11  C   UNL     1      -0.678  12.035  18.501  0.00  0.00    +0.000 C 
BRANCH   4  13
ATOM     12  C   UNL     1      -0.930  13.388  21.841  0.00  0.00    +0.000 C 
ATOM     13  O   UNL     1      -1.481  12.290  21.127  0.00  0.00    +0.000 OA
ENDBRANCH   4  13
ENDBRANCH   3   8
ENDBRANCH   1   3
BRANCH   1  14
ATOM     14  C   UNL     1       1.541   5.625  20.769  0.00  0.00    +0.000 C 
BRANCH  14  15
ATOM     15  C   UNL     1       2.153   5.002  19.541  0.00  0.00    +0.000 A 
ATOM     16  C   UNL     1       1.430   4.138  18.722  0.00  0.00    +0.000 A 
ATOM     17  C   UNL     1       2.046   3.632  17.590  0.00  0.00    +0.000 A 
ATOM     18  N   UNL     1       3.317   3.922  17.217  0.00  0.00    +0.000 NA
ATOM     19  C   UNL     1       4.013   4.780  17.997  0.00  0.00    +0.000 A 
ATOM     20  N   UNL     1       5.318   5.153  17.667  0.00  0.00    +0.000 N 
ATOM     21  C   UNL     1       6.012   4.258  16.721  0.00  0.00    +0.000 C 
ATOM     22  C   UNL     1       7.486   4.706  16.645  0.00  0.00    +0.000 C 
ATOM     23  O   UNL     1       7.606   6.083  16.230  0.00  0.00    +0.000 OA
ATOM     24  C   UNL     1       6.885   6.947  17.126  0.00  0.00    +0.000 C 
ATOM     25  C   UNL     1       5.402   6.556  17.211  0.00  0.00    +0.000 C 
ATOM     26  C   UNL     1       3.461   5.314  19.165  0.00  0.00    +0.000 A 
ENDBRANCH  14  15
ENDBRANCH   1  14
TORSDOF 5
ENDMDL
MODEL 5
REMARK VINA RESULT:      -7.3      6.370      9.182
REMARK  Name = 
REMARK  8 active torsions:
REMARK  status: ('A' for Active; 'I' for Inactive)
REMARK    1  A    between atoms: C_1  and  O_2
REMARK    2  A    between atoms: O_2  and  C_3
REMARK    3  A    between atoms: C_4  and  C_5
REMARK    4  A    between atoms: C_7  and  C_8
REMARK    5  A    between atoms: C_8  and  N_9
REMARK    6  A    between atoms: N_9  and  C_10
REMARK    7  A    between atoms: C_10  and  C_11
REMARK    8  A    between atoms: C_24  and  C_25
REMARK                            x       y       z     vdW  Elec       q    Type
REMARK                         _______ _______ _______ _____ _____    ______ ____
ROOT
ATOM      1  N   UNL     1       7.785   9.263  17.969  0.00  0.00    +0.000 NA
ATOM      2  H   UNL     1       7.831  10.103  17.393  0.00  0.00    +0.000 HD
ENDROOT
BRANCH   1   3
ATOM      3  C   UNL     1       8.920   9.256  18.887  0.00  0.00    +0.000 C 
BRANCH   3   8
ATOM      4  C   UNL     1      10.497  13.280  19.312  0.00  0.00    +0.000 A 
ATOM      5  C   UNL     1       9.872  12.645  20.399  0.00  0.00    +0.000 A 
ATOM      6  C   UNL     1       9.623  13.255  21.750  0.00  0.00    +0.000 C 
ATOM      7  C   UNL     1       9.415  11.324  20.239  0.00  0.00    +0.000 A 
ATOM      8  C   UNL     1       9.486  10.651  19.013  0.00  0.00    +0.000 A 
ATOM      9  C   UNL     1      10.056  11.312  17.926  0.00  0.00    +0.000 A 
ATOM     10  C   UNL     1      10.562  12.617  18.062  0.00  0.00    +0.000 A 
ATOM     11  C   UNL     1      11.159  13.292  16.855  0.00  0.00    +0.000 C 
BRANCH   4  13
ATOM     12  C   UNL     1      10.079  15.636  19.213  0.00  0.00    +0.000 C 
ATOM     13  O   UNL     1      10.999  14.557  19.299  0.00  0.00    +0.000 OA
ENDBRANCH   4  13
ENDBRANCH   3   8
ENDBRANCH   1   3
BRANCH   1  14
ATOM     14  C   UNL     1       7.761   8.087  17.112  0.00  0.00    +0.000 C 
BRANCH  14  15
ATOM     15  C   UNL     1       7.311   6.888  17.905  0.00  0.00    +0.000 A 
ATOM     16  C   UNL     1       8.070   6.380  18.957  0.00  0.00    +0.000 A 
ATOM     17  C   UNL     1       7.575   5.298  19.664  0.00  0.00    +0.000 A 
ATOM     18  N   UNL     1       6.391   4.691  19.404  0.00  0.00    +0.000 NA
ATOM     19  C   UNL     1       5.642   5.197  18.399  0.00  0.00    +0.000 A 
ATOM     20  N   UNL     1       4.395   4.648  18.086  0.00  0.00    +0.000 N 
ATOM     21  C   UNL     1       4.162   3.280  18.588  0.00  0.00    +0.000 C 
ATOM     22  C   UNL     1       2.843   2.771  17.973  0.00  0.00    +0.000 C 
ATOM     23  O   UNL     1       1.733   3.633  18.299  0.00  0.00    +0.000 OA
ATOM     24  C   UNL     1       1.986   4.977  17.853  0.00  0.00    +0.000 C 
ATOM     25  C   UNL     1       3.278   5.538  18.466  0.00  0.00    +0.000 C 
ATOM     26  C   UNL     1       6.086   6.275  17.630  0.00  0.00    +0.000 A 
ENDBRANCH  14  15
ENDBRANCH   1  14
TORSDOF 5
ENDMDL
MODEL 6
REMARK VINA RESULT:      -7.3      1.845      8.886
REMARK  Name = 
REMARK  8 active torsions:
REMARK  status: ('A' for Active; 'I' for Inactive)
REMARK    1  A    between atoms: C_1  and  O_2
REMARK    2  A    between atoms: O_2  and  C_3
REMARK    3  A    between atoms: C_4  and  C_5
REMARK    4  A    between atoms: C_7  and  C_8
REMARK    5  A    between atoms: C_8  and  N_9
REMARK    6  A    between atoms: N_9  and  C_10
REMARK    7  A    between atoms: C_10  and  C_11
REMARK    8  A    between atoms: C_24  and  C_25
REMARK                            x       y       z     vdW  Elec       q    Type
REMARK                         _______ _______ _______ _____ _____    ______ ____
ROOT
ATOM      1  N   UNL     1       2.465   8.404  18.804  0.00  0.00    +0.000 NA
ATOM      2  H   UNL     1       3.189   7.859  18.339  0.00  0.00    +0.000 HD
ENDROOT
BRANCH   1   3
ATOM      3  C   UNL     1       1.887   7.601  19.878  0.00  0.00    +0.000 C 
BRANCH   3   8
ATOM      4  C   UNL     1       3.375   3.524  19.744  0.00  0.00    +0.000 A 
ATOM      5  C   UNL     1       2.211   3.830  20.469  0.00  0.00    +0.000 A 
ATOM      6  C   UNL     1       1.411   2.863  21.295  0.00  0.00    +0.000 C 
ATOM      7  C   UNL     1       1.732   5.153  20.451  0.00  0.00    +0.000 A 
ATOM      8  C   UNL     1       2.418   6.189  19.807  0.00  0.00    +0.000 A 
ATOM      9  C   UNL     1       3.604   5.884  19.139  0.00  0.00    +0.000 A 
ATOM     10  C   UNL     1       4.088   4.565  19.101  0.00  0.00    +0.000 A 
ATOM     11  C   UNL     1       5.380   4.289  18.374  0.00  0.00    +0.000 C 
BRANCH   4  13
ATOM     12  C   UNL     1       3.533   1.408  18.633  0.00  0.00    +0.000 C 
ATOM     13  O   UNL     1       3.974   2.293  19.654  0.00  0.00    +0.000 OA
ENDBRANCH   4  13
ENDBRANCH   3   8
ENDBRANCH   1   3
BRANCH   1  14
ATOM     14  C   UNL     1       1.468   8.821  17.829  0.00  0.00    +0.000 C 
BRANCH  14  15
ATOM     15  C   UNL     1       0.725  10.026  18.344  0.00  0.00    +0.000 A 
ATOM     16  C   UNL     1       1.393  11.107  18.914  0.00  0.00    +0.000 A 
ATOM     17  C   UNL     1       0.648  12.197  19.332  0.00  0.00    +0.000 A 
ATOM     18  N   UNL     1      -0.700  12.288  19.222  0.00  0.00    +0.000 NA
ATOM     19  C   UNL     1      -1.348  11.251  18.647  0.00  0.00    +0.000 A 
ATOM     20  N   UNL     1      -2.734  11.278  18.470  0.00  0.00    +0.000 N 
ATOM     21  C   UNL     1      -3.459  12.252  19.309  0.00  0.00    +0.000 C 
ATOM     22  C   UNL     1      -4.969  11.992  19.133  0.00  0.00    +0.000 C 
ATOM     23  O   UNL     1      -5.374  12.103  17.753  0.00  0.00    +0.000 OA
ATOM     24  C   UNL     1      -4.628  11.189  16.930  0.00  0.00    +0.000 C 
ATOM     25  C   UNL     1      -3.116  11.431  17.050  0.00  0.00    +0.000 C 
ATOM     26  C   UNL     1      -0.663  10.110  18.220  0.00  0.00    +0.000 A 
ENDBRANCH  14  15
ENDBRANCH   1  14
TORSDOF 5
ENDMDL
MODEL 7
REMARK VINA RESULT:      -7.3      3.180      4.620
REMARK  Name = 
REMARK  8 active torsions:
REMARK  status: ('A' for Active; 'I' for Inactive)
REMARK    1  A    between atoms: C_1  and  O_2
REMARK    2  A    between atoms: O_2  and  C_3
REMARK    3  A    between atoms: C_4  and  C_5
REMARK    4  A    between atoms: C_7  and  C_8
REMARK    5  A    between atoms: C_8  and  N_9
REMARK    6  A    between atoms: N_9  and  C_10
REMARK    7  A    between atoms: C_10  and  C_11
REMARK    8  A    between atoms: C_24  and  C_25
REMARK                            x       y       z     vdW  Elec       q    Type
REMARK                         _______ _______ _______ _____ _____    ______ ____
ROOT
ATOM      1  N   UNL     1       2.044   6.480  20.959  0.00  0.00    +0.000 NA
ATOM      2  H   UNL     1       1.576   6.864  21.780  0.00  0.00    +0.000 HD
ENDROOT
BRANCH   1   3
ATOM      3  C   UNL     1       2.037   7.483  19.899  0.00  0.00    +0.000 C 
BRANCH   3   8
ATOM      4  C   UNL     1      -0.441  10.877  20.991  0.00  0.00    +0.000 A 
ATOM      5  C   UNL     1       0.120  10.794  19.705  0.00  0.00    +0.000 A 
ATOM      6  C   UNL     1       0.000  11.831  18.625  0.00  0.00    +0.000 C 
ATOM      7  C   UNL     1       0.879   9.657  19.371  0.00  0.00    +0.000 A 
ATOM      8  C   UNL     1       1.162   8.647  20.298  0.00  0.00    +0.000 A 
ATOM      9  C   UNL     1       0.648   8.769  21.589  0.00  0.00    +0.000 A 
ATOM     10  C   UNL     1      -0.149   9.870  21.944  0.00  0.00    +0.000 A 
ATOM     11  C   UNL     1      -0.673   9.961  23.354  0.00  0.00    +0.000 C 
BRANCH   4  13
ATOM     12  C   UNL     1      -0.546  13.111  21.848  0.00  0.00    +0.000 C 
ATOM     13  O   UNL     1      -1.205  11.908  21.476  0.00  0.00    +0.000 OA
ENDBRANCH   4  13
ENDBRANCH   3   8
ENDBRANCH   1   3
BRANCH   1  14
ATOM     14  C   UNL     1       1.385   5.246  20.556  0.00  0.00    +0.000 C 
BRANCH  14  15
ATOM     15  C   UNL     1       2.067   4.678  19.339  0.00  0.00    +0.000 A 
ATOM     16  C   UNL     1       1.418   3.790  18.485  0.00  0.00    +0.000 A 
ATOM     17  C   UNL     1       2.095   3.338  17.365  0.00  0.00    +0.000 A 
ATOM     18  N   UNL     1       3.358   3.704  17.036  0.00  0.00    +0.000 NA
ATOM     19  C   UNL     1       3.981   4.584  17.850  0.00  0.00    +0.000 A 
ATOM     20  N   UNL     1       5.274   5.035  17.566  0.00  0.00    +0.000 N 
ATOM     21  C   UNL     1       6.044   4.196  16.629  0.00  0.00    +0.000 C 
ATOM     22  C   UNL     1       7.492   4.725  16.605  0.00  0.00    +0.000 C 
ATOM     23  O   UNL     1       7.548   6.113  16.215  0.00  0.00    +0.000 OA
ATOM     24  C   UNL     1       6.754   6.920  17.101  0.00  0.00    +0.000 C 
ATOM     25  C   UNL     1       5.293   6.448  17.134  0.00  0.00    +0.000 C 
ATOM     26  C   UNL     1       3.367   5.068  19.009  0.00  0.00    +0.000 A 
ENDBRANCH  14  15
ENDBRANCH   1  14
TORSDOF 5
ENDMDL
MODEL 8
REMARK VINA RESULT:      -7.3      3.248      8.939
REMARK  Name = 
REMARK  8 active torsions:
REMARK  status: ('A' for Active; 'I' for Inactive)
REMARK    1  A    between atoms: C_1  and  O_2
REMARK    2  A    between atoms: O_2  and  C_3
REMARK    3  A    between atoms: C_4  and  C_5
REMARK    4  A    between atoms: C_7  and  C_8
REMARK    5  A    between atoms: C_8  and  N_9
REMARK    6  A    between atoms: N_9  and  C_10
REMARK    7  A    between atoms: C_10  and  C_11
REMARK    8  A    between atoms: C_24  and  C_25
REMARK                            x       y       z     vdW  Elec       q    Type
REMARK                         _______ _______ _______ _____ _____    ______ ____
ROOT
ATOM      1  N   UNL     1       1.038   9.326  18.682  0.00  0.00    +0.000 NA
ATOM      2  H   UNL     1       0.935   8.597  19.387  0.00  0.00    +0.000 HD
ENDROOT
BRANCH   1   3
ATOM      3  C   UNL     1       2.243   9.062  17.902  0.00  0.00    +0.000 C 
BRANCH   3   8
ATOM      4  C   UNL     1       3.818   5.115  18.796  0.00  0.00    +0.000 A 
ATOM      5  C   UNL     1       4.263   5.815  17.662  0.00  0.00    +0.000 A 
ATOM      6  C   UNL     1       5.233   5.302  16.636  0.00  0.00    +0.000 C 
ATOM      7  C   UNL     1       3.766   7.111  17.429  0.00  0.00    +0.000 A 
ATOM      8  C   UNL     1       2.784   7.693  18.240  0.00  0.00    +0.000 A 
ATOM      9  C   UNL     1       2.308   6.965  19.330  0.00  0.00    +0.000 A 
ATOM     10  C   UNL     1       2.814   5.685  19.616  0.00  0.00    +0.000 A 
ATOM     11  C   UNL     1       2.258   4.935  20.800  0.00  0.00    +0.000 C 
BRANCH   4  13
ATOM     12  C   UNL     1       3.683   2.751  18.436  0.00  0.00    +0.000 C 
ATOM     13  O   UNL     1       4.201   3.852  19.170  0.00  0.00    +0.000 OA
ENDBRANCH   4  13
ENDBRANCH   3   8
ENDBRANCH   1   3
BRANCH   1  14
ATOM     14  C   UNL     1       1.075  10.629  19.330  0.00  0.00    +0.000 C 
BRANCH  14  15
ATOM     15  C   UNL     1       0.403  10.548  20.675  0.00  0.00    +0.000 A 
ATOM     16  C   UNL     1       0.755   9.577  21.611  0.00  0.00    +0.000 A 
ATOM     17  C   UNL     1       0.120   9.586  22.841  0.00  0.00    +0.000 A 
ATOM     18  N   UNL     1      -0.829  10.484  23.205  0.00  0.00    +0.000 NA
ATOM     19  C   UNL     1      -1.155  11.441  22.308  0.00  0.00    +0.000 A 
ATOM     20  N   UNL     1      -2.102  12.421  22.616  0.00  0.00    +0.000 N 
ATOM     21  C   UNL     1      -3.003  12.099  23.739  0.00  0.00    +0.000 C 
ATOM     22  C   UNL     1      -4.097  13.185  23.791  0.00  0.00    +0.000 C 
ATOM     23  O   UNL     1      -3.535  14.504  23.947  0.00  0.00    +0.000 OA
ATOM     24  C   UNL     1      -2.618  14.794  22.877  0.00  0.00    +0.000 C 
ATOM     25  C   UNL     1      -1.491  13.753  22.806  0.00  0.00    +0.000 C 
ATOM     26  C   UNL     1      -0.569  11.482  21.040  0.00  0.00    +0.000 A 
ENDBRANCH  14  15
ENDBRANCH   1  14
TORSDOF 5
ENDMDL
MODEL 9
REMARK VINA RESULT:      -7.1      3.167      5.421
REMARK  Name = 
REMARK  8 active torsions:
REMARK  status: ('A' for Active; 'I' for Inactive)
REMARK    1  A    between atoms: C_1  and  O_2
REMARK    2  A    between atoms: O_2  and  C_3
REMARK    3  A    between atoms: C_4  and  C_5
REMARK    4  A    between atoms: C_7  and  C_8
REMARK    5  A    between atoms: C_8  and  N_9
REMARK    6  A    between atoms: N_9  and  C_10
REMARK    7  A    between atoms: C_10  and  C_11
REMARK    8  A    between atoms: C_24  and  C_25
REMARK                            x       y       z     vdW  Elec       q    Type
REMARK                         _______ _______ _______ _____ _____    ______ ____
ROOT
ATOM      1  N   UNL     1       0.686   4.607  20.479  0.00  0.00    +0.000 NA
ATOM      2  H   UNL     1      -0.077   5.215  20.184  0.00  0.00    +0.000 HD
ENDROOT
BRANCH   1   3
ATOM      3  C   UNL     1       1.820   5.433  20.881  0.00  0.00    +0.000 C 
BRANCH   3   8
ATOM      4  C   UNL     1       0.923   9.602  20.064  0.00  0.00    +0.000 A 
ATOM      5  C   UNL     1       0.474   9.001  21.252  0.00  0.00    +0.000 A 
ATOM      6  C   UNL     1      -0.376   9.656  22.303  0.00  0.00    +0.000 C 
ATOM      7  C   UNL     1       0.824   7.661  21.505  0.00  0.00    +0.000 A 
ATOM      8  C   UNL     1       1.530   6.885  20.579  0.00  0.00    +0.000 A 
ATOM      9  C   UNL     1       1.920   7.476  19.378  0.00  0.00    +0.000 A 
ATOM     10  C   UNL     1       1.625   8.824  19.111  0.00  0.00    +0.000 A 
ATOM     11  C   UNL     1       2.059   9.414  17.794  0.00  0.00    +0.000 C 
BRANCH   4  13
ATOM     12  C   UNL     1      -0.617  11.199  19.159  0.00  0.00    +0.000 C 
ATOM     13  O   UNL     1       0.675  10.892  19.665  0.00  0.00    +0.000 OA
ENDBRANCH   4  13
ENDBRANCH   3   8
ENDBRANCH   1   3
BRANCH   1  14
ATOM     14  C   UNL     1       1.025   3.692  19.398  0.00  0.00    +0.000 C 
BRANCH  14  15
ATOM     15  C   UNL     1       2.516   3.486  19.355  0.00  0.00    +0.000 A 
ATOM     16  C   UNL     1       3.147   2.539  20.159  0.00  0.00    +0.000 A 
ATOM     17  C   UNL     1       4.517   2.380  20.039  0.00  0.00    +0.000 A 
ATOM     18  N   UNL     1       5.297   3.085  19.184  0.00  0.00    +0.000 NA
ATOM     19  C   UNL     1       4.684   3.987  18.385  0.00  0.00    +0.000 A 
ATOM     20  N   UNL     1       5.411   4.735  17.455  0.00  0.00    +0.000 N 
ATOM     21  C   UNL     1       6.865   4.805  17.698  0.00  0.00    +0.000 C 
ATOM     22  C   UNL     1       7.459   5.830  16.711  0.00  0.00    +0.000 C 
ATOM     23  O   UNL     1       7.185   5.473  15.340  0.00  0.00    +0.000 OA
ATOM     24  C   UNL     1       5.768   5.355  15.120  0.00  0.00    +0.000 C 
ATOM     25  C   UNL     1       5.137   4.320  16.063  0.00  0.00    +0.000 C 
ATOM     26  C   UNL     1       3.307   4.216  18.465  0.00  0.00    +0.000 A 
ENDBRANCH  14  15
ENDBRANCH   1  14
TORSDOF 5
ENDMDL
