MODEL 1
REMARK VINA RESULT:      -6.8      0.000      0.000
REMARK  Name = 
REMARK  7 active torsions:
REMARK  status: ('A' for Active; 'I' for Inactive)
REMARK    1  A    between atoms: C_1  and  C_2
REMARK    2  A    between atoms: C_2  and  C_3
REMARK    3  A    between atoms: C_2  and  C_4
REMARK    4  A    between atoms: C_2  and  O_5
REMARK    5  A    between atoms: O_5  and  C_6
REMARK    6  A    between atoms: C_16  and  C_17
REMARK    7  A    between atoms: C_16  and  C_18
REMARK                            x       y       z     vdW  Elec       q    Type
REMARK                         _______ _______ _______ _____ _____    ______ ____
ROOT
ATOM      1  C   UNL     1       3.526   3.072  18.698  0.00  0.00    +0.000 C 
ATOM      2  O   UNL     1       3.028   1.980  18.436  0.00  0.00    +0.000 OA
ATOM      3  N   UNL     1       4.208   3.775  17.733  0.00  0.00    +0.000 N 
ATOM      4  C   UNL     1       4.246   3.149  16.394  0.00  0.00    +0.000 C 
ATOM      5  C   UNL     1       5.304   3.934  15.771  0.00  0.00    +0.000 A 
ATOM      6  S   UNL     1       6.180   3.778  14.364  0.00  0.00    +0.000 S 
ATOM      7  C   UNL     1       7.094   5.176  14.847  0.00  0.00    +0.000 A 
ATOM      8  N   UNL     1       8.102   5.617  14.079  0.00  0.00    +0.000 N 
ATOM      9  N   UNL     1       6.747   5.723  16.002  0.00  0.00    +0.000 NA
ATOM     10  C   UNL     1       5.706   5.000  16.519  0.00  0.00    +0.000 A 
ATOM     11  C   UNL     1       4.932   5.102  17.810  0.00  0.00    +0.000 C 
ATOM     12  C   UNL     1       3.939   6.268  17.750  0.00  0.00    +0.000 C 
ATOM     13  C   UNL     1       5.860   5.229  19.018  0.00  0.00    +0.000 C 
ATOM     14  H   UNL     1       8.513   4.963  13.422  0.00  0.00    +0.000 HD
ATOM     15  H   UNL     1       8.773   6.220  14.539  0.00  0.00    +0.000 HD
ENDROOT
BRANCH   1  16
ATOM     16  O   UNL     1       3.488   3.641  19.931  0.00  0.00    +0.000 OA
BRANCH  16  18
ATOM     17  C   UNL     1       1.915   3.119  21.763  0.00  0.00    +0.000 C 
ATOM     18  C   UNL     1       2.175   3.956  20.497  0.00  0.00    +0.000 C 
ATOM     19  C   UNL     1       1.048   3.801  19.461  0.00  0.00    +0.000 C 
ATOM     20  C   UNL     1       2.208   5.432  20.920  0.00  0.00    +0.000 C 
ENDBRANCH  16  18
ENDBRANCH   1  16
TORSDOF 2
ENDMDL
MODEL 2
REMARK VINA RESULT:      -6.7      0.089      1.016
REMARK  Name = 
REMARK  7 active torsions:
REMARK  status: ('A' for Active; 'I' for Inactive)
REMARK    1  A    between atoms: C_1  and  C_2
REMARK    2  A    between atoms: C_2  and  C_3
REMARK    3  A    between atoms: C_2  and  C_4
REMARK    4  A    between atoms: C_2  and  O_5
REMARK    5  A    between atoms: O_5  and  C_6
REMARK    6  A    between atoms: C_16  and  C_17
REMARK    7  A    between atoms: C_16  and  C_18
REMARK                            x       y       z     vdW  Elec       q    Type
REMARK                         _______ _______ _______ _____ _____    ______ ____
ROOT
ATOM      1  C   UNL     1       3.492   3.031  18.731  0.00  0.00    +0.000 C 
ATOM      2  O   UNL     1       3.015   1.932  18.459  0.00  0.00    +0.000 OA
ATOM      3  N   UNL     1       4.169   3.752  17.777  0.00  0.00    +0.000 N 
ATOM      4  C   UNL     1       4.227   3.136  16.434  0.00  0.00    +0.000 C 
ATOM      5  C   UNL     1       5.276   3.943  15.823  0.00  0.00    +0.000 A 
ATOM      6  S   UNL     1       6.163   3.812  14.420  0.00  0.00    +0.000 S 
ATOM      7  C   UNL     1       7.049   5.223  14.920  0.00  0.00    +0.000 A 
ATOM      8  N   UNL     1       8.055   5.686  14.161  0.00  0.00    +0.000 N 
ATOM      9  N   UNL     1       6.686   5.756  16.076  0.00  0.00    +0.000 NA
ATOM     10  C   UNL     1       5.654   5.011  16.581  0.00  0.00    +0.000 A 
ATOM     11  C   UNL     1       4.870   5.091  17.867  0.00  0.00    +0.000 C 
ATOM     12  C   UNL     1       3.857   6.240  17.808  0.00  0.00    +0.000 C 
ATOM     13  C   UNL     1       5.788   5.225  19.082  0.00  0.00    +0.000 C 
ATOM     14  H   UNL     1       8.481   5.043  13.503  0.00  0.00    +0.000 HD
ATOM     15  H   UNL     1       8.713   6.297  14.630  0.00  0.00    +0.000 HD
ENDROOT
BRANCH   1  16
ATOM     16  O   UNL     1       3.437   3.591  19.969  0.00  0.00    +0.000 OA
BRANCH  16  18
ATOM     17  C   UNL     1       1.021   3.649  19.460  0.00  0.00    +0.000 C 
ATOM     18  C   UNL     1       2.121   3.970  20.487  0.00  0.00    +0.000 C 
ATOM     19  C   UNL     1       2.080   5.443  20.934  0.00  0.00    +0.000 C 
ATOM     20  C   UNL     1       1.859   3.107  21.730  0.00  0.00    +0.000 C 
ENDBRANCH  16  18
ENDBRANCH   1  16
TORSDOF 2
ENDMDL
MODEL 3
REMARK VINA RESULT:      -6.7      0.079      1.008
REMARK  Name = 
REMARK  7 active torsions:
REMARK  status: ('A' for Active; 'I' for Inactive)
REMARK    1  A    between atoms: C_1  and  C_2
REMARK    2  A    between atoms: C_2  and  C_3
REMARK    3  A    between atoms: C_2  and  C_4
REMARK    4  A    between atoms: C_2  and  O_5
REMARK    5  A    between atoms: O_5  and  C_6
REMARK    6  A    between atoms: C_16  and  C_17
REMARK    7  A    between atoms: C_16  and  C_18
REMARK                            x       y       z     vdW  Elec       q    Type
REMARK                         _______ _______ _______ _____ _____    ______ ____
ROOT
ATOM      1  C   UNL     1       3.495   3.064  18.695  0.00  0.00    +0.000 C 
ATOM      2  O   UNL     1       2.985   1.983  18.409  0.00  0.00    +0.000 OA
ATOM      3  N   UNL     1       4.180   3.783  17.745  0.00  0.00    +0.000 N 
ATOM      4  C   UNL     1       4.208   3.189  16.392  0.00  0.00    +0.000 C 
ATOM      5  C   UNL     1       5.271   3.978  15.783  0.00  0.00    +0.000 A 
ATOM      6  S   UNL     1       6.140   3.847  14.369  0.00  0.00    +0.000 S 
ATOM      7  C   UNL     1       7.069   5.225  14.883  0.00  0.00    +0.000 A 
ATOM      8  N   UNL     1       8.079   5.675  14.121  0.00  0.00    +0.000 N 
ATOM      9  N   UNL     1       6.732   5.748  16.051  0.00  0.00    +0.000 NA
ATOM     10  C   UNL     1       5.686   5.022  16.555  0.00  0.00    +0.000 A 
ATOM     11  C   UNL     1       4.917   5.101  17.851  0.00  0.00    +0.000 C 
ATOM     12  C   UNL     1       3.935   6.277  17.822  0.00  0.00    +0.000 C 
ATOM     13  C   UNL     1       5.851   5.190  19.057  0.00  0.00    +0.000 C 
ATOM     14  H   UNL     1       8.481   5.032  13.447  0.00  0.00    +0.000 HD
ATOM     15  H   UNL     1       8.757   6.260  14.593  0.00  0.00    +0.000 HD
ENDROOT
BRANCH   1  16
ATOM     16  O   UNL     1       3.467   3.604  19.942  0.00  0.00    +0.000 OA
BRANCH  16  18
ATOM     17  C   UNL     1       2.146   5.443  20.930  0.00  0.00    +0.000 C 
ATOM     18  C   UNL     1       2.162   3.964  20.501  0.00  0.00    +0.000 C 
ATOM     19  C   UNL     1       1.746   3.026  21.648  0.00  0.00    +0.000 C 
ATOM     20  C   UNL     1       1.129   3.799  19.376  0.00  0.00    +0.000 C 
ENDBRANCH  16  18
ENDBRANCH   1  16
TORSDOF 2
ENDMDL
MODEL 4
REMARK VINA RESULT:      -6.0      2.032      2.785
REMARK  Name = 
REMARK  7 active torsions:
REMARK  status: ('A' for Active; 'I' for Inactive)
REMARK    1  A    between atoms: C_1  and  C_2
REMARK    2  A    between atoms: C_2  and  C_3
REMARK    3  A    between atoms: C_2  and  C_4
REMARK    4  A    between atoms: C_2  and  O_5
REMARK    5  A    between atoms: O_5  and  C_6
REMARK    6  A    between atoms: C_16  and  C_17
REMARK    7  A    between atoms: C_16  and  C_18
REMARK                            x       y       z     vdW  Elec       q    Type
REMARK                         _______ _______ _______ _____ _____    ______ ____
ROOT
ATOM      1  C   UNL     1       4.158   3.173  19.595  0.00  0.00    +0.000 C 
ATOM      2  O   UNL     1       4.657   2.542  20.523  0.00  0.00    +0.000 OA
ATOM      3  N   UNL     1       4.911   4.075  18.882  0.00  0.00    +0.000 N 
ATOM      4  C   UNL     1       6.331   4.179  19.283  0.00  0.00    +0.000 C 
ATOM      5  C   UNL     1       6.700   5.420  18.614  0.00  0.00    +0.000 A 
ATOM      6  S   UNL     1       8.023   6.427  18.699  0.00  0.00    +0.000 S 
ATOM      7  C   UNL     1       7.212   7.488  17.584  0.00  0.00    +0.000 A 
ATOM      8  N   UNL     1       7.790   8.642  17.217  0.00  0.00    +0.000 N 
ATOM      9  N   UNL     1       6.016   7.093  17.175  0.00  0.00    +0.000 NA
ATOM     10  C   UNL     1       5.739   5.892  17.772  0.00  0.00    +0.000 A 
ATOM     11  C   UNL     1       4.530   4.990  17.738  0.00  0.00    +0.000 C 
ATOM     12  C   UNL     1       4.476   4.214  16.417  0.00  0.00    +0.000 C 
ATOM     13  C   UNL     1       3.236   5.768  17.975  0.00  0.00    +0.000 C 
ATOM     14  H   UNL     1       8.511   9.020  17.822  0.00  0.00    +0.000 HD
ATOM     15  H   UNL     1       7.167   9.339  16.826  0.00  0.00    +0.000 HD
ENDROOT
BRANCH   1  16
ATOM     16  O   UNL     1       2.852   3.075  19.233  0.00  0.00    +0.000 OA
BRANCH  16  18
ATOM     17  C   UNL     1       2.030   4.788  20.812  0.00  0.00    +0.000 C 
ATOM     18  C   UNL     1       1.839   3.368  20.249  0.00  0.00    +0.000 C 
ATOM     19  C   UNL     1       1.814   2.305  21.362  0.00  0.00    +0.000 C 
ATOM     20  C   UNL     1       0.472   3.330  19.549  0.00  0.00    +0.000 C 
ENDBRANCH  16  18
ENDBRANCH   1  16
TORSDOF 2
ENDMDL
MODEL 5
REMARK VINA RESULT:      -5.8      2.024      2.807
REMARK  Name = 
REMARK  7 active torsions:
REMARK  status: ('A' for Active; 'I' for Inactive)
REMARK    1  A    between atoms: C_1  and  C_2
REMARK    2  A    between atoms: C_2  and  C_3
REMARK    3  A    between atoms: C_2  and  C_4
REMARK    4  A    between atoms: C_2  and  O_5
REMARK    5  A    between atoms: O_5  and  C_6
REMARK    6  A    between atoms: C_16  and  C_17
REMARK    7  A    between atoms: C_16  and  C_18
REMARK                            x       y       z     vdW  Elec       q    Type
REMARK                         _______ _______ _______ _____ _____    ______ ____
ROOT
ATOM      1  C   UNL     1       4.163   3.156  19.559  0.00  0.00    +0.000 C 
ATOM      2  O   UNL     1       4.650   2.532  20.499  0.00  0.00    +0.000 OA
ATOM      3  N   UNL     1       4.922   4.062  18.857  0.00  0.00    +0.000 N 
ATOM      4  C   UNL     1       6.333   4.179  19.284  0.00  0.00    +0.000 C 
ATOM      5  C   UNL     1       6.704   5.421  18.616  0.00  0.00    +0.000 A 
ATOM      6  S   UNL     1       8.016   6.440  18.723  0.00  0.00    +0.000 S 
ATOM      7  C   UNL     1       7.217   7.489  17.588  0.00  0.00    +0.000 A 
ATOM      8  N   UNL     1       7.792   8.647  17.227  0.00  0.00    +0.000 N 
ATOM      9  N   UNL     1       6.033   7.082  17.158  0.00  0.00    +0.000 NA
ATOM     10  C   UNL     1       5.755   5.881  17.754  0.00  0.00    +0.000 A 
ATOM     11  C   UNL     1       4.555   4.968  17.702  0.00  0.00    +0.000 C 
ATOM     12  C   UNL     1       4.532   4.187  16.383  0.00  0.00    +0.000 C 
ATOM     13  C   UNL     1       3.250   5.736  17.911  0.00  0.00    +0.000 C 
ATOM     14  H   UNL     1       8.498   9.033  17.843  0.00  0.00    +0.000 HD
ATOM     15  H   UNL     1       7.170   9.337  16.821  0.00  0.00    +0.000 HD
ENDROOT
BRANCH   1  16
ATOM     16  O   UNL     1       2.865   3.045  19.172  0.00  0.00    +0.000 OA
BRANCH  16  18
ATOM     17  C   UNL     1       0.434   3.322  19.510  0.00  0.00    +0.000 C 
ATOM     18  C   UNL     1       1.831   3.377  20.154  0.00  0.00    +0.000 C 
ATOM     19  C   UNL     1       2.097   4.730  20.838  0.00  0.00    +0.000 C 
ATOM     20  C   UNL     1       1.879   2.296  21.244  0.00  0.00    +0.000 C 
ENDBRANCH  16  18
ENDBRANCH   1  16
TORSDOF 2
ENDMDL
MODEL 6
REMARK VINA RESULT:      -5.6      3.824      6.273
REMARK  Name = 
REMARK  7 active torsions:
REMARK  status: ('A' for Active; 'I' for Inactive)
REMARK    1  A    between atoms: C_1  and  C_2
REMARK    2  A    between atoms: C_2  and  C_3
REMARK    3  A    between atoms: C_2  and  C_4
REMARK    4  A    between atoms: C_2  and  O_5
REMARK    5  A    between atoms: O_5  and  C_6
REMARK    6  A    between atoms: C_16  and  C_17
REMARK    7  A    between atoms: C_16  and  C_18
REMARK                            x       y       z     vdW  Elec       q    Type
REMARK                         _______ _______ _______ _____ _____    ______ ____
ROOT
ATOM      1  C   UNL     1       4.687   6.482  16.634  0.00  0.00    +0.000 C 
ATOM      2  O   UNL     1       4.926   7.294  15.744  0.00  0.00    +0.000 OA
ATOM      3  N   UNL     1       3.684   6.721  17.543  0.00  0.00    +0.000 N 
ATOM      4  C   UNL     1       2.918   7.969  17.335  0.00  0.00    +0.000 C 
ATOM      5  C   UNL     1       2.239   8.074  18.620  0.00  0.00    +0.000 A 
ATOM      6  S   UNL     1       1.363   9.278  19.366  0.00  0.00    +0.000 S 
ATOM      7  C   UNL     1       1.242   8.244  20.759  0.00  0.00    +0.000 A 
ATOM      8  N   UNL     1       0.611   8.676  21.863  0.00  0.00    +0.000 N 
ATOM      9  N   UNL     1       1.827   7.061  20.655  0.00  0.00    +0.000 NA
ATOM     10  C   UNL     1       2.391   6.975  19.410  0.00  0.00    +0.000 A 
ATOM     11  C   UNL     1       3.222   5.911  18.735  0.00  0.00    +0.000 C 
ATOM     12  C   UNL     1       2.338   4.742  18.288  0.00  0.00    +0.000 C 
ATOM     13  C   UNL     1       4.362   5.430  19.633  0.00  0.00    +0.000 C 
ATOM     14  H   UNL     1       0.507   9.677  21.981  0.00  0.00    +0.000 HD
ATOM     15  H   UNL     1       0.830   8.176  22.716  0.00  0.00    +0.000 HD
ENDROOT
BRANCH   1  16
ATOM     16  O   UNL     1       5.397   5.338  16.822  0.00  0.00    +0.000 OA
BRANCH  16  18
ATOM     17  C   UNL     1       7.352   6.814  17.143  0.00  0.00    +0.000 C 
ATOM     18  C   UNL     1       6.856   5.418  16.724  0.00  0.00    +0.000 C 
ATOM     19  C   UNL     1       7.363   5.021  15.326  0.00  0.00    +0.000 C 
ATOM     20  C   UNL     1       7.431   4.404  17.725  0.00  0.00    +0.000 C 
ENDBRANCH  16  18
ENDBRANCH   1  16
TORSDOF 2
ENDMDL
MODEL 7
REMARK VINA RESULT:      -5.5      3.811      6.243
REMARK  Name = 
REMARK  7 active torsions:
REMARK  status: ('A' for Active; 'I' for Inactive)
REMARK    1  A    between atoms: C_1  and  C_2
REMARK    2  A    between atoms: C_2  and  C_3
REMARK    3  A    between atoms: C_2  and  C_4
REMARK    4  A    between atoms: C_2  and  O_5
REMARK    5  A    between atoms: O_5  and  C_6
REMARK    6  A    between atoms: C_16  and  C_17
REMARK    7  A    between atoms: C_16  and  C_18
REMARK                            x       y       z     vdW  Elec       q    Type
REMARK                         _______ _______ _______ _____ _____    ______ ____
ROOT
ATOM      1  C   UNL     1       4.702   6.450  16.591  0.00  0.00    +0.000 C 
ATOM      2  O   UNL     1       4.929   7.254  15.691  0.00  0.00    +0.000 OA
ATOM      3  N   UNL     1       3.705   6.692  17.506  0.00  0.00    +0.000 N 
ATOM      4  C   UNL     1       2.929   7.932  17.291  0.00  0.00    +0.000 C 
ATOM      5  C   UNL     1       2.259   8.047  18.580  0.00  0.00    +0.000 A 
ATOM      6  S   UNL     1       1.382   9.252  19.321  0.00  0.00    +0.000 S 
ATOM      7  C   UNL     1       1.278   8.231  20.725  0.00  0.00    +0.000 A 
ATOM      8  N   UNL     1       0.653   8.671  21.829  0.00  0.00    +0.000 N 
ATOM      9  N   UNL     1       1.870   7.051  20.628  0.00  0.00    +0.000 NA
ATOM     10  C   UNL     1       2.425   6.956  19.380  0.00  0.00    +0.000 A 
ATOM     11  C   UNL     1       3.257   5.891  18.709  0.00  0.00    +0.000 C 
ATOM     12  C   UNL     1       2.377   4.712  18.281  0.00  0.00    +0.000 C 
ATOM     13  C   UNL     1       4.406   5.426  19.603  0.00  0.00    +0.000 C 
ATOM     14  H   UNL     1       0.543   9.673  21.938  0.00  0.00    +0.000 HD
ATOM     15  H   UNL     1       0.881   8.181  22.686  0.00  0.00    +0.000 HD
ENDROOT
BRANCH   1  16
ATOM     16  O   UNL     1       5.420   5.312  16.785  0.00  0.00    +0.000 OA
BRANCH  16  18
ATOM     17  C   UNL     1       7.494   4.397  17.767  0.00  0.00    +0.000 C 
ATOM     18  C   UNL     1       6.881   5.422  16.795  0.00  0.00    +0.000 C 
ATOM     19  C   UNL     1       7.349   6.857  17.099  0.00  0.00    +0.000 C 
ATOM     20  C   UNL     1       7.370   5.069  15.383  0.00  0.00    +0.000 C 
ENDBRANCH  16  18
ENDBRANCH   1  16
TORSDOF 2
ENDMDL
MODEL 8
REMARK VINA RESULT:      -5.5      3.799      6.245
REMARK  Name = 
REMARK  7 active torsions:
REMARK  status: ('A' for Active; 'I' for Inactive)
REMARK    1  A    between atoms: C_1  and  C_2
REMARK    2  A    between atoms: C_2  and  C_3
REMARK    3  A    between atoms: C_2  and  C_4
REMARK    4  A    between atoms: C_2  and  O_5
REMARK    5  A    between atoms: O_5  and  C_6
REMARK    6  A    between atoms: C_16  and  C_17
REMARK    7  A    between atoms: C_16  and  C_18
REMARK                            x       y       z     vdW  Elec       q    Type
REMARK                         _______ _______ _______ _____ _____    ______ ____
ROOT
ATOM      1  C   UNL     1       4.707   6.413  16.597  0.00  0.00    +0.000 C 
ATOM      2  O   UNL     1       4.956   7.215  15.701  0.00  0.00    +0.000 OA
ATOM      3  N   UNL     1       3.708   6.670  17.505  0.00  0.00    +0.000 N 
ATOM      4  C   UNL     1       2.957   7.926  17.289  0.00  0.00    +0.000 C 
ATOM      5  C   UNL     1       2.281   8.049  18.574  0.00  0.00    +0.000 A 
ATOM      6  S   UNL     1       1.421   9.268  19.312  0.00  0.00    +0.000 S 
ATOM      7  C   UNL     1       1.288   8.245  20.713  0.00  0.00    +0.000 A 
ATOM      8  N   UNL     1       0.664   8.692  21.814  0.00  0.00    +0.000 N 
ATOM      9  N   UNL     1       1.859   7.054  20.615  0.00  0.00    +0.000 NA
ATOM     10  C   UNL     1       2.420   6.952  19.371  0.00  0.00    +0.000 A 
ATOM     11  C   UNL     1       3.237   5.874  18.703  0.00  0.00    +0.000 C 
ATOM     12  C   UNL     1       2.338   4.713  18.265  0.00  0.00    +0.000 C 
ATOM     13  C   UNL     1       4.371   5.385  19.603  0.00  0.00    +0.000 C 
ATOM     14  H   UNL     1       0.572   9.696  21.925  0.00  0.00    +0.000 HD
ATOM     15  H   UNL     1       0.877   8.196  22.671  0.00  0.00    +0.000 HD
ENDROOT
BRANCH   1  16
ATOM     16  O   UNL     1       5.403   5.261  16.791  0.00  0.00    +0.000 OA
BRANCH  16  18
ATOM     17  C   UNL     1       7.343   5.042  15.278  0.00  0.00    +0.000 C 
ATOM     18  C   UNL     1       6.864   5.326  16.713  0.00  0.00    +0.000 C 
ATOM     19  C   UNL     1       7.538   4.399  17.741  0.00  0.00    +0.000 C 
ATOM     20  C   UNL     1       7.271   6.766  17.058  0.00  0.00    +0.000 C 
ENDBRANCH  16  18
ENDBRANCH   1  16
TORSDOF 2
ENDMDL
MODEL 9
REMARK VINA RESULT:      -5.4      3.042      6.140
REMARK  Name = 
REMARK  7 active torsions:
REMARK  status: ('A' for Active; 'I' for Inactive)
REMARK    1  A    between atoms: C_1  and  C_2
REMARK    2  A    between atoms: C_2  and  C_3
REMARK    3  A    between atoms: C_2  and  C_4
REMARK    4  A    between atoms: C_2  and  O_5
REMARK    5  A    between atoms: O_5  and  C_6
REMARK    6  A    between atoms: C_16  and  C_17
REMARK    7  A    between atoms: C_16  and  C_18
REMARK                            x       y       z     vdW  Elec       q    Type
REMARK                         _______ _______ _______ _____ _____    ______ ____
ROOT
ATOM      1  C   UNL     1       5.498   4.794  17.592  0.00  0.00    +0.000 C 
ATOM      2  O   UNL     1       6.201   5.726  17.976  0.00  0.00    +0.000 OA
ATOM      3  N   UNL     1       4.381   4.425  18.303  0.00  0.00    +0.000 N 
ATOM      4  C   UNL     1       4.084   5.246  19.496  0.00  0.00    +0.000 C 
ATOM      5  C   UNL     1       3.118   4.387  20.169  0.00  0.00    +0.000 A 
ATOM      6  S   UNL     1       2.431   4.391  21.686  0.00  0.00    +0.000 S 
ATOM      7  C   UNL     1       1.630   2.907  21.261  0.00  0.00    +0.000 A 
ATOM      8  N   UNL     1       0.851   2.284  22.160  0.00  0.00    +0.000 N 
ATOM      9  N   UNL     1       1.870   2.448  20.042  0.00  0.00    +0.000 NA
ATOM     10  C   UNL     1       2.724   3.319  19.421  0.00  0.00    +0.000 A 
ATOM     11  C   UNL     1       3.388   3.308  18.066  0.00  0.00    +0.000 C 
ATOM     12  C   UNL     1       2.385   3.695  16.974  0.00  0.00    +0.000 C 
ATOM     13  C   UNL     1       4.038   1.958  17.766  0.00  0.00    +0.000 C 
ATOM     14  H   UNL     1       0.997   2.503  23.139  0.00  0.00    +0.000 HD
ATOM     15  H   UNL     1       0.665   1.306  21.975  0.00  0.00    +0.000 HD
ENDROOT
BRANCH   1  16
ATOM     16  O   UNL     1       5.778   4.041  16.496  0.00  0.00    +0.000 OA
BRANCH  16  18
ATOM     17  C   UNL     1       5.203   6.105  15.266  0.00  0.00    +0.000 C 
ATOM     18  C   UNL     1       5.890   4.729  15.207  0.00  0.00    +0.000 C 
ATOM     19  C   UNL     1       5.360   3.869  14.046  0.00  0.00    +0.000 C 
ATOM     20  C   UNL     1       7.385   4.970  14.953  0.00  0.00    +0.000 C 
ENDBRANCH  16  18
ENDBRANCH   1  16
TORSDOF 2
ENDMDL
