MODEL 1
REMARK VINA RESULT:      -8.4      0.000      0.000
REMARK  Name = 
REMARK  8 active torsions:
REMARK  status: ('A' for Active; 'I' for Inactive)
REMARK    1  A    between atoms: C_1  and  C_2
REMARK    2  A    between atoms: C_6  and  C_8
REMARK    3  A    between atoms: C_8  and  O_9
REMARK    4  A    between atoms: O_9  and  C_10
REMARK    5  A    between atoms: C_13  and  N_14
REMARK    6  A    between atoms: N_14  and  C_15
REMARK    7  A    between atoms: N_14  and  S_16
REMARK    8  A    between atoms: S_16  and  C_19
REMARK                            x       y       z     vdW  Elec       q    Type
REMARK                         _______ _______ _______ _____ _____    ______ ____
ROOT
ATOM      1  C   UNL     1       6.773   5.745  17.238  0.00  0.00    +0.000 A 
ATOM      2  C   UNL     1       6.088   4.957  16.309  0.00  0.00    +0.000 A 
ATOM      3  C   UNL     1       5.142   4.026  16.740  0.00  0.00    +0.000 A 
ATOM      4  C   UNL     1       4.903   3.858  18.103  0.00  0.00    +0.000 A 
ATOM      5  C   UNL     1       5.615   4.615  19.034  0.00  0.00    +0.000 A 
ATOM      6  C   UNL     1       6.551   5.556  18.602  0.00  0.00    +0.000 A 
ENDROOT
BRANCH   4   7
ATOM      7  N   UNL     1       3.925   2.934  18.588  0.00  0.00    +0.000 N 
ATOM      8  C   UNL     1       4.282   2.132  19.769  0.00  0.00    +0.000 C 
BRANCH   7   9
ATOM      9  S   UNL     1       2.280   3.329  18.369  0.00  0.00    +0.000 S 
ATOM     10  O   UNL     1       1.966   3.309  16.957  0.00  0.00    +0.000 OA
ATOM     11  O   UNL     1       1.515   2.530  19.307  0.00  0.00    +0.000 OA
BRANCH   9  12
ATOM     12  C   UNL     1       2.153   5.025  18.921  0.00  0.00    +0.000 A 
ATOM     13  C   UNL     1       1.897   5.305  20.266  0.00  0.00    +0.000 A 
ATOM     14  C   UNL     1       1.831   6.634  20.693  0.00  0.00    +0.000 A 
ATOM     15  C   UNL     1       2.037   7.673  19.784  0.00  0.00    +0.000 A 
ATOM     16  C   UNL     1       2.334   7.390  18.451  0.00  0.00    +0.000 A 
ATOM     17  C   UNL     1       2.405   6.067  18.018  0.00  0.00    +0.000 A 
ENDBRANCH   9  12
ENDBRANCH   7   9
ENDBRANCH   4   7
BRANCH   1  18
ATOM     18  O   UNL     1       7.680   6.716  16.915  0.00  0.00    +0.000 OA
BRANCH  18  19
ATOM     19  C   UNL     1       7.233   8.051  17.162  0.00  0.00    +0.000 C 
BRANCH  19  25
ATOM     20  C   UNL     1      10.834  14.236  19.017  0.00  0.00    +0.000 C 
ATOM     21  C   UNL     1      10.216  12.917  18.814  0.00  0.00    +0.000 A 
ATOM     22  C   UNL     1       9.246  12.416  17.981  0.00  0.00    +0.000 A 
ATOM     23  C   UNL     1       9.154  11.046  18.329  0.00  0.00    +0.000 A 
ATOM     24  N   UNL     1       8.300  10.151  17.721  0.00  0.00    +0.000 N 
ATOM     25  C   UNL     1       8.209   8.816  18.049  0.00  0.00    +0.000 C 
ATOM     26  O   UNL     1       8.820   8.223  18.934  0.00  0.00    +0.000 OA
ATOM     27  N   UNL     1      10.011  10.754  19.308  0.00  0.00    +0.000 NA
ATOM     28  O   UNL     1      10.674  11.920  19.611  0.00  0.00    +0.000 OA
ATOM     29  H   UNL     1       7.710  10.488  16.971  0.00  0.00    +0.000 HD
ENDBRANCH  19  25
ENDBRANCH  18  19
ENDBRANCH   1  18
TORSDOF 6
ENDMDL
MODEL 2
REMARK VINA RESULT:      -8.1      4.935      7.874
REMARK  Name = 
REMARK  8 active torsions:
REMARK  status: ('A' for Active; 'I' for Inactive)
REMARK    1  A    between atoms: C_1  and  C_2
REMARK    2  A    between atoms: C_6  and  C_8
REMARK    3  A    between atoms: C_8  and  O_9
REMARK    4  A    between atoms: O_9  and  C_10
REMARK    5  A    between atoms: C_13  and  N_14
REMARK    6  A    between atoms: N_14  and  C_15
REMARK    7  A    between atoms: N_14  and  S_16
REMARK    8  A    between atoms: S_16  and  C_19
REMARK                            x       y       z     vdW  Elec       q    Type
REMARK                         _______ _______ _______ _____ _____    ______ ____
ROOT
ATOM      1  C   UNL     1       2.136   7.471  19.167  0.00  0.00    +0.000 A 
ATOM      2  C   UNL     1       2.105   6.798  20.391  0.00  0.00    +0.000 A 
ATOM      3  C   UNL     1       2.121   5.402  20.426  0.00  0.00    +0.000 A 
ATOM      4  C   UNL     1       2.136   4.678  19.234  0.00  0.00    +0.000 A 
ATOM      5  C   UNL     1       2.126   5.349  18.010  0.00  0.00    +0.000 A 
ATOM      6  C   UNL     1       2.125   6.744  17.977  0.00  0.00    +0.000 A 
ENDROOT
BRANCH   4   7
ATOM      7  N   UNL     1       2.178   3.249  19.223  0.00  0.00    +0.000 N 
ATOM      8  C   UNL     1       1.044   2.545  18.604  0.00  0.00    +0.000 C 
BRANCH   7   9
ATOM      9  S   UNL     1       3.709   2.499  19.148  0.00  0.00    +0.000 S 
ATOM     10  O   UNL     1       4.225   2.327  20.488  0.00  0.00    +0.000 OA
ATOM     11  O   UNL     1       3.591   1.365  18.251  0.00  0.00    +0.000 OA
BRANCH   9  12
ATOM     12  C   UNL     1       4.750   3.696  18.322  0.00  0.00    +0.000 A 
ATOM     13  C   UNL     1       5.542   4.569  19.074  0.00  0.00    +0.000 A 
ATOM     14  C   UNL     1       6.377   5.478  18.419  0.00  0.00    +0.000 A 
ATOM     15  C   UNL     1       6.431   5.502  17.024  0.00  0.00    +0.000 A 
ATOM     16  C   UNL     1       5.671   4.601  16.278  0.00  0.00    +0.000 A 
ATOM     17  C   UNL     1       4.838   3.688  16.924  0.00  0.00    +0.000 A 
ENDBRANCH   9  12
ENDBRANCH   7   9
ENDBRANCH   4   7
BRANCH   1  18
ATOM     18  O   UNL     1       2.174   8.831  19.028  0.00  0.00    +0.000 OA
BRANCH  18  19
ATOM     19  C   UNL     1       1.377   9.341  17.958  0.00  0.00    +0.000 C 
BRANCH  19  25
ATOM     20  C   UNL     1      -5.490  11.945  17.096  0.00  0.00    +0.000 C 
ATOM     21  C   UNL     1      -4.133  11.512  17.462  0.00  0.00    +0.000 A 
ATOM     22  C   UNL     1      -3.173  10.723  16.877  0.00  0.00    +0.000 A 
ATOM     23  C   UNL     1      -2.092  10.741  17.793  0.00  0.00    +0.000 A 
ATOM     24  N   UNL     1      -0.899  10.081  17.592  0.00  0.00    +0.000 N 
ATOM     25  C   UNL     1       0.159  10.099  18.474  0.00  0.00    +0.000 C 
ATOM     26  O   UNL     1       0.205  10.651  19.569  0.00  0.00    +0.000 OA
ATOM     27  N   UNL     1      -2.393  11.490  18.855  0.00  0.00    +0.000 NA
ATOM     28  O   UNL     1      -3.664  11.971  18.650  0.00  0.00    +0.000 OA
ATOM     29  H   UNL     1      -0.780   9.561  16.732  0.00  0.00    +0.000 HD
ENDBRANCH  19  25
ENDBRANCH  18  19
ENDBRANCH   1  18
TORSDOF 6
ENDMDL
MODEL 3
REMARK VINA RESULT:      -8.1      0.274      1.321
REMARK  Name = 
REMARK  8 active torsions:
REMARK  status: ('A' for Active; 'I' for Inactive)
REMARK    1  A    between atoms: C_1  and  C_2
REMARK    2  A    between atoms: C_6  and  C_8
REMARK    3  A    between atoms: C_8  and  O_9
REMARK    4  A    between atoms: O_9  and  C_10
REMARK    5  A    between atoms: C_13  and  N_14
REMARK    6  A    between atoms: N_14  and  C_15
REMARK    7  A    between atoms: N_14  and  S_16
REMARK    8  A    between atoms: S_16  and  C_19
REMARK                            x       y       z     vdW  Elec       q    Type
REMARK                         _______ _______ _______ _____ _____    ______ ____
ROOT
ATOM      1  C   UNL     1       6.673   5.659  17.469  0.00  0.00    +0.000 A 
ATOM      2  C   UNL     1       6.391   5.520  18.830  0.00  0.00    +0.000 A 
ATOM      3  C   UNL     1       5.438   4.594  19.260  0.00  0.00    +0.000 A 
ATOM      4  C   UNL     1       4.742   3.830  18.325  0.00  0.00    +0.000 A 
ATOM      5  C   UNL     1       4.994   3.996  16.962  0.00  0.00    +0.000 A 
ATOM      6  C   UNL     1       5.957   4.911  16.534  0.00  0.00    +0.000 A 
ENDROOT
BRANCH   4   7
ATOM      7  N   UNL     1       3.776   2.852  18.720  0.00  0.00    +0.000 N 
ATOM      8  C   UNL     1       4.181   1.882  19.749  0.00  0.00    +0.000 C 
BRANCH   7   9
ATOM      9  S   UNL     1       2.129   3.289  18.652  0.00  0.00    +0.000 S 
ATOM     10  O   UNL     1       1.658   3.172  17.289  0.00  0.00    +0.000 OA
ATOM     11  O   UNL     1       1.452   2.594  19.729  0.00  0.00    +0.000 OA
BRANCH   9  12
ATOM     12  C   UNL     1       2.111   5.026  19.076  0.00  0.00    +0.000 A 
ATOM     13  C   UNL     1       2.277   5.991  18.078  0.00  0.00    +0.000 A 
ATOM     14  C   UNL     1       2.229   7.346  18.415  0.00  0.00    +0.000 A 
ATOM     15  C   UNL     1       2.000   7.732  19.737  0.00  0.00    +0.000 A 
ATOM     16  C   UNL     1       1.793   6.768  20.723  0.00  0.00    +0.000 A 
ATOM     17  C   UNL     1       1.836   5.413  20.394  0.00  0.00    +0.000 A 
ENDBRANCH   9  12
ENDBRANCH   7   9
ENDBRANCH   4   7
BRANCH   1  18
ATOM     18  O   UNL     1       7.622   6.499  16.953  0.00  0.00    +0.000 OA
BRANCH  18  19
ATOM     19  C   UNL     1       7.288   7.886  17.024  0.00  0.00    +0.000 C 
BRANCH  19  25
ATOM     20  C   UNL     1      10.658  14.039  19.359  0.00  0.00    +0.000 C 
ATOM     21  C   UNL     1      10.073  12.722  19.065  0.00  0.00    +0.000 A 
ATOM     22  C   UNL     1       9.178  12.239  18.142  0.00  0.00    +0.000 A 
ATOM     23  C   UNL     1       9.075  10.858  18.437  0.00  0.00    +0.000 A 
ATOM     24  N   UNL     1       8.283   9.976  17.734  0.00  0.00    +0.000 N 
ATOM     25  C   UNL     1       8.181   8.630  18.010  0.00  0.00    +0.000 C 
ATOM     26  O   UNL     1       8.727   8.014  18.921  0.00  0.00    +0.000 OA
ATOM     27  N   UNL     1       9.855  10.541  19.471  0.00  0.00    +0.000 NA
ATOM     28  O   UNL     1      10.479  11.702  19.863  0.00  0.00    +0.000 OA
ATOM     29  H   UNL     1       7.750  10.332  16.951  0.00  0.00    +0.000 HD
ENDBRANCH  19  25
ENDBRANCH  18  19
ENDBRANCH   1  18
TORSDOF 6
ENDMDL
MODEL 4
REMARK VINA RESULT:      -8.0      4.805      7.598
REMARK  Name = 
REMARK  8 active torsions:
REMARK  status: ('A' for Active; 'I' for Inactive)
REMARK    1  A    between atoms: C_1  and  C_2
REMARK    2  A    between atoms: C_6  and  C_8
REMARK    3  A    between atoms: C_8  and  O_9
REMARK    4  A    between atoms: O_9  and  C_10
REMARK    5  A    between atoms: C_13  and  N_14
REMARK    6  A    between atoms: N_14  and  C_15
REMARK    7  A    between atoms: N_14  and  S_16
REMARK    8  A    between atoms: S_16  and  C_19
REMARK                            x       y       z     vdW  Elec       q    Type
REMARK                         _______ _______ _______ _____ _____    ______ ____
ROOT
ATOM      1  C   UNL     1       2.428   7.133  18.740  0.00  0.00    +0.000 A 
ATOM      2  C   UNL     1       1.913   7.541  19.973  0.00  0.00    +0.000 A 
ATOM      3  C   UNL     1       1.402   8.831  20.129  0.00  0.00    +0.000 A 
ATOM      4  C   UNL     1       1.435   9.725  19.060  0.00  0.00    +0.000 A 
ATOM      5  C   UNL     1       1.985   9.332  17.838  0.00  0.00    +0.000 A 
ATOM      6  C   UNL     1       2.483   8.038  17.679  0.00  0.00    +0.000 A 
ENDROOT
BRANCH   4   7
ATOM      7  N   UNL     1       0.900  11.047  19.167  0.00  0.00    +0.000 N 
ATOM      8  C   UNL     1       1.761  12.160  18.738  0.00  0.00    +0.000 C 
BRANCH   7   9
ATOM      9  S   UNL     1      -0.786  11.239  18.990  0.00  0.00    +0.000 S 
ATOM     10  O   UNL     1      -1.051  12.348  18.100  0.00  0.00    +0.000 OA
ATOM     11  O   UNL     1      -1.345   9.928  18.724  0.00  0.00    +0.000 OA
BRANCH   9  12
ATOM     12  C   UNL     1      -1.352  11.714  20.619  0.00  0.00    +0.000 A 
ATOM     13  C   UNL     1      -0.878  11.039  21.748  0.00  0.00    +0.000 A 
ATOM     14  C   UNL     1      -1.302  11.439  23.017  0.00  0.00    +0.000 A 
ATOM     15  C   UNL     1      -2.180  12.516  23.157  0.00  0.00    +0.000 A 
ATOM     16  C   UNL     1      -2.618  13.214  22.031  0.00  0.00    +0.000 A 
ATOM     17  C   UNL     1      -2.197  12.822  20.761  0.00  0.00    +0.000 A 
ENDBRANCH   9  12
ENDBRANCH   7   9
ENDBRANCH   4   7
BRANCH   1  18
ATOM     18  O   UNL     1       2.904   5.879  18.472  0.00  0.00    +0.000 OA
BRANCH  18  19
ATOM     19  C   UNL     1       4.184   5.597  19.041  0.00  0.00    +0.000 C 
BRANCH  19  25
ATOM     20  C   UNL     1       7.089   4.159  12.396  0.00  0.00    +0.000 C 
ATOM     21  C   UNL     1       6.686   4.560  13.752  0.00  0.00    +0.000 A 
ATOM     22  C   UNL     1       5.553   4.411  14.514  0.00  0.00    +0.000 A 
ATOM     23  C   UNL     1       5.865   5.047  15.740  0.00  0.00    +0.000 A 
ATOM     24  N   UNL     1       5.002   5.121  16.812  0.00  0.00    +0.000 N 
ATOM     25  C   UNL     1       5.300   5.733  18.011  0.00  0.00    +0.000 C 
ATOM     26  O   UNL     1       6.330   6.331  18.306  0.00  0.00    +0.000 OA
ATOM     27  N   UNL     1       7.101   5.545  15.707  0.00  0.00    +0.000 NA
ATOM     28  O   UNL     1       7.614   5.242  14.468  0.00  0.00    +0.000 OA
ATOM     29  H   UNL     1       4.093   4.684  16.726  0.00  0.00    +0.000 HD
ENDBRANCH  19  25
ENDBRANCH  18  19
ENDBRANCH   1  18
TORSDOF 6
ENDMDL
MODEL 5
REMARK VINA RESULT:      -8.0      5.134      8.353
REMARK  Name = 
REMARK  8 active torsions:
REMARK  status: ('A' for Active; 'I' for Inactive)
REMARK    1  A    between atoms: C_1  and  C_2
REMARK    2  A    between atoms: C_6  and  C_8
REMARK    3  A    between atoms: C_8  and  O_9
REMARK    4  A    between atoms: O_9  and  C_10
REMARK    5  A    between atoms: C_13  and  N_14
REMARK    6  A    between atoms: N_14  and  C_15
REMARK    7  A    between atoms: N_14  and  S_16
REMARK    8  A    between atoms: S_16  and  C_19
REMARK                            x       y       z     vdW  Elec       q    Type
REMARK                         _______ _______ _______ _____ _____    ______ ____
ROOT
ATOM      1  C   UNL     1       1.479   9.336  19.230  0.00  0.00    +0.000 A 
ATOM      2  C   UNL     1       2.006   9.260  17.939  0.00  0.00    +0.000 A 
ATOM      3  C   UNL     1       2.676   8.108  17.520  0.00  0.00    +0.000 A 
ATOM      4  C   UNL     1       2.847   7.044  18.405  0.00  0.00    +0.000 A 
ATOM      5  C   UNL     1       2.357   7.135  19.708  0.00  0.00    +0.000 A 
ATOM      6  C   UNL     1       1.675   8.281  20.121  0.00  0.00    +0.000 A 
ENDROOT
BRANCH   4   7
ATOM      7  N   UNL     1       3.504   5.837  18.011  0.00  0.00    +0.000 N 
ATOM      8  C   UNL     1       4.876   5.626  18.497  0.00  0.00    +0.000 C 
BRANCH   7   9
ATOM      9  S   UNL     1       2.538   4.455  17.749  0.00  0.00    +0.000 S 
ATOM     10  O   UNL     1       1.204   4.868  17.370  0.00  0.00    +0.000 OA
ATOM     11  O   UNL     1       3.298   3.550  16.909  0.00  0.00    +0.000 OA
BRANCH   9  12
ATOM     12  C   UNL     1       2.422   3.682  19.357  0.00  0.00    +0.000 A 
ATOM     13  C   UNL     1       1.225   3.742  20.076  0.00  0.00    +0.000 A 
ATOM     14  C   UNL     1       1.134   3.107  21.318  0.00  0.00    +0.000 A 
ATOM     15  C   UNL     1       2.228   2.404  21.827  0.00  0.00    +0.000 A 
ATOM     16  C   UNL     1       3.407   2.310  21.088  0.00  0.00    +0.000 A 
ATOM     17  C   UNL     1       3.504   2.939  19.847  0.00  0.00    +0.000 A 
ENDBRANCH   9  12
ENDBRANCH   7   9
ENDBRANCH   4   7
BRANCH   1  18
ATOM     18  O   UNL     1       0.766  10.397  19.718  0.00  0.00    +0.000 OA
BRANCH  18  19
ATOM     19  C   UNL     1      -0.585  10.093  20.067  0.00  0.00    +0.000 C 
BRANCH  19  25
ATOM     20  C   UNL     1      -3.897  10.016  13.457  0.00  0.00    +0.000 C 
ATOM     21  C   UNL     1      -3.360  10.200  14.814  0.00  0.00    +0.000 A 
ATOM     22  C   UNL     1      -2.505   9.495  15.625  0.00  0.00    +0.000 A 
ATOM     23  C   UNL     1      -2.428  10.265  16.812  0.00  0.00    +0.000 A 
ATOM     24  N   UNL     1      -1.657   9.926  17.903  0.00  0.00    +0.000 N 
ATOM     25  C   UNL     1      -1.571  10.671  19.058  0.00  0.00    +0.000 C 
ATOM     26  O   UNL     1      -2.176  11.706  19.322  0.00  0.00    +0.000 OA
ATOM     27  N   UNL     1      -3.191  11.354  16.713  0.00  0.00    +0.000 NA
ATOM     28  O   UNL     1      -3.772  11.315  15.468  0.00  0.00    +0.000 OA
ATOM     29  H   UNL     1      -1.100   9.081  17.850  0.00  0.00    +0.000 HD
ENDBRANCH  19  25
ENDBRANCH  18  19
ENDBRANCH   1  18
TORSDOF 6
ENDMDL
MODEL 6
REMARK VINA RESULT:      -7.8      1.184      1.593
REMARK  Name = 
REMARK  8 active torsions:
REMARK  status: ('A' for Active; 'I' for Inactive)
REMARK    1  A    between atoms: C_1  and  C_2
REMARK    2  A    between atoms: C_6  and  C_8
REMARK    3  A    between atoms: C_8  and  O_9
REMARK    4  A    between atoms: O_9  and  C_10
REMARK    5  A    between atoms: C_13  and  N_14
REMARK    6  A    between atoms: N_14  and  C_15
REMARK    7  A    between atoms: N_14  and  S_16
REMARK    8  A    between atoms: S_16  and  C_19
REMARK                            x       y       z     vdW  Elec       q    Type
REMARK                         _______ _______ _______ _____ _____    ______ ____
ROOT
ATOM      1  C   UNL     1       6.544   5.339  17.466  0.00  0.00    +0.000 A 
ATOM      2  C   UNL     1       5.764   4.793  16.443  0.00  0.00    +0.000 A 
ATOM      3  C   UNL     1       4.693   3.951  16.749  0.00  0.00    +0.000 A 
ATOM      4  C   UNL     1       4.420   3.629  18.078  0.00  0.00    +0.000 A 
ATOM      5  C   UNL     1       5.223   4.142  19.099  0.00  0.00    +0.000 A 
ATOM      6  C   UNL     1       6.285   4.994  18.793  0.00  0.00    +0.000 A 
ENDROOT
BRANCH   4   7
ATOM      7  N   UNL     1       3.319   2.792  18.439  0.00  0.00    +0.000 N 
ATOM      8  C   UNL     1       3.561   1.342  18.487  0.00  0.00    +0.000 C 
BRANCH   7   9
ATOM      9  S   UNL     1       2.148   3.433  19.502  0.00  0.00    +0.000 S 
ATOM     10  O   UNL     1       0.836   2.974  19.101  0.00  0.00    +0.000 OA
ATOM     11  O   UNL     1       2.625   3.215  20.853  0.00  0.00    +0.000 OA
BRANCH   9  12
ATOM     12  C   UNL     1       2.207   5.197  19.218  0.00  0.00    +0.000 A 
ATOM     13  C   UNL     1       2.233   5.694  17.911  0.00  0.00    +0.000 A 
ATOM     14  C   UNL     1       2.247   7.075  17.700  0.00  0.00    +0.000 A 
ATOM     15  C   UNL     1       2.218   7.951  18.787  0.00  0.00    +0.000 A 
ATOM     16  C   UNL     1       2.150   7.453  20.088  0.00  0.00    +0.000 A 
ATOM     17  C   UNL     1       2.132   6.075  20.307  0.00  0.00    +0.000 A 
ENDBRANCH   9  12
ENDBRANCH   7   9
ENDBRANCH   4   7
BRANCH   1  18
ATOM     18  O   UNL     1       7.580   6.210  17.273  0.00  0.00    +0.000 OA
BRANCH  18  19
ATOM     19  C   UNL     1       7.986   6.918  18.445  0.00  0.00    +0.000 C 
BRANCH  19  25
ATOM     20  C   UNL     1      10.623  13.564  20.330  0.00  0.00    +0.000 C 
ATOM     21  C   UNL     1      10.035  12.336  19.775  0.00  0.00    +0.000 A 
ATOM     22  C   UNL     1      10.007  11.015  20.151  0.00  0.00    +0.000 A 
ATOM     23  C   UNL     1       9.247  10.375  19.142  0.00  0.00    +0.000 A 
ATOM     24  N   UNL     1       8.955   9.028  19.133  0.00  0.00    +0.000 N 
ATOM     25  C   UNL     1       8.211   8.399  18.159  0.00  0.00    +0.000 C 
ATOM     26  O   UNL     1       7.732   8.902  17.147  0.00  0.00    +0.000 OA
ATOM     27  N   UNL     1       8.852  11.258  18.224  0.00  0.00    +0.000 NA
ATOM     28  O   UNL     1       9.342  12.481  18.618  0.00  0.00    +0.000 OA
ATOM     29  H   UNL     1       9.293   8.461  19.900  0.00  0.00    +0.000 HD
ENDBRANCH  19  25
ENDBRANCH  18  19
ENDBRANCH   1  18
TORSDOF 6
ENDMDL
MODEL 7
REMARK VINA RESULT:      -7.6      5.538      8.815
REMARK  Name = 
REMARK  8 active torsions:
REMARK  status: ('A' for Active; 'I' for Inactive)
REMARK    1  A    between atoms: C_1  and  C_2
REMARK    2  A    between atoms: C_6  and  C_8
REMARK    3  A    between atoms: C_8  and  O_9
REMARK    4  A    between atoms: O_9  and  C_10
REMARK    5  A    between atoms: C_13  and  N_14
REMARK    6  A    between atoms: N_14  and  C_15
REMARK    7  A    between atoms: N_14  and  S_16
REMARK    8  A    between atoms: S_16  and  C_19
REMARK                            x       y       z     vdW  Elec       q    Type
REMARK                         _______ _______ _______ _____ _____    ______ ____
ROOT
ATOM      1  C   UNL     1       1.302   9.170  19.252  0.00  0.00    +0.000 A 
ATOM      2  C   UNL     1       1.830   9.119  17.959  0.00  0.00    +0.000 A 
ATOM      3  C   UNL     1       2.556   8.003  17.540  0.00  0.00    +0.000 A 
ATOM      4  C   UNL     1       2.782   6.949  18.424  0.00  0.00    +0.000 A 
ATOM      5  C   UNL     1       2.290   7.016  19.729  0.00  0.00    +0.000 A 
ATOM      6  C   UNL     1       1.552   8.125  20.142  0.00  0.00    +0.000 A 
ENDROOT
BRANCH   4   7
ATOM      7  N   UNL     1       3.498   5.776  18.029  0.00  0.00    +0.000 N 
ATOM      8  C   UNL     1       4.861   5.608  18.558  0.00  0.00    +0.000 C 
BRANCH   7   9
ATOM      9  S   UNL     1       2.596   4.364  17.708  0.00  0.00    +0.000 S 
ATOM     10  O   UNL     1       1.268   4.734  17.271  0.00  0.00    +0.000 OA
ATOM     11  O   UNL     1       3.426   3.497  16.895  0.00  0.00    +0.000 OA
BRANCH   9  12
ATOM     12  C   UNL     1       2.434   3.568  19.301  0.00  0.00    +0.000 A 
ATOM     13  C   UNL     1       3.539   2.941  19.884  0.00  0.00    +0.000 A 
ATOM     14  C   UNL     1       3.410   2.349  21.143  0.00  0.00    +0.000 A 
ATOM     15  C   UNL     1       2.190   2.401  21.821  0.00  0.00    +0.000 A 
ATOM     16  C   UNL     1       1.101   3.065  21.255  0.00  0.00    +0.000 A 
ATOM     17  C   UNL     1       1.223   3.660  19.999  0.00  0.00    +0.000 A 
ENDBRANCH   9  12
ENDBRANCH   7   9
ENDBRANCH   4   7
BRANCH   1  18
ATOM     18  O   UNL     1       0.537  10.193  19.741  0.00  0.00    +0.000 OA
BRANCH  18  19
ATOM     19  C   UNL     1       0.136  11.154  18.762  0.00  0.00    +0.000 C 
BRANCH  19  25
ATOM     20  C   UNL     1      -7.178  12.214  18.975  0.00  0.00    +0.000 C 
ATOM     21  C   UNL     1      -5.763  11.873  18.770  0.00  0.00    +0.000 A 
ATOM     22  C   UNL     1      -4.571  12.311  19.294  0.00  0.00    +0.000 A 
ATOM     23  C   UNL     1      -3.587  11.531  18.637  0.00  0.00    +0.000 A 
ATOM     24  N   UNL     1      -2.234  11.635  18.876  0.00  0.00    +0.000 N 
ATOM     25  C   UNL     1      -1.272  10.876  18.246  0.00  0.00    +0.000 C 
ATOM     26  O   UNL     1      -1.443  10.038  17.366  0.00  0.00    +0.000 OA
ATOM     27  N   UNL     1      -4.158  10.689  17.775  0.00  0.00    +0.000 NA
ATOM     28  O   UNL     1      -5.514  10.900  17.857  0.00  0.00    +0.000 OA
ATOM     29  H   UNL     1      -1.921  12.299  19.573  0.00  0.00    +0.000 HD
ENDBRANCH  19  25
ENDBRANCH  18  19
ENDBRANCH   1  18
TORSDOF 6
ENDMDL
MODEL 8
REMARK VINA RESULT:      -7.6      5.285      7.847
REMARK  Name = 
REMARK  8 active torsions:
REMARK  status: ('A' for Active; 'I' for Inactive)
REMARK    1  A    between atoms: C_1  and  C_2
REMARK    2  A    between atoms: C_6  and  C_8
REMARK    3  A    between atoms: C_8  and  O_9
REMARK    4  A    between atoms: O_9  and  C_10
REMARK    5  A    between atoms: C_13  and  N_14
REMARK    6  A    between atoms: N_14  and  C_15
REMARK    7  A    between atoms: N_14  and  S_16
REMARK    8  A    between atoms: S_16  and  C_19
REMARK                            x       y       z     vdW  Elec       q    Type
REMARK                         _______ _______ _______ _____ _____    ______ ____
ROOT
ATOM      1  C   UNL     1       1.766   7.685  19.815  0.00  0.00    +0.000 A 
ATOM      2  C   UNL     1       2.654   7.444  18.764  0.00  0.00    +0.000 A 
ATOM      3  C   UNL     1       3.204   6.173  18.586  0.00  0.00    +0.000 A 
ATOM      4  C   UNL     1       2.892   5.150  19.480  0.00  0.00    +0.000 A 
ATOM      5  C   UNL     1       2.036   5.400  20.555  0.00  0.00    +0.000 A 
ATOM      6  C   UNL     1       1.475   6.667  20.723  0.00  0.00    +0.000 A 
ENDROOT
BRANCH   4   7
ATOM      7  N   UNL     1       3.411   3.827  19.322  0.00  0.00    +0.000 N 
ATOM      8  C   UNL     1       3.250   2.900  20.453  0.00  0.00    +0.000 C 
BRANCH   7   9
ATOM      9  S   UNL     1       3.430   3.162  17.752  0.00  0.00    +0.000 S 
ATOM     10  O   UNL     1       3.666   1.737  17.838  0.00  0.00    +0.000 OA
ATOM     11  O   UNL     1       2.269   3.677  17.051  0.00  0.00    +0.000 OA
BRANCH   9  12
ATOM     12  C   UNL     1       4.863   3.896  16.974  0.00  0.00    +0.000 A 
ATOM     13  C   UNL     1       6.004   4.174  17.733  0.00  0.00    +0.000 A 
ATOM     14  C   UNL     1       7.130   4.718  17.109  0.00  0.00    +0.000 A 
ATOM     15  C   UNL     1       7.120   4.965  15.735  0.00  0.00    +0.000 A 
ATOM     16  C   UNL     1       5.995   4.647  14.974  0.00  0.00    +0.000 A 
ATOM     17  C   UNL     1       4.868   4.101  15.588  0.00  0.00    +0.000 A 
ENDBRANCH   9  12
ENDBRANCH   7   9
ENDBRANCH   4   7
BRANCH   1  18
ATOM     18  O   UNL     1       1.137   8.878  20.043  0.00  0.00    +0.000 OA
BRANCH  18  19
ATOM     19  C   UNL     1       0.341   8.912  21.229  0.00  0.00    +0.000 C 
BRANCH  19  25
ATOM     20  C   UNL     1      -3.492  14.398  24.373  0.00  0.00    +0.000 C 
ATOM     21  C   UNL     1      -2.563  13.437  23.760  0.00  0.00    +0.000 A 
ATOM     22  C   UNL     1      -2.640  12.122  23.371  0.00  0.00    +0.000 A 
ATOM     23  C   UNL     1      -1.356  11.832  22.846  0.00  0.00    +0.000 A 
ATOM     24  N   UNL     1      -0.995  10.609  22.323  0.00  0.00    +0.000 N 
ATOM     25  C   UNL     1       0.249  10.321  21.805  0.00  0.00    +0.000 C 
ATOM     26  O   UNL     1       1.226  11.062  21.759  0.00  0.00    +0.000 OA
ATOM     27  N   UNL     1      -0.567  12.904  22.923  0.00  0.00    +0.000 NA
ATOM     28  O   UNL     1      -1.318  13.906  23.492  0.00  0.00    +0.000 OA
ATOM     29  H   UNL     1      -1.691   9.875  22.299  0.00  0.00    +0.000 HD
ENDBRANCH  19  25
ENDBRANCH  18  19
ENDBRANCH   1  18
TORSDOF 6
ENDMDL
MODEL 9
REMARK VINA RESULT:      -7.6      5.462      7.634
REMARK  Name = 
REMARK  8 active torsions:
REMARK  status: ('A' for Active; 'I' for Inactive)
REMARK    1  A    between atoms: C_1  and  C_2
REMARK    2  A    between atoms: C_6  and  C_8
REMARK    3  A    between atoms: C_8  and  O_9
REMARK    4  A    between atoms: O_9  and  C_10
REMARK    5  A    between atoms: C_13  and  N_14
REMARK    6  A    between atoms: N_14  and  C_15
REMARK    7  A    between atoms: N_14  and  S_16
REMARK    8  A    between atoms: S_16  and  C_19
REMARK                            x       y       z     vdW  Elec       q    Type
REMARK                         _______ _______ _______ _____ _____    ______ ____
ROOT
ATOM      1  C   UNL     1       1.686   8.710  18.951  0.00  0.00    +0.000 A 
ATOM      2  C   UNL     1       2.346   8.634  17.722  0.00  0.00    +0.000 A 
ATOM      3  C   UNL     1       3.146   7.530  17.420  0.00  0.00    +0.000 A 
ATOM      4  C   UNL     1       3.313   6.516  18.362  0.00  0.00    +0.000 A 
ATOM      5  C   UNL     1       2.686   6.609  19.606  0.00  0.00    +0.000 A 
ATOM      6  C   UNL     1       1.875   7.706  19.901  0.00  0.00    +0.000 A 
ENDROOT
BRANCH   4   7
ATOM      7  N   UNL     1       4.102   5.356  18.087  0.00  0.00    +0.000 N 
ATOM      8  C   UNL     1       5.418   5.265  18.738  0.00  0.00    +0.000 C 
BRANCH   7   9
ATOM      9  S   UNL     1       3.282   3.896  17.756  0.00  0.00    +0.000 S 
ATOM     10  O   UNL     1       2.163   4.163  16.878  0.00  0.00    +0.000 OA
ATOM     11  O   UNL     1       4.283   2.910  17.397  0.00  0.00    +0.000 OA
BRANCH   9  12
ATOM     12  C   UNL     1       2.614   3.393  19.336  0.00  0.00    +0.000 A 
ATOM     13  C   UNL     1       1.237   3.461  19.566  0.00  0.00    +0.000 A 
ATOM     14  C   UNL     1       0.721   3.035  20.793  0.00  0.00    +0.000 A 
ATOM     15  C   UNL     1       1.576   2.529  21.775  0.00  0.00    +0.000 A 
ATOM     16  C   UNL     1       2.944   2.423  21.526  0.00  0.00    +0.000 A 
ATOM     17  C   UNL     1       3.465   2.843  20.303  0.00  0.00    +0.000 A 
ENDBRANCH   9  12
ENDBRANCH   7   9
ENDBRANCH   4   7
BRANCH   1  18
ATOM     18  O   UNL     1       0.844   9.722  19.320  0.00  0.00    +0.000 OA
BRANCH  18  19
ATOM     19  C   UNL     1       0.237   9.551  20.602  0.00  0.00    +0.000 C 
BRANCH  19  25
ATOM     20  C   UNL     1      -3.045  14.754  24.705  0.00  0.00    +0.000 C 
ATOM     21  C   UNL     1      -2.213  13.827  23.923  0.00  0.00    +0.000 A 
ATOM     22  C   UNL     1      -2.421  12.618  23.304  0.00  0.00    +0.000 A 
ATOM     23  C   UNL     1      -1.168  12.295  22.728  0.00  0.00    +0.000 A 
ATOM     24  N   UNL     1      -0.929  11.155  21.991  0.00  0.00    +0.000 N 
ATOM     25  C   UNL     1       0.284  10.835  21.423  0.00  0.00    +0.000 C 
ATOM     26  O   UNL     1       1.334  11.466  21.506  0.00  0.00    +0.000 OA
ATOM     27  N   UNL     1      -0.273  13.247  22.993  0.00  0.00    +0.000 NA
ATOM     28  O   UNL     1      -0.923  14.203  23.737  0.00  0.00    +0.000 OA
ATOM     29  H   UNL     1      -1.698  10.514  21.839  0.00  0.00    +0.000 HD
ENDBRANCH  19  25
ENDBRANCH  18  19
ENDBRANCH   1  18
TORSDOF 6
ENDMDL
