MODEL 1
REMARK VINA RESULT:      -6.3      0.000      0.000
REMARK  Name = 
REMARK  6 active torsions:
REMARK  status: ('A' for Active; 'I' for Inactive)
REMARK    1  A    between atoms: C_1  and  C_2
REMARK    2  A    between atoms: C_2  and  C_3
REMARK    3  A    between atoms: C_2  and  C_4
REMARK    4  A    between atoms: C_7  and  O_8
REMARK    5  A    between atoms: C_9  and  C_10
REMARK    6  A    between atoms: C_10  and  O_12
REMARK                            x       y       z     vdW  Elec       q    Type
REMARK                         _______ _______ _______ _____ _____    ______ ____
ROOT
ATOM      1  C   UNL     1       4.073   4.901  18.199  0.00  0.00    +0.000 A 
ATOM      2  C   UNL     1       4.335   4.303  16.959  0.00  0.00    +0.000 A 
ATOM      3  C   UNL     1       5.646   4.159  16.497  0.00  0.00    +0.000 A 
ATOM      4  C   UNL     1       6.712   4.614  17.274  0.00  0.00    +0.000 A 
ATOM      5  C   UNL     1       6.483   5.226  18.513  0.00  0.00    +0.000 A 
ATOM      6  C   UNL     1       5.159   5.365  18.962  0.00  0.00    +0.000 A 
ENDROOT
BRANCH   1   8
ATOM      7  C   UNL     1       1.658   4.280  17.797  0.00  0.00    +0.000 C 
ATOM      8  C   UNL     1       2.642   5.041  18.691  0.00  0.00    +0.000 C 
ATOM      9  C   UNL     1       2.510   4.593  20.148  0.00  0.00    +0.000 C 
ENDBRANCH   1   8
BRANCH   4  10
ATOM     10  O   UNL     1       7.994   4.452  16.812  0.00  0.00    +0.000 OA
ATOM     11  H   UNL     1       8.600   4.449  17.576  0.00  0.00    +0.000 HD
ENDBRANCH   4  10
BRANCH   5  12
ATOM     12  C   UNL     1       7.559   5.745  19.408  0.00  0.00    +0.000 C 
ATOM     13  O   UNL     1       7.775   5.281  20.518  0.00  0.00    +0.000 OA
BRANCH  12  14
ATOM     14  O   UNL     1       8.287   6.766  18.905  0.00  0.00    +0.000 OA
ATOM     15  H   UNL     1       8.578   7.392  19.605  0.00  0.00    +0.000 HD
ENDBRANCH  12  14
ENDBRANCH   5  12
TORSDOF 4
ENDMDL
MODEL 2
REMARK VINA RESULT:      -6.2      2.282      3.415
REMARK  Name = 
REMARK  6 active torsions:
REMARK  status: ('A' for Active; 'I' for Inactive)
REMARK    1  A    between atoms: C_1  and  C_2
REMARK    2  A    between atoms: C_2  and  C_3
REMARK    3  A    between atoms: C_2  and  C_4
REMARK    4  A    between atoms: C_7  and  O_8
REMARK    5  A    between atoms: C_9  and  C_10
REMARK    6  A    between atoms: C_10  and  O_12
REMARK                            x       y       z     vdW  Elec       q    Type
REMARK                         _______ _______ _______ _____ _____    ______ ____
ROOT
ATOM      1  C   UNL     1       3.675   4.174  17.173  0.00  0.00    +0.000 A 
ATOM      2  C   UNL     1       3.648   5.380  17.886  0.00  0.00    +0.000 A 
ATOM      3  C   UNL     1       4.606   6.370  17.654  0.00  0.00    +0.000 A 
ATOM      4  C   UNL     1       5.604   6.163  16.702  0.00  0.00    +0.000 A 
ATOM      5  C   UNL     1       5.666   4.965  15.980  0.00  0.00    +0.000 A 
ATOM      6  C   UNL     1       4.697   3.978  16.227  0.00  0.00    +0.000 A 
ENDROOT
BRANCH   1   8
ATOM      7  C   UNL     1       3.208   1.885  18.136  0.00  0.00    +0.000 C 
ATOM      8  C   UNL     1       2.620   3.111  17.431  0.00  0.00    +0.000 C 
ATOM      9  C   UNL     1       1.442   3.680  18.223  0.00  0.00    +0.000 C 
ENDBRANCH   1   8
BRANCH   4  10
ATOM     10  O   UNL     1       6.529   7.152  16.476  0.00  0.00    +0.000 OA
ATOM     11  H   UNL     1       7.342   6.741  16.127  0.00  0.00    +0.000 HD
ENDBRANCH   4  10
BRANCH   5  12
ATOM     12  C   UNL     1       6.698   4.656  14.947  0.00  0.00    +0.000 C 
ATOM     13  O   UNL     1       7.690   5.350  14.777  0.00  0.00    +0.000 OA
BRANCH  12  14
ATOM     14  O   UNL     1       6.464   3.549  14.209  0.00  0.00    +0.000 OA
ATOM     15  H   UNL     1       5.676   3.650  13.630  0.00  0.00    +0.000 HD
ENDBRANCH  12  14
ENDBRANCH   5  12
TORSDOF 4
ENDMDL
MODEL 3
REMARK VINA RESULT:      -6.2      1.575      3.252
REMARK  Name = 
REMARK  6 active torsions:
REMARK  status: ('A' for Active; 'I' for Inactive)
REMARK    1  A    between atoms: C_1  and  C_2
REMARK    2  A    between atoms: C_2  and  C_3
REMARK    3  A    between atoms: C_2  and  C_4
REMARK    4  A    between atoms: C_7  and  O_8
REMARK    5  A    between atoms: C_9  and  C_10
REMARK    6  A    between atoms: C_10  and  O_12
REMARK                            x       y       z     vdW  Elec       q    Type
REMARK                         _______ _______ _______ _____ _____    ______ ____
ROOT
ATOM      1  C   UNL     1       3.934   3.832  17.363  0.00  0.00    +0.000 A 
ATOM      2  C   UNL     1       4.529   4.169  18.587  0.00  0.00    +0.000 A 
ATOM      3  C   UNL     1       5.853   4.609  18.641  0.00  0.00    +0.000 A 
ATOM      4  C   UNL     1       6.600   4.718  17.467  0.00  0.00    +0.000 A 
ATOM      5  C   UNL     1       6.038   4.379  16.229  0.00  0.00    +0.000 A 
ATOM      6  C   UNL     1       4.706   3.936  16.193  0.00  0.00    +0.000 A 
ENDROOT
BRANCH   1   8
ATOM      7  C   UNL     1       2.273   2.109  18.170  0.00  0.00    +0.000 C 
ATOM      8  C   UNL     1       2.489   3.365  17.321  0.00  0.00    +0.000 C 
ATOM      9  C   UNL     1       1.532   4.480  17.746  0.00  0.00    +0.000 C 
ENDBRANCH   1   8
BRANCH   4  10
ATOM     10  O   UNL     1       7.895   5.166  17.537  0.00  0.00    +0.000 OA
ATOM     11  H   UNL     1       7.882   6.136  17.637  0.00  0.00    +0.000 HD
ENDBRANCH   4  10
BRANCH   5  12
ATOM     12  C   UNL     1       6.761   4.461  14.926  0.00  0.00    +0.000 C 
ATOM     13  O   UNL     1       7.606   5.313  14.692  0.00  0.00    +0.000 OA
BRANCH  12  14
ATOM     14  O   UNL     1       6.420   3.522  14.017  0.00  0.00    +0.000 OA
ATOM     15  H   UNL     1       5.529   3.685  13.633  0.00  0.00    +0.000 HD
ENDBRANCH  12  14
ENDBRANCH   5  12
TORSDOF 4
ENDMDL
MODEL 4
REMARK VINA RESULT:      -6.2      0.430      1.359
REMARK  Name = 
REMARK  6 active torsions:
REMARK  status: ('A' for Active; 'I' for Inactive)
REMARK    1  A    between atoms: C_1  and  C_2
REMARK    2  A    between atoms: C_2  and  C_3
REMARK    3  A    between atoms: C_2  and  C_4
REMARK    4  A    between atoms: C_7  and  O_8
REMARK    5  A    between atoms: C_9  and  C_10
REMARK    6  A    between atoms: C_10  and  O_12
REMARK                            x       y       z     vdW  Elec       q    Type
REMARK                         _______ _______ _______ _____ _____    ______ ____
ROOT
ATOM      1  C   UNL     1       4.071   4.518  18.369  0.00  0.00    +0.000 A 
ATOM      2  C   UNL     1       4.276   3.947  17.106  0.00  0.00    +0.000 A 
ATOM      3  C   UNL     1       5.535   3.981  16.502  0.00  0.00    +0.000 A 
ATOM      4  C   UNL     1       6.606   4.589  17.158  0.00  0.00    +0.000 A 
ATOM      5  C   UNL     1       6.431   5.179  18.417  0.00  0.00    +0.000 A 
ATOM      6  C   UNL     1       5.158   5.138  19.009  0.00  0.00    +0.000 A 
ENDROOT
BRANCH   1   8
ATOM      7  C   UNL     1       2.445   5.675  19.919  0.00  0.00    +0.000 C 
ATOM      8  C   UNL     1       2.697   4.463  19.017  0.00  0.00    +0.000 C 
ATOM      9  C   UNL     1       1.593   4.329  17.966  0.00  0.00    +0.000 C 
ENDBRANCH   1   8
BRANCH   4  10
ATOM     10  O   UNL     1       7.840   4.601  16.557  0.00  0.00    +0.000 OA
ATOM     11  H   UNL     1       8.469   5.052  17.151  0.00  0.00    +0.000 HD
ENDBRANCH   4  10
BRANCH   5  12
ATOM     12  C   UNL     1       7.516   5.853  19.189  0.00  0.00    +0.000 C 
ATOM     13  O   UNL     1       8.183   6.768  18.728  0.00  0.00    +0.000 OA
BRANCH  12  14
ATOM     14  O   UNL     1       7.712   5.384  20.440  0.00  0.00    +0.000 OA
ATOM     15  H   UNL     1       8.655   5.445  20.715  0.00  0.00    +0.000 HD
ENDBRANCH  12  14
ENDBRANCH   5  12
TORSDOF 4
ENDMDL
MODEL 5
REMARK VINA RESULT:      -6.1      1.553      2.992
REMARK  Name = 
REMARK  6 active torsions:
REMARK  status: ('A' for Active; 'I' for Inactive)
REMARK    1  A    between atoms: C_1  and  C_2
REMARK    2  A    between atoms: C_2  and  C_3
REMARK    3  A    between atoms: C_2  and  C_4
REMARK    4  A    between atoms: C_7  and  O_8
REMARK    5  A    between atoms: C_9  and  C_10
REMARK    6  A    between atoms: C_10  and  O_12
REMARK                            x       y       z     vdW  Elec       q    Type
REMARK                         _______ _______ _______ _____ _____    ______ ____
ROOT
ATOM      1  C   UNL     1       4.207   5.363  17.810  0.00  0.00    +0.000 A 
ATOM      2  C   UNL     1       5.013   5.163  18.939  0.00  0.00    +0.000 A 
ATOM      3  C   UNL     1       6.345   4.764  18.806  0.00  0.00    +0.000 A 
ATOM      4  C   UNL     1       6.887   4.561  17.537  0.00  0.00    +0.000 A 
ATOM      5  C   UNL     1       6.106   4.741  16.388  0.00  0.00    +0.000 A 
ATOM      6  C   UNL     1       4.767   5.139  16.540  0.00  0.00    +0.000 A 
ENDROOT
BRANCH   1   8
ATOM      7  C   UNL     1       1.788   4.634  17.830  0.00  0.00    +0.000 C 
ATOM      8  C   UNL     1       2.763   5.807  17.972  0.00  0.00    +0.000 C 
ATOM      9  C   UNL     1       2.551   6.530  19.303  0.00  0.00    +0.000 C 
ENDBRANCH   1   8
BRANCH   4  10
ATOM     10  O   UNL     1       8.202   4.182  17.423  0.00  0.00    +0.000 OA
ATOM     11  H   UNL     1       8.697   4.907  16.998  0.00  0.00    +0.000 HD
ENDBRANCH   4  10
BRANCH   5  12
ATOM     12  C   UNL     1       6.599   4.542  14.994  0.00  0.00    +0.000 C 
ATOM     13  O   UNL     1       6.087   3.747  14.220  0.00  0.00    +0.000 OA
BRANCH  12  14
ATOM     14  O   UNL     1       7.655   5.307  14.640  0.00  0.00    +0.000 OA
ATOM     15  H   UNL     1       8.035   5.035  13.774  0.00  0.00    +0.000 HD
ENDBRANCH  12  14
ENDBRANCH   5  12
TORSDOF 4
ENDMDL
MODEL 6
REMARK VINA RESULT:      -6.1      3.310      4.487
REMARK  Name = 
REMARK  6 active torsions:
REMARK  status: ('A' for Active; 'I' for Inactive)
REMARK    1  A    between atoms: C_1  and  C_2
REMARK    2  A    between atoms: C_2  and  C_3
REMARK    3  A    between atoms: C_2  and  C_4
REMARK    4  A    between atoms: C_7  and  O_8
REMARK    5  A    between atoms: C_9  and  C_10
REMARK    6  A    between atoms: C_10  and  O_12
REMARK                            x       y       z     vdW  Elec       q    Type
REMARK                         _______ _______ _______ _____ _____    ______ ____
ROOT
ATOM      1  C   UNL     1       3.287   5.250  18.152  0.00  0.00    +0.000 A 
ATOM      2  C   UNL     1       1.929   5.055  17.865  0.00  0.00    +0.000 A 
ATOM      3  C   UNL     1       1.329   3.809  18.059  0.00  0.00    +0.000 A 
ATOM      4  C   UNL     1       2.084   2.740  18.544  0.00  0.00    +0.000 A 
ATOM      5  C   UNL     1       3.446   2.900  18.830  0.00  0.00    +0.000 A 
ATOM      6  C   UNL     1       4.034   4.159  18.627  0.00  0.00    +0.000 A 
ENDROOT
BRANCH   1   8
ATOM      7  C   UNL     1       4.797   6.651  16.688  0.00  0.00    +0.000 C 
ATOM      8  C   UNL     1       3.921   6.616  17.945  0.00  0.00    +0.000 C 
ATOM      9  C   UNL     1       2.862   7.719  17.900  0.00  0.00    +0.000 C 
ENDBRANCH   1   8
BRANCH   4  10
ATOM     10  O   UNL     1       1.476   1.526  18.742  0.00  0.00    +0.000 OA
ATOM     11  H   UNL     1       2.048   0.830  18.368  0.00  0.00    +0.000 HD
ENDBRANCH   4  10
BRANCH   5  12
ATOM     12  C   UNL     1       4.330   1.814  19.348  0.00  0.00    +0.000 C 
ATOM     13  O   UNL     1       4.980   1.927  20.377  0.00  0.00    +0.000 OA
BRANCH  12  14
ATOM     14  O   UNL     1       4.364   0.690  18.600  0.00  0.00    +0.000 OA
ATOM     15  H   UNL     1       3.723   0.723  17.854  0.00  0.00    +0.000 HD
ENDBRANCH  12  14
ENDBRANCH   5  12
TORSDOF 4
ENDMDL
MODEL 7
REMARK VINA RESULT:      -6.1      0.721      1.046
REMARK  Name = 
REMARK  6 active torsions:
REMARK  status: ('A' for Active; 'I' for Inactive)
REMARK    1  A    between atoms: C_1  and  C_2
REMARK    2  A    between atoms: C_2  and  C_3
REMARK    3  A    between atoms: C_2  and  C_4
REMARK    4  A    between atoms: C_7  and  O_8
REMARK    5  A    between atoms: C_9  and  C_10
REMARK    6  A    between atoms: C_10  and  O_12
REMARK                            x       y       z     vdW  Elec       q    Type
REMARK                         _______ _______ _______ _____ _____    ______ ____
ROOT
ATOM      1  C   UNL     1       4.142   5.244  17.775  0.00  0.00    +0.000 A 
ATOM      2  C   UNL     1       4.465   4.476  16.648  0.00  0.00    +0.000 A 
ATOM      3  C   UNL     1       5.789   4.117  16.383  0.00  0.00    +0.000 A 
ATOM      4  C   UNL     1       6.807   4.523  17.247  0.00  0.00    +0.000 A 
ATOM      5  C   UNL     1       6.519   5.301  18.376  0.00  0.00    +0.000 A 
ATOM      6  C   UNL     1       5.182   5.655  18.626  0.00  0.00    +0.000 A 
ENDROOT
BRANCH   1   8
ATOM      7  C   UNL     1       2.129   4.843  19.249  0.00  0.00    +0.000 C 
ATOM      8  C   UNL     1       2.695   5.617  18.054  0.00  0.00    +0.000 C 
ATOM      9  C   UNL     1       2.541   7.125  18.260  0.00  0.00    +0.000 C 
ENDBRANCH   1   8
BRANCH   4  10
ATOM     10  O   UNL     1       8.101   4.151  16.979  0.00  0.00    +0.000 OA
ATOM     11  H   UNL     1       8.701   4.784  17.414  0.00  0.00    +0.000 HD
ENDBRANCH   4  10
BRANCH   5  12
ATOM     12  C   UNL     1       7.541   5.783  19.350  0.00  0.00    +0.000 C 
ATOM     13  O   UNL     1       7.679   5.290  20.460  0.00  0.00    +0.000 OA
BRANCH  12  14
ATOM     14  O   UNL     1       8.313   6.805  18.920  0.00  0.00    +0.000 OA
ATOM     15  H   UNL     1       8.888   7.160  19.634  0.00  0.00    +0.000 HD
ENDBRANCH  12  14
ENDBRANCH   5  12
TORSDOF 4
ENDMDL
MODEL 8
REMARK VINA RESULT:      -6.0      0.602      1.081
REMARK  Name = 
REMARK  6 active torsions:
REMARK  status: ('A' for Active; 'I' for Inactive)
REMARK    1  A    between atoms: C_1  and  C_2
REMARK    2  A    between atoms: C_2  and  C_3
REMARK    3  A    between atoms: C_2  and  C_4
REMARK    4  A    between atoms: C_7  and  O_8
REMARK    5  A    between atoms: C_9  and  C_10
REMARK    6  A    between atoms: C_10  and  O_12
REMARK                            x       y       z     vdW  Elec       q    Type
REMARK                         _______ _______ _______ _____ _____    ______ ____
ROOT
ATOM      1  C   UNL     1       4.104   4.665  18.161  0.00  0.00    +0.000 A 
ATOM      2  C   UNL     1       4.353   4.026  16.939  0.00  0.00    +0.000 A 
ATOM      3  C   UNL     1       5.642   3.986  16.403  0.00  0.00    +0.000 A 
ATOM      4  C   UNL     1       6.700   4.587  17.086  0.00  0.00    +0.000 A 
ATOM      5  C   UNL     1       6.482   5.244  18.304  0.00  0.00    +0.000 A 
ATOM      6  C   UNL     1       5.179   5.277  18.828  0.00  0.00    +0.000 A 
ENDROOT
BRANCH   1   8
ATOM      7  C   UNL     1       2.227   3.292  19.149  0.00  0.00    +0.000 C 
ATOM      8  C   UNL     1       2.697   4.690  18.735  0.00  0.00    +0.000 C 
ATOM      9  C   UNL     1       2.593   5.667  19.907  0.00  0.00    +0.000 C 
ENDBRANCH   1   8
BRANCH   4  10
ATOM     10  O   UNL     1       7.962   4.528  16.552  0.00  0.00    +0.000 OA
ATOM     11  H   UNL     1       7.906   4.739  15.601  0.00  0.00    +0.000 HD
ENDBRANCH   4  10
BRANCH   5  12
ATOM     12  C   UNL     1       7.549   5.917  19.101  0.00  0.00    +0.000 C 
ATOM     13  O   UNL     1       8.197   6.860  18.672  0.00  0.00    +0.000 OA
BRANCH  12  14
ATOM     14  O   UNL     1       7.752   5.412  20.338  0.00  0.00    +0.000 OA
ATOM     15  H   UNL     1       7.129   5.791  20.998  0.00  0.00    +0.000 HD
ENDBRANCH  12  14
ENDBRANCH   5  12
TORSDOF 4
ENDMDL
MODEL 9
REMARK VINA RESULT:      -6.0      1.964      3.455
REMARK  Name = 
REMARK  6 active torsions:
REMARK  status: ('A' for Active; 'I' for Inactive)
REMARK    1  A    between atoms: C_1  and  C_2
REMARK    2  A    between atoms: C_2  and  C_3
REMARK    3  A    between atoms: C_2  and  C_4
REMARK    4  A    between atoms: C_7  and  O_8
REMARK    5  A    between atoms: C_9  and  C_10
REMARK    6  A    between atoms: C_10  and  O_12
REMARK                            x       y       z     vdW  Elec       q    Type
REMARK                         _______ _______ _______ _____ _____    ______ ____
ROOT
ATOM      1  C   UNL     1       4.118   4.270  17.016  0.00  0.00    +0.000 A 
ATOM      2  C   UNL     1       4.515   5.189  17.996  0.00  0.00    +0.000 A 
ATOM      3  C   UNL     1       5.659   5.971  17.822  0.00  0.00    +0.000 A 
ATOM      4  C   UNL     1       6.421   5.841  16.660  0.00  0.00    +0.000 A 
ATOM      5  C   UNL     1       6.057   4.924  15.666  0.00  0.00    +0.000 A 
ATOM      6  C   UNL     1       4.905   4.144  15.858  0.00  0.00    +0.000 A 
ENDROOT
BRANCH   1   8
ATOM      7  C   UNL     1       3.144   2.181  18.052  0.00  0.00    +0.000 C 
ATOM      8  C   UNL     1       2.864   3.435  17.217  0.00  0.00    +0.000 C 
ATOM      9  C   UNL     1       1.739   4.263  17.840  0.00  0.00    +0.000 C 
ENDBRANCH   1   8
BRANCH   4  10
ATOM     10  O   UNL     1       7.535   6.627  16.499  0.00  0.00    +0.000 OA
ATOM     11  H   UNL     1       7.934   6.423  15.632  0.00  0.00    +0.000 HD
ENDBRANCH   4  10
BRANCH   5  12
ATOM     12  C   UNL     1       6.812   4.715  14.395  0.00  0.00    +0.000 C 
ATOM     13  O   UNL     1       6.488   3.880  13.564  0.00  0.00    +0.000 OA
BRANCH  12  14
ATOM     14  O   UNL     1       7.884   5.519  14.222  0.00  0.00    +0.000 OA
ATOM     15  H   UNL     1       7.685   6.279  13.630  0.00  0.00    +0.000 HD
ENDBRANCH  12  14
ENDBRANCH   5  12
TORSDOF 4
ENDMDL
