MODEL 1
REMARK VINA RESULT:      -8.4      0.000      0.000
REMARK  Name = 
REMARK  11 active torsions:
REMARK  status: ('A' for Active; 'I' for Inactive)
REMARK    1  A    between atoms: P_2  and  O_3
REMARK    2  A    between atoms: P_2  and  O_4
REMARK    3  A    between atoms: P_2  and  C_5
REMARK    4  A    between atoms: C_5  and  O_6
REMARK    5  A    between atoms: C_5  and  C_7
REMARK    6  A    between atoms: C_5  and  P_26
REMARK    7  A    between atoms: C_7  and  N_8
REMARK    8  A    between atoms: C_12  and  C_13
REMARK    9  A    between atoms: C_17  and  C_18
REMARK   10  A    between atoms: P_26  and  O_28
REMARK   11  A    between atoms: P_26  and  O_29
REMARK                            x       y       z     vdW  Elec       q    Type
REMARK                         _______ _______ _______ _____ _____    ______ ____
ROOT
ATOM      1  N   UNL     1       4.597   4.645  18.682  0.00  0.00    +0.000 N 
ATOM      2  C   UNL     1       3.780   3.604  18.346  0.00  0.00    +0.000 A 
ATOM      3  C   UNL     1       2.452   3.819  18.044  0.00  0.00    +0.000 A 
ATOM      4  C   UNL     1       1.934   5.112  18.077  0.00  0.00    +0.000 A 
ATOM      5  C   UNL     1       2.733   6.174  18.481  0.00  0.00    +0.000 A 
ATOM      6  C   UNL     1       4.070   5.888  18.828  0.00  0.00    +0.000 A 
ENDROOT
BRANCH   5   7
ATOM      7  C   UNL     1       2.243   7.569  18.532  0.00  0.00    +0.000 A 
ATOM      8  C   UNL     1       2.547   8.502  17.524  0.00  0.00    +0.000 A 
ATOM      9  C   UNL     1       2.157   9.838  17.635  0.00  0.00    +0.000 A 
ATOM     10  C   UNL     1       1.433  10.260  18.748  0.00  0.00    +0.000 A 
ATOM     11  C   UNL     1       1.067   9.359  19.758  0.00  0.00    +0.000 A 
ATOM     12  C   UNL     1       1.481   8.018  19.618  0.00  0.00    +0.000 A 
BRANCH  11  13
ATOM     13  C   UNL     1       0.310   9.795  20.952  0.00  0.00    +0.000 A 
ATOM     14  C   UNL     1       0.324   9.037  22.139  0.00  0.00    +0.000 A 
ATOM     15  C   UNL     1      -0.351   9.462  23.284  0.00  0.00    +0.000 A 
ATOM     16  C   UNL     1      -1.076  10.646  23.262  0.00  0.00    +0.000 A 
ATOM     17  C   UNL     1      -1.118  11.412  22.101  0.00  0.00    +0.000 A 
ATOM     18  C   UNL     1      -0.427  10.987  20.961  0.00  0.00    +0.000 A 
ENDBRANCH  11  13
ENDBRANCH   5   7
BRANCH   1  19
ATOM     19  C   UNL     1       6.108   4.469  18.682  0.00  0.00    +0.000 C 
BRANCH  19  20
ATOM     20  C   UNL     1       6.824   5.084  17.454  0.00  0.00    +0.000 C 
BRANCH  20  22
ATOM     21  O   UNL     1       7.223   8.426  17.743  0.00  0.00    +0.000 OA
ATOM     22  P   UNL     1       7.040   6.894  17.610  0.00  0.00    +0.000 P 
BRANCH  22  23
ATOM     23  O   UNL     1       8.095   6.873  16.357  0.00  0.00    +0.000 OA
ATOM     24  H   UNL     1       8.168   5.940  16.040  0.00  0.00    +0.000 HD
ENDBRANCH  22  23
BRANCH  22  25
ATOM     25  O   UNL     1       8.206   6.669  18.759  0.00  0.00    +0.000 OA
ATOM     26  H   UNL     1       9.011   6.356  18.279  0.00  0.00    +0.000 HD
ENDBRANCH  22  25
ENDBRANCH  20  22
BRANCH  20  27
ATOM     27  O   UNL     1       8.153   4.461  17.375  0.00  0.00    +0.000 OA
ATOM     28  H   UNL     1       8.722   4.973  18.002  0.00  0.00    +0.000 HD
ENDBRANCH  20  27
BRANCH  20  29
ATOM     29  P   UNL     1       5.969   4.706  15.881  0.00  0.00    +0.000 P 
ATOM     30  O   UNL     1       5.535   6.144  15.622  0.00  0.00    +0.000 OA
BRANCH  29  31
ATOM     31  O   UNL     1       7.408   4.540  15.106  0.00  0.00    +0.000 OA
ATOM     32  H   UNL     1       7.988   5.311  15.265  0.00  0.00    +0.000 HD
ENDBRANCH  29  31
BRANCH  29  33
ATOM     33  O   UNL     1       5.161   4.349  14.394  0.00  0.00    +0.000 OA
ATOM     34  H   UNL     1       4.788   3.446  14.498  0.00  0.00    +0.000 HD
ENDBRANCH  29  33
ENDBRANCH  20  29
ENDBRANCH  19  20
ENDBRANCH   1  19
TORSDOF 11
ENDMDL
MODEL 2
REMARK VINA RESULT:      -8.4      4.188      5.159
REMARK  Name = 
REMARK  11 active torsions:
REMARK  status: ('A' for Active; 'I' for Inactive)
REMARK    1  A    between atoms: P_2  and  O_3
REMARK    2  A    between atoms: P_2  and  O_4
REMARK    3  A    between atoms: P_2  and  C_5
REMARK    4  A    between atoms: C_5  and  O_6
REMARK    5  A    between atoms: C_5  and  C_7
REMARK    6  A    between atoms: C_5  and  P_26
REMARK    7  A    between atoms: C_7  and  N_8
REMARK    8  A    between atoms: C_12  and  C_13
REMARK    9  A    between atoms: C_17  and  C_18
REMARK   10  A    between atoms: P_26  and  O_28
REMARK   11  A    between atoms: P_26  and  O_29
REMARK                            x       y       z     vdW  Elec       q    Type
REMARK                         _______ _______ _______ _____ _____    ______ ____
ROOT
ATOM      1  N   UNL     1       3.340   5.824  18.849  0.00  0.00    +0.000 N 
ATOM      2  C   UNL     1       4.152   6.102  17.787  0.00  0.00    +0.000 A 
ATOM      3  C   UNL     1       4.067   7.313  17.131  0.00  0.00    +0.000 A 
ATOM      4  C   UNL     1       3.145   8.268  17.557  0.00  0.00    +0.000 A 
ATOM      5  C   UNL     1       2.267   7.977  18.593  0.00  0.00    +0.000 A 
ATOM      6  C   UNL     1       2.365   6.704  19.193  0.00  0.00    +0.000 A 
ENDROOT
BRANCH   5   7
ATOM      7  C   UNL     1       1.271   8.950  19.093  0.00  0.00    +0.000 A 
ATOM      8  C   UNL     1       1.343   9.489  20.391  0.00  0.00    +0.000 A 
ATOM      9  C   UNL     1       0.343  10.332  20.879  0.00  0.00    +0.000 A 
ATOM     10  C   UNL     1      -0.737  10.671  20.067  0.00  0.00    +0.000 A 
ATOM     11  C   UNL     1      -0.833  10.195  18.752  0.00  0.00    +0.000 A 
ATOM     12  C   UNL     1       0.192   9.342  18.291  0.00  0.00    +0.000 A 
BRANCH  11  13
ATOM     13  C   UNL     1      -1.981  10.535  17.883  0.00  0.00    +0.000 A 
ATOM     14  C   UNL     1      -2.084  10.015  16.578  0.00  0.00    +0.000 A 
ATOM     15  C   UNL     1      -3.184  10.296  15.767  0.00  0.00    +0.000 A 
ATOM     16  C   UNL     1      -4.198  11.121  16.233  0.00  0.00    +0.000 A 
ATOM     17  C   UNL     1      -4.119  11.659  17.514  0.00  0.00    +0.000 A 
ATOM     18  C   UNL     1      -3.020  11.364  18.328  0.00  0.00    +0.000 A 
ENDBRANCH  11  13
ENDBRANCH   5   7
BRANCH   1  19
ATOM     19  C   UNL     1       3.654   4.657  19.773  0.00  0.00    +0.000 C 
BRANCH  19  20
ATOM     20  C   UNL     1       2.707   3.443  19.612  0.00  0.00    +0.000 C 
BRANCH  20  22
ATOM     21  O   UNL     1       1.178   2.617  22.509  0.00  0.00    +0.000 OA
ATOM     22  P   UNL     1       1.879   2.995  21.181  0.00  0.00    +0.000 P 
BRANCH  22  23
ATOM     23  O   UNL     1       0.466   3.588  20.601  0.00  0.00    +0.000 OA
ATOM     24  H   UNL     1       0.682   4.253  19.903  0.00  0.00    +0.000 HD
ENDBRANCH  22  23
BRANCH  22  25
ATOM     25  O   UNL     1       2.349   4.429  21.854  0.00  0.00    +0.000 OA
ATOM     26  H   UNL     1       2.869   4.199  22.662  0.00  0.00    +0.000 HD
ENDBRANCH  22  25
ENDBRANCH  20  22
BRANCH  20  27
ATOM     27  O   UNL     1       1.677   3.826  18.635  0.00  0.00    +0.000 OA
ATOM     28  H   UNL     1       0.852   3.966  19.163  0.00  0.00    +0.000 HD
ENDBRANCH  20  27
BRANCH  20  29
ATOM     29  P   UNL     1       3.558   1.973  18.932  0.00  0.00    +0.000 P 
ATOM     30  O   UNL     1       3.271   2.321  17.476  0.00  0.00    +0.000 OA
BRANCH  29  31
ATOM     31  O   UNL     1       5.026   2.637  19.257  0.00  0.00    +0.000 OA
ATOM     32  H   UNL     1       5.753   2.037  18.994  0.00  0.00    +0.000 HD
ENDBRANCH  29  31
BRANCH  29  33
ATOM     33  O   UNL     1       4.363   0.583  18.288  0.00  0.00    +0.000 OA
ATOM     34  H   UNL     1       3.701   0.123  17.725  0.00  0.00    +0.000 HD
ENDBRANCH  29  33
ENDBRANCH  20  29
ENDBRANCH  19  20
ENDBRANCH   1  19
TORSDOF 11
ENDMDL
MODEL 3
REMARK VINA RESULT:      -8.2      1.231      2.737
REMARK  Name = 
REMARK  11 active torsions:
REMARK  status: ('A' for Active; 'I' for Inactive)
REMARK    1  A    between atoms: P_2  and  O_3
REMARK    2  A    between atoms: P_2  and  O_4
REMARK    3  A    between atoms: P_2  and  C_5
REMARK    4  A    between atoms: C_5  and  O_6
REMARK    5  A    between atoms: C_5  and  C_7
REMARK    6  A    between atoms: C_5  and  P_26
REMARK    7  A    between atoms: C_7  and  N_8
REMARK    8  A    between atoms: C_12  and  C_13
REMARK    9  A    between atoms: C_17  and  C_18
REMARK   10  A    between atoms: P_26  and  O_28
REMARK   11  A    between atoms: P_26  and  O_29
REMARK                            x       y       z     vdW  Elec       q    Type
REMARK                         _______ _______ _______ _____ _____    ______ ____
ROOT
ATOM      1  N   UNL     1       3.876   4.977  18.797  0.00  0.00    +0.000 N 
ATOM      2  C   UNL     1       3.406   4.211  19.825  0.00  0.00    +0.000 A 
ATOM      3  C   UNL     1       2.427   4.689  20.670  0.00  0.00    +0.000 A 
ATOM      4  C   UNL     1       1.906   5.966  20.475  0.00  0.00    +0.000 A 
ATOM      5  C   UNL     1       2.418   6.784  19.475  0.00  0.00    +0.000 A 
ATOM      6  C   UNL     1       3.454   6.262  18.674  0.00  0.00    +0.000 A 
ENDROOT
BRANCH   5   7
ATOM      7  C   UNL     1       1.903   8.146  19.215  0.00  0.00    +0.000 A 
ATOM      8  C   UNL     1       2.213   8.847  18.035  0.00  0.00    +0.000 A 
ATOM      9  C   UNL     1       1.797  10.166  17.848  0.00  0.00    +0.000 A 
ATOM     10  C   UNL     1       1.042  10.802  18.831  0.00  0.00    +0.000 A 
ATOM     11  C   UNL     1       0.671  10.133  20.006  0.00  0.00    +0.000 A 
ATOM     12  C   UNL     1       1.110   8.802  20.166  0.00  0.00    +0.000 A 
BRANCH  11  13
ATOM     13  C   UNL     1      -0.119  10.800  21.064  0.00  0.00    +0.000 A 
ATOM     14  C   UNL     1      -0.587  12.119  20.901  0.00  0.00    +0.000 A 
ATOM     15  C   UNL     1      -1.368  12.741  21.876  0.00  0.00    +0.000 A 
ATOM     16  C   UNL     1      -1.683  12.066  23.047  0.00  0.00    +0.000 A 
ATOM     17  C   UNL     1      -1.227  10.766  23.242  0.00  0.00    +0.000 A 
ATOM     18  C   UNL     1      -0.455  10.143  22.256  0.00  0.00    +0.000 A 
ENDBRANCH  11  13
ENDBRANCH   5   7
BRANCH   1  19
ATOM     19  C   UNL     1       4.690   4.346  17.677  0.00  0.00    +0.000 C 
BRANCH  19  20
ATOM     20  C   UNL     1       5.938   5.161  17.257  0.00  0.00    +0.000 C 
BRANCH  20  22
ATOM     21  O   UNL     1       7.214   4.125  14.306  0.00  0.00    +0.000 OA
ATOM     22  P   UNL     1       6.629   4.600  15.659  0.00  0.00    +0.000 P 
BRANCH  22  23
ATOM     23  O   UNL     1       7.518   5.974  15.564  0.00  0.00    +0.000 OA
ATOM     24  H   UNL     1       7.453   6.312  14.638  0.00  0.00    +0.000 HD
ENDBRANCH  22  23
BRANCH  22  25
ATOM     25  O   UNL     1       5.331   5.236  14.859  0.00  0.00    +0.000 OA
ATOM     26  H   UNL     1       4.909   4.485  14.375  0.00  0.00    +0.000 HD
ENDBRANCH  22  25
ENDBRANCH  20  22
BRANCH  20  27
ATOM     27  O   UNL     1       5.510   6.561  17.114  0.00  0.00    +0.000 OA
ATOM     28  H   UNL     1       6.054   7.070  17.764  0.00  0.00    +0.000 HD
ENDBRANCH  20  27
BRANCH  20  29
ATOM     29  P   UNL     1       7.252   5.139  18.531  0.00  0.00    +0.000 P 
ATOM     30  O   UNL     1       8.199   4.260  17.722  0.00  0.00    +0.000 OA
BRANCH  29  31
ATOM     31  O   UNL     1       7.673   6.684  18.164  0.00  0.00    +0.000 OA
ATOM     32  H   UNL     1       6.904   7.285  18.221  0.00  0.00    +0.000 HD
ENDBRANCH  29  31
BRANCH  29  33
ATOM     33  O   UNL     1       8.495   5.117  19.734  0.00  0.00    +0.000 OA
ATOM     34  H   UNL     1       9.043   4.325  19.543  0.00  0.00    +0.000 HD
ENDBRANCH  29  33
ENDBRANCH  20  29
ENDBRANCH  19  20
ENDBRANCH   1  19
TORSDOF 11
ENDMDL
MODEL 4
REMARK VINA RESULT:      -8.1      1.512      2.230
REMARK  Name = 
REMARK  11 active torsions:
REMARK  status: ('A' for Active; 'I' for Inactive)
REMARK    1  A    between atoms: P_2  and  O_3
REMARK    2  A    between atoms: P_2  and  O_4
REMARK    3  A    between atoms: P_2  and  C_5
REMARK    4  A    between atoms: C_5  and  O_6
REMARK    5  A    between atoms: C_5  and  C_7
REMARK    6  A    between atoms: C_5  and  P_26
REMARK    7  A    between atoms: C_7  and  N_8
REMARK    8  A    between atoms: C_12  and  C_13
REMARK    9  A    between atoms: C_17  and  C_18
REMARK   10  A    between atoms: P_26  and  O_28
REMARK   11  A    between atoms: P_26  and  O_29
REMARK                            x       y       z     vdW  Elec       q    Type
REMARK                         _______ _______ _______ _____ _____    ______ ____
ROOT
ATOM      1  N   UNL     1       3.263   4.743  18.811  0.00  0.00    +0.000 N 
ATOM      2  C   UNL     1       2.835   4.088  19.930  0.00  0.00    +0.000 A 
ATOM      3  C   UNL     1       2.031   4.721  20.854  0.00  0.00    +0.000 A 
ATOM      4  C   UNL     1       1.645   6.044  20.646  0.00  0.00    +0.000 A 
ATOM      5  C   UNL     1       2.125   6.746  19.547  0.00  0.00    +0.000 A 
ATOM      6  C   UNL     1       2.986   6.063  18.662  0.00  0.00    +0.000 A 
ENDROOT
BRANCH   5   7
ATOM      7  C   UNL     1       1.748   8.149  19.269  0.00  0.00    +0.000 A 
ATOM      8  C   UNL     1       2.244   8.847  18.153  0.00  0.00    +0.000 A 
ATOM      9  C   UNL     1       1.953  10.198  17.957  0.00  0.00    +0.000 A 
ATOM     10  C   UNL     1       1.140  10.872  18.866  0.00  0.00    +0.000 A 
ATOM     11  C   UNL     1       0.585  10.210  19.970  0.00  0.00    +0.000 A 
ATOM     12  C   UNL     1       0.902   8.846  20.141  0.00  0.00    +0.000 A 
BRANCH  11  13
ATOM     13  C   UNL     1      -0.269  10.916  20.951  0.00  0.00    +0.000 A 
ATOM     14  C   UNL     1      -0.941  12.105  20.607  0.00  0.00    +0.000 A 
ATOM     15  C   UNL     1      -1.783  12.754  21.510  0.00  0.00    +0.000 A 
ATOM     16  C   UNL     1      -1.957  12.241  22.788  0.00  0.00    +0.000 A 
ATOM     17  C   UNL     1      -1.298  11.074  23.161  0.00  0.00    +0.000 A 
ATOM     18  C   UNL     1      -0.466  10.420  22.247  0.00  0.00    +0.000 A 
ENDBRANCH  11  13
ENDBRANCH   5   7
BRANCH   1  19
ATOM     19  C   UNL     1       3.852   3.966  17.643  0.00  0.00    +0.000 C 
BRANCH  19  20
ATOM     20  C   UNL     1       5.261   4.440  17.206  0.00  0.00    +0.000 C 
BRANCH  20  22
ATOM     21  O   UNL     1       7.204   5.284  19.837  0.00  0.00    +0.000 OA
ATOM     22  P   UNL     1       6.314   4.897  18.631  0.00  0.00    +0.000 P 
BRANCH  22  23
ATOM     23  O   UNL     1       7.619   4.271  17.864  0.00  0.00    +0.000 OA
ATOM     24  H   UNL     1       7.817   4.848  17.087  0.00  0.00    +0.000 HD
ENDBRANCH  22  23
BRANCH  22  25
ATOM     25  O   UNL     1       5.924   3.482  19.390  0.00  0.00    +0.000 OA
ATOM     26  H   UNL     1       6.764   2.968  19.467  0.00  0.00    +0.000 HD
ENDBRANCH  22  25
ENDBRANCH  20  22
BRANCH  20  27
ATOM     27  O   UNL     1       5.894   3.314  16.502  0.00  0.00    +0.000 OA
ATOM     28  H   UNL     1       5.499   3.317  15.594  0.00  0.00    +0.000 HD
ENDBRANCH  20  27
BRANCH  20  29
ATOM     29  P   UNL     1       5.198   5.834  16.023  0.00  0.00    +0.000 P 
ATOM     30  O   UNL     1       6.516   6.448  16.478  0.00  0.00    +0.000 OA
BRANCH  29  31
ATOM     31  O   UNL     1       5.590   4.835  14.779  0.00  0.00    +0.000 OA
ATOM     32  H   UNL     1       6.121   5.301  14.103  0.00  0.00    +0.000 HD
ENDBRANCH  29  31
BRANCH  29  33
ATOM     33  O   UNL     1       5.138   7.153  14.905  0.00  0.00    +0.000 OA
ATOM     34  H   UNL     1       5.746   7.838  15.262  0.00  0.00    +0.000 HD
ENDBRANCH  29  33
ENDBRANCH  20  29
ENDBRANCH  19  20
ENDBRANCH   1  19
TORSDOF 11
ENDMDL
MODEL 5
REMARK VINA RESULT:      -7.9      1.559      2.412
REMARK  Name = 
REMARK  11 active torsions:
REMARK  status: ('A' for Active; 'I' for Inactive)
REMARK    1  A    between atoms: P_2  and  O_3
REMARK    2  A    between atoms: P_2  and  O_4
REMARK    3  A    between atoms: P_2  and  C_5
REMARK    4  A    between atoms: C_5  and  O_6
REMARK    5  A    between atoms: C_5  and  C_7
REMARK    6  A    between atoms: C_5  and  P_26
REMARK    7  A    between atoms: C_7  and  N_8
REMARK    8  A    between atoms: C_12  and  C_13
REMARK    9  A    between atoms: C_17  and  C_18
REMARK   10  A    between atoms: P_26  and  O_28
REMARK   11  A    between atoms: P_26  and  O_29
REMARK                            x       y       z     vdW  Elec       q    Type
REMARK                         _______ _______ _______ _____ _____    ______ ____
ROOT
ATOM      1  N   UNL     1       3.504   5.819  18.042  0.00  0.00    +0.000 N 
ATOM      2  C   UNL     1       3.168   4.987  19.071  0.00  0.00    +0.000 A 
ATOM      3  C   UNL     1       2.348   5.422  20.091  0.00  0.00    +0.000 A 
ATOM      4  C   UNL     1       1.853   6.724  20.075  0.00  0.00    +0.000 A 
ATOM      5  C   UNL     1       2.238   7.605  19.071  0.00  0.00    +0.000 A 
ATOM      6  C   UNL     1       3.119   7.120  18.082  0.00  0.00    +0.000 A 
ENDROOT
BRANCH   5   7
ATOM      7  C   UNL     1       1.742   8.996  18.996  0.00  0.00    +0.000 A 
ATOM      8  C   UNL     1       2.217   9.905  18.034  0.00  0.00    +0.000 A 
ATOM      9  C   UNL     1       1.809  11.240  18.037  0.00  0.00    +0.000 A 
ATOM     10  C   UNL     1       0.898  11.686  18.992  0.00  0.00    +0.000 A 
ATOM     11  C   UNL     1       0.362  10.809  19.946  0.00  0.00    +0.000 A 
ATOM     12  C   UNL     1       0.798   9.468  19.918  0.00  0.00    +0.000 A 
BRANCH  11  13
ATOM     13  C   UNL     1      -0.596  11.270  20.975  0.00  0.00    +0.000 A 
ATOM     14  C   UNL     1      -1.601  12.207  20.665  0.00  0.00    +0.000 A 
ATOM     15  C   UNL     1      -2.535  12.616  21.617  0.00  0.00    +0.000 A 
ATOM     16  C   UNL     1      -2.474  12.113  22.909  0.00  0.00    +0.000 A 
ATOM     17  C   UNL     1      -1.486  11.194  23.249  0.00  0.00    +0.000 A 
ATOM     18  C   UNL     1      -0.560  10.778  22.287  0.00  0.00    +0.000 A 
ENDBRANCH  11  13
ENDBRANCH   5   7
BRANCH   1  19
ATOM     19  C   UNL     1       4.112   5.258  16.766  0.00  0.00    +0.000 C 
BRANCH  19  20
ATOM     20  C   UNL     1       5.474   4.548  16.965  0.00  0.00    +0.000 C 
BRANCH  20  22
ATOM     21  O   UNL     1       6.839   5.214  19.982  0.00  0.00    +0.000 OA
ATOM     22  P   UNL     1       6.214   4.909  18.599  0.00  0.00    +0.000 P 
BRANCH  22  23
ATOM     23  O   UNL     1       7.667   4.382  18.054  0.00  0.00    +0.000 OA
ATOM     24  H   UNL     1       7.514   3.908  17.201  0.00  0.00    +0.000 HD
ENDBRANCH  22  23
BRANCH  22  25
ATOM     25  O   UNL     1       5.743   3.425  19.154  0.00  0.00    +0.000 OA
ATOM     26  H   UNL     1       5.847   2.800  18.395  0.00  0.00    +0.000 HD
ENDBRANCH  22  25
ENDBRANCH  20  22
BRANCH  20  27
ATOM     27  O   UNL     1       5.223   3.102  16.876  0.00  0.00    +0.000 OA
ATOM     28  H   UNL     1       5.988   2.673  17.334  0.00  0.00    +0.000 HD
ENDBRANCH  20  27
BRANCH  20  29
ATOM     29  P   UNL     1       6.678   4.957  15.648  0.00  0.00    +0.000 P 
ATOM     30  O   UNL     1       5.648   4.941  14.524  0.00  0.00    +0.000 OA
BRANCH  29  31
ATOM     31  O   UNL     1       6.746   6.518  16.154  0.00  0.00    +0.000 OA
ATOM     32  H   UNL     1       6.805   7.135  15.397  0.00  0.00    +0.000 HD
ENDBRANCH  29  31
BRANCH  29  33
ATOM     33  O   UNL     1       7.815   5.342  14.402  0.00  0.00    +0.000 OA
ATOM     34  H   UNL     1       7.983   4.502  13.920  0.00  0.00    +0.000 HD
ENDBRANCH  29  33
ENDBRANCH  20  29
ENDBRANCH  19  20
ENDBRANCH   1  19
TORSDOF 11
ENDMDL
MODEL 6
REMARK VINA RESULT:      -7.9      1.253      1.673
REMARK  Name = 
REMARK  11 active torsions:
REMARK  status: ('A' for Active; 'I' for Inactive)
REMARK    1  A    between atoms: P_2  and  O_3
REMARK    2  A    between atoms: P_2  and  O_4
REMARK    3  A    between atoms: P_2  and  C_5
REMARK    4  A    between atoms: C_5  and  O_6
REMARK    5  A    between atoms: C_5  and  C_7
REMARK    6  A    between atoms: C_5  and  P_26
REMARK    7  A    between atoms: C_7  and  N_8
REMARK    8  A    between atoms: C_12  and  C_13
REMARK    9  A    between atoms: C_17  and  C_18
REMARK   10  A    between atoms: P_26  and  O_28
REMARK   11  A    between atoms: P_26  and  O_29
REMARK                            x       y       z     vdW  Elec       q    Type
REMARK                         _______ _______ _______ _____ _____    ______ ____
ROOT
ATOM      1  N   UNL     1       3.900   4.373  18.927  0.00  0.00    +0.000 N 
ATOM      2  C   UNL     1       3.392   3.635  19.958  0.00  0.00    +0.000 A 
ATOM      3  C   UNL     1       2.406   4.147  20.774  0.00  0.00    +0.000 A 
ATOM      4  C   UNL     1       1.917   5.433  20.547  0.00  0.00    +0.000 A 
ATOM      5  C   UNL     1       2.468   6.222  19.545  0.00  0.00    +0.000 A 
ATOM      6  C   UNL     1       3.509   5.664  18.775  0.00  0.00    +0.000 A 
ENDROOT
BRANCH   5   7
ATOM      7  C   UNL     1       1.989   7.591  19.252  0.00  0.00    +0.000 A 
ATOM      8  C   UNL     1       2.365   8.277  18.084  0.00  0.00    +0.000 A 
ATOM      9  C   UNL     1       1.981   9.602  17.869  0.00  0.00    +0.000 A 
ATOM     10  C   UNL     1       1.192  10.258  18.811  0.00  0.00    +0.000 A 
ATOM     11  C   UNL     1       0.755   9.604  19.971  0.00  0.00    +0.000 A 
ATOM     12  C   UNL     1       1.164   8.267  20.160  0.00  0.00    +0.000 A 
BRANCH  11  13
ATOM     13  C   UNL     1      -0.072  10.292  20.987  0.00  0.00    +0.000 A 
ATOM     14  C   UNL     1      -0.247   9.745  22.274  0.00  0.00    +0.000 A 
ATOM     15  C   UNL     1      -0.989  10.407  23.252  0.00  0.00    +0.000 A 
ATOM     16  C   UNL     1      -1.593  11.623  22.961  0.00  0.00    +0.000 A 
ATOM     17  C   UNL     1      -1.448  12.183  21.695  0.00  0.00    +0.000 A 
ATOM     18  C   UNL     1      -0.691  11.521  20.722  0.00  0.00    +0.000 A 
ENDBRANCH  11  13
ENDBRANCH   5   7
BRANCH   1  19
ATOM     19  C   UNL     1       4.722   3.706  17.835  0.00  0.00    +0.000 C 
BRANCH  19  20
ATOM     20  C   UNL     1       5.988   4.495  17.417  0.00  0.00    +0.000 C 
BRANCH  20  22
ATOM     21  O   UNL     1       7.712   5.660  20.076  0.00  0.00    +0.000 OA
ATOM     22  P   UNL     1       6.922   5.126  18.857  0.00  0.00    +0.000 P 
BRANCH  22  23
ATOM     23  O   UNL     1       7.170   6.543  18.072  0.00  0.00    +0.000 OA
ATOM     24  H   UNL     1       6.455   6.642  17.397  0.00  0.00    +0.000 HD
ENDBRANCH  22  23
BRANCH  22  25
ATOM     25  O   UNL     1       8.304   4.423  18.286  0.00  0.00    +0.000 OA
ATOM     26  H   UNL     1       8.042   3.533  17.946  0.00  0.00    +0.000 HD
ENDBRANCH  22  25
ENDBRANCH  20  22
BRANCH  20  27
ATOM     27  O   UNL     1       6.850   3.562  16.675  0.00  0.00    +0.000 OA
ATOM     28  H   UNL     1       7.428   3.139  17.357  0.00  0.00    +0.000 HD
ENDBRANCH  20  27
BRANCH  20  29
ATOM     29  P   UNL     1       5.609   5.879  16.281  0.00  0.00    +0.000 P 
ATOM     30  O   UNL     1       6.915   5.769  15.505  0.00  0.00    +0.000 OA
BRANCH  29  31
ATOM     31  O   UNL     1       4.534   4.948  15.458  0.00  0.00    +0.000 OA
ATOM     32  H   UNL     1       3.634   5.329  15.494  0.00  0.00    +0.000 HD
ENDBRANCH  29  31
BRANCH  29  33
ATOM     33  O   UNL     1       5.251   7.188  15.208  0.00  0.00    +0.000 OA
ATOM     34  H   UNL     1       4.701   7.819  15.723  0.00  0.00    +0.000 HD
ENDBRANCH  29  33
ENDBRANCH  20  29
ENDBRANCH  19  20
ENDBRANCH   1  19
TORSDOF 11
ENDMDL
MODEL 7
REMARK VINA RESULT:      -7.8      0.756      1.170
REMARK  Name = 
REMARK  11 active torsions:
REMARK  status: ('A' for Active; 'I' for Inactive)
REMARK    1  A    between atoms: P_2  and  O_3
REMARK    2  A    between atoms: P_2  and  O_4
REMARK    3  A    between atoms: P_2  and  C_5
REMARK    4  A    between atoms: C_5  and  O_6
REMARK    5  A    between atoms: C_5  and  C_7
REMARK    6  A    between atoms: C_5  and  P_26
REMARK    7  A    between atoms: C_7  and  N_8
REMARK    8  A    between atoms: C_12  and  C_13
REMARK    9  A    between atoms: C_17  and  C_18
REMARK   10  A    between atoms: P_26  and  O_28
REMARK   11  A    between atoms: P_26  and  O_29
REMARK                            x       y       z     vdW  Elec       q    Type
REMARK                         _______ _______ _______ _____ _____    ______ ____
ROOT
ATOM      1  N   UNL     1       4.625   4.881  19.510  0.00  0.00    +0.000 N 
ATOM      2  C   UNL     1       3.826   3.775  19.567  0.00  0.00    +0.000 A 
ATOM      3  C   UNL     1       2.458   3.885  19.436  0.00  0.00    +0.000 A 
ATOM      4  C   UNL     1       1.879   5.138  19.241  0.00  0.00    +0.000 A 
ATOM      5  C   UNL     1       2.670   6.281  19.246  0.00  0.00    +0.000 A 
ATOM      6  C   UNL     1       4.058   6.112  19.435  0.00  0.00    +0.000 A 
ENDROOT
BRANCH   5   7
ATOM      7  C   UNL     1       2.116   7.636  19.038  0.00  0.00    +0.000 A 
ATOM      8  C   UNL     1       2.378   8.377  17.871  0.00  0.00    +0.000 A 
ATOM      9  C   UNL     1       1.926   9.690  17.733  0.00  0.00    +0.000 A 
ATOM     10  C   UNL     1       1.183  10.281  18.753  0.00  0.00    +0.000 A 
ATOM     11  C   UNL     1       0.859   9.570  19.917  0.00  0.00    +0.000 A 
ATOM     12  C   UNL     1       1.334   8.247  20.027  0.00  0.00    +0.000 A 
BRANCH  11  13
ATOM     13  C   UNL     1       0.082  10.188  21.014  0.00  0.00    +0.000 A 
ATOM     14  C   UNL     1      -0.548  11.437  20.846  0.00  0.00    +0.000 A 
ATOM     15  C   UNL     1      -1.317  12.007  21.860  0.00  0.00    +0.000 A 
ATOM     16  C   UNL     1      -1.459  11.352  23.076  0.00  0.00    +0.000 A 
ATOM     17  C   UNL     1      -0.840  10.122  23.276  0.00  0.00    +0.000 A 
ATOM     18  C   UNL     1      -0.080   9.549  22.251  0.00  0.00    +0.000 A 
ENDBRANCH  11  13
ENDBRANCH   5   7
BRANCH   1  19
ATOM     19  C   UNL     1       6.126   4.736  19.313  0.00  0.00    +0.000 C 
BRANCH  19  20
ATOM     20  C   UNL     1       6.609   4.992  17.863  0.00  0.00    +0.000 C 
BRANCH  20  22
ATOM     21  O   UNL     1       7.270   8.254  17.289  0.00  0.00    +0.000 OA
ATOM     22  P   UNL     1       6.967   6.759  17.552  0.00  0.00    +0.000 P 
BRANCH  22  23
ATOM     23  O   UNL     1       7.850   6.345  16.235  0.00  0.00    +0.000 OA
ATOM     24  H   UNL     1       8.360   7.142  15.952  0.00  0.00    +0.000 HD
ENDBRANCH  22  23
BRANCH  22  25
ATOM     25  O   UNL     1       8.252   6.695  18.590  0.00  0.00    +0.000 OA
ATOM     26  H   UNL     1       8.342   5.749  18.860  0.00  0.00    +0.000 HD
ENDBRANCH  22  25
ENDBRANCH  20  22
BRANCH  20  27
ATOM     27  O   UNL     1       7.851   4.226  17.682  0.00  0.00    +0.000 OA
ATOM     28  H   UNL     1       8.571   4.901  17.622  0.00  0.00    +0.000 HD
ENDBRANCH  20  27
BRANCH  20  29
ATOM     29  P   UNL     1       5.423   4.381  16.610  0.00  0.00    +0.000 P 
ATOM     30  O   UNL     1       5.181   5.749  15.985  0.00  0.00    +0.000 OA
BRANCH  29  31
ATOM     31  O   UNL     1       6.645   3.714  15.737  0.00  0.00    +0.000 OA
ATOM     32  H   UNL     1       7.297   4.390  15.464  0.00  0.00    +0.000 HD
ENDBRANCH  29  31
BRANCH  29  33
ATOM     33  O   UNL     1       4.302   3.804  15.426  0.00  0.00    +0.000 OA
ATOM     34  H   UNL     1       3.797   4.591  15.124  0.00  0.00    +0.000 HD
ENDBRANCH  29  33
ENDBRANCH  20  29
ENDBRANCH  19  20
ENDBRANCH   1  19
TORSDOF 11
ENDMDL
MODEL 8
REMARK VINA RESULT:      -7.8      1.794      3.209
REMARK  Name = 
REMARK  11 active torsions:
REMARK  status: ('A' for Active; 'I' for Inactive)
REMARK    1  A    between atoms: P_2  and  O_3
REMARK    2  A    between atoms: P_2  and  O_4
REMARK    3  A    between atoms: P_2  and  C_5
REMARK    4  A    between atoms: C_5  and  O_6
REMARK    5  A    between atoms: C_5  and  C_7
REMARK    6  A    between atoms: C_5  and  P_26
REMARK    7  A    between atoms: C_7  and  N_8
REMARK    8  A    between atoms: C_12  and  C_13
REMARK    9  A    between atoms: C_17  and  C_18
REMARK   10  A    between atoms: P_26  and  O_28
REMARK   11  A    between atoms: P_26  and  O_29
REMARK                            x       y       z     vdW  Elec       q    Type
REMARK                         _______ _______ _______ _____ _____    ______ ____
ROOT
ATOM      1  N   UNL     1       3.451   5.469  18.650  0.00  0.00    +0.000 N 
ATOM      2  C   UNL     1       3.138   4.247  19.174  0.00  0.00    +0.000 A 
ATOM      3  C   UNL     1       2.194   4.127  20.172  0.00  0.00    +0.000 A 
ATOM      4  C   UNL     1       1.548   5.264  20.654  0.00  0.00    +0.000 A 
ATOM      5  C   UNL     1       1.900   6.521  20.180  0.00  0.00    +0.000 A 
ATOM      6  C   UNL     1       2.908   6.587  19.196  0.00  0.00    +0.000 A 
ENDROOT
BRANCH   5   7
ATOM      7  C   UNL     1       1.247   7.763  20.647  0.00  0.00    +0.000 A 
ATOM      8  C   UNL     1       0.304   7.761  21.691  0.00  0.00    +0.000 A 
ATOM      9  C   UNL     1      -0.373   8.927  22.055  0.00  0.00    +0.000 A 
ATOM     10  C   UNL     1      -0.101  10.123  21.396  0.00  0.00    +0.000 A 
ATOM     11  C   UNL     1       0.862  10.187  20.378  0.00  0.00    +0.000 A 
ATOM     12  C   UNL     1       1.525   8.991  20.031  0.00  0.00    +0.000 A 
BRANCH  11  13
ATOM     13  C   UNL     1       1.152  11.447  19.660  0.00  0.00    +0.000 A 
ATOM     14  C   UNL     1       0.546  12.659  20.044  0.00  0.00    +0.000 A 
ATOM     15  C   UNL     1       0.846  13.860  19.400  0.00  0.00    +0.000 A 
ATOM     16  C   UNL     1       1.744  13.874  18.341  0.00  0.00    +0.000 A 
ATOM     17  C   UNL     1       2.350  12.691  17.931  0.00  0.00    +0.000 A 
ATOM     18  C   UNL     1       2.056  11.492  18.589  0.00  0.00    +0.000 A 
ENDBRANCH  11  13
ENDBRANCH   5   7
BRANCH   1  19
ATOM     19  C   UNL     1       4.221   5.571  17.343  0.00  0.00    +0.000 C 
BRANCH  19  20
ATOM     20  C   UNL     1       5.573   4.816  17.336  0.00  0.00    +0.000 C 
BRANCH  20  22
ATOM     21  O   UNL     1       7.424   5.471  20.084  0.00  0.00    +0.000 OA
ATOM     22  P   UNL     1       6.576   5.171  18.825  0.00  0.00    +0.000 P 
BRANCH  22  23
ATOM     23  O   UNL     1       7.122   6.548  18.125  0.00  0.00    +0.000 OA
ATOM     24  H   UNL     1       6.562   7.294  18.452  0.00  0.00    +0.000 HD
ENDBRANCH  22  23
BRANCH  22  25
ATOM     25  O   UNL     1       7.805   4.236  18.236  0.00  0.00    +0.000 OA
ATOM     26  H   UNL     1       7.491   3.879  17.369  0.00  0.00    +0.000 HD
ENDBRANCH  22  25
ENDBRANCH  20  22
BRANCH  20  27
ATOM     27  O   UNL     1       5.262   3.378  17.315  0.00  0.00    +0.000 OA
ATOM     28  H   UNL     1       4.432   3.296  16.784  0.00  0.00    +0.000 HD
ENDBRANCH  20  27
BRANCH  20  29
ATOM     29  P   UNL     1       6.564   5.163  15.837  0.00  0.00    +0.000 P 
ATOM     30  O   UNL     1       6.034   3.967  15.054  0.00  0.00    +0.000 OA
BRANCH  29  31
ATOM     31  O   UNL     1       5.577   6.415  15.439  0.00  0.00    +0.000 OA
ATOM     32  H   UNL     1       5.765   6.742  14.537  0.00  0.00    +0.000 HD
ENDBRANCH  29  31
BRANCH  29  33
ATOM     33  O   UNL     1       7.500   5.490  14.420  0.00  0.00    +0.000 OA
ATOM     34  H   UNL     1       8.376   5.069  14.570  0.00  0.00    +0.000 HD
ENDBRANCH  29  33
ENDBRANCH  20  29
ENDBRANCH  19  20
ENDBRANCH   1  19
TORSDOF 11
ENDMDL
MODEL 9
REMARK VINA RESULT:      -7.8      0.977      1.514
REMARK  Name = 
REMARK  11 active torsions:
REMARK  status: ('A' for Active; 'I' for Inactive)
REMARK    1  A    between atoms: P_2  and  O_3
REMARK    2  A    between atoms: P_2  and  O_4
REMARK    3  A    between atoms: P_2  and  C_5
REMARK    4  A    between atoms: C_5  and  O_6
REMARK    5  A    between atoms: C_5  and  C_7
REMARK    6  A    between atoms: C_5  and  P_26
REMARK    7  A    between atoms: C_7  and  N_8
REMARK    8  A    between atoms: C_12  and  C_13
REMARK    9  A    between atoms: C_17  and  C_18
REMARK   10  A    between atoms: P_26  and  O_28
REMARK   11  A    between atoms: P_26  and  O_29
REMARK                            x       y       z     vdW  Elec       q    Type
REMARK                         _______ _______ _______ _____ _____    ______ ____
ROOT
ATOM      1  N   UNL     1       4.338   4.658  18.184  0.00  0.00    +0.000 N 
ATOM      2  C   UNL     1       4.040   3.839  19.235  0.00  0.00    +0.000 A 
ATOM      3  C   UNL     1       3.144   4.234  20.206  0.00  0.00    +0.000 A 
ATOM      4  C   UNL     1       2.532   5.483  20.116  0.00  0.00    +0.000 A 
ATOM      5  C   UNL     1       2.873   6.356  19.091  0.00  0.00    +0.000 A 
ATOM      6  C   UNL     1       3.833   5.918  18.155  0.00  0.00    +0.000 A 
ENDROOT
BRANCH   5   7
ATOM      7  C   UNL     1       2.254   7.691  18.939  0.00  0.00    +0.000 A 
ATOM      8  C   UNL     1       2.452   8.477  17.790  0.00  0.00    +0.000 A 
ATOM      9  C   UNL     1       1.939   9.772  17.703  0.00  0.00    +0.000 A 
ATOM     10  C   UNL     1       1.197  10.297  18.759  0.00  0.00    +0.000 A 
ATOM     11  C   UNL     1       0.935   9.539  19.909  0.00  0.00    +0.000 A 
ATOM     12  C   UNL     1       1.472   8.235  19.966  0.00  0.00    +0.000 A 
BRANCH  11  13
ATOM     13  C   UNL     1       0.161  10.087  21.044  0.00  0.00    +0.000 A 
ATOM     14  C   UNL     1      -0.481  11.338  20.949  0.00  0.00    +0.000 A 
ATOM     15  C   UNL     1      -1.248  11.844  21.999  0.00  0.00    +0.000 A 
ATOM     16  C   UNL     1      -1.375  11.121  23.177  0.00  0.00    +0.000 A 
ATOM     17  C   UNL     1      -0.744   9.888  23.305  0.00  0.00    +0.000 A 
ATOM     18  C   UNL     1       0.013   9.379  22.244  0.00  0.00    +0.000 A 
ENDBRANCH  11  13
ENDBRANCH   5   7
BRANCH   1  19
ATOM     19  C   UNL     1       5.046   4.107  16.956  0.00  0.00    +0.000 C 
BRANCH  19  20
ATOM     20  C   UNL     1       6.421   4.757  16.665  0.00  0.00    +0.000 C 
BRANCH  20  22
ATOM     21  O   UNL     1       6.630   7.910  17.859  0.00  0.00    +0.000 OA
ATOM     22  P   UNL     1       6.534   6.465  17.311  0.00  0.00    +0.000 P 
BRANCH  22  23
ATOM     23  O   UNL     1       7.820   6.746  16.335  0.00  0.00    +0.000 OA
ATOM     24  H   UNL     1       7.486   7.197  15.521  0.00  0.00    +0.000 HD
ENDBRANCH  22  23
BRANCH  22  25
ATOM     25  O   UNL     1       7.454   5.938  18.579  0.00  0.00    +0.000 OA
ATOM     26  H   UNL     1       7.946   6.727  18.911  0.00  0.00    +0.000 HD
ENDBRANCH  22  25
ENDBRANCH  20  22
BRANCH  20  27
ATOM     27  O   UNL     1       7.437   3.935  17.340  0.00  0.00    +0.000 OA
ATOM     28  H   UNL     1       8.243   4.505  17.396  0.00  0.00    +0.000 HD
ENDBRANCH  20  27
BRANCH  20  29
ATOM     29  P   UNL     1       6.838   4.752  14.883  0.00  0.00    +0.000 P 
ATOM     30  O   UNL     1       6.072   3.470  14.577  0.00  0.00    +0.000 OA
BRANCH  29  31
ATOM     31  O   UNL     1       5.774   5.971  14.601  0.00  0.00    +0.000 OA
ATOM     32  H   UNL     1       4.963   5.867  15.137  0.00  0.00    +0.000 HD
ENDBRANCH  29  31
BRANCH  29  33
ATOM     33  O   UNL     1       7.231   4.745  13.198  0.00  0.00    +0.000 OA
ATOM     34  H   UNL     1       6.932   5.613  12.847  0.00  0.00    +0.000 HD
ENDBRANCH  29  33
ENDBRANCH  20  29
ENDBRANCH  19  20
ENDBRANCH   1  19
TORSDOF 11
ENDMDL
