MODEL 1
REMARK VINA RESULT:      -8.3      0.000      0.000
REMARK  Name = 
REMARK  9 active torsions:
REMARK  status: ('A' for Active; 'I' for Inactive)
REMARK    1  A    between atoms: C_1  and  O_2
REMARK    2  A    between atoms: O_2  and  C_3
REMARK    3  A    between atoms: C_3  and  C_4
REMARK    4  A    between atoms: C_4  and  N_5
REMARK    5  A    between atoms: C_6  and  C_8
REMARK    6  A    between atoms: C_12  and  N_13
REMARK    7  A    between atoms: C_14  and  C_16
REMARK    8  A    between atoms: N_23  and  C_24
REMARK    9  A    between atoms: C_24  and  C_25
REMARK                            x       y       z     vdW  Elec       q    Type
REMARK                         _______ _______ _______ _____ _____    ______ ____
ROOT
ATOM      1  C   UNL     1       3.798   7.211  17.744  0.00  0.00    +0.000 A 
ATOM      2  C   UNL     1       2.973   8.310  17.557  0.00  0.00    +0.000 A 
ATOM      3  C   UNL     1       2.131   8.458  18.681  0.00  0.00    +0.000 A 
ATOM      4  C   UNL     1       1.106   9.373  18.987  0.00  0.00    +0.000 A 
ATOM      5  C   UNL     1       0.405   9.289  20.193  0.00  0.00    +0.000 A 
ATOM      6  C   UNL     1       0.758   8.283  21.096  0.00  0.00    +0.000 A 
ATOM      7  C   UNL     1       1.769   7.343  20.806  0.00  0.00    +0.000 A 
ATOM      8  C   UNL     1       2.450   7.446  19.579  0.00  0.00    +0.000 A 
ATOM      9  N   UNL     1       3.453   6.678  18.986  0.00  0.00    +0.000 N 
ENDROOT
BRANCH   1  11
ATOM     10  N   UNL     1       4.512   5.404  16.353  0.00  0.00    +0.000 N 
ATOM     11  C   UNL     1       4.788   6.674  16.817  0.00  0.00    +0.000 C 
ATOM     12  O   UNL     1       5.794   7.278  16.459  0.00  0.00    +0.000 OA
ATOM     13  H   UNL     1       3.559   5.073  16.421  0.00  0.00    +0.000 HD
BRANCH  10  14
ATOM     14  C   UNL     1       5.321   4.786  15.320  0.00  0.00    +0.000 C 
BRANCH  14  15
ATOM     15  C   UNL     1       6.330   3.799  15.908  0.00  0.00    +0.000 C 
BRANCH  15  17
ATOM     16  C   UNL     1       7.686   4.565  17.684  0.00  0.00    +0.000 C 
ATOM     17  O   UNL     1       7.518   4.512  16.273  0.00  0.00    +0.000 OA
ENDBRANCH  15  17
ENDBRANCH  14  15
ENDBRANCH  10  14
ENDBRANCH   1  11
BRANCH   5  18
ATOM     18  N   UNL     1      -0.647  10.176  20.541  0.00  0.00    +0.000 N 
ATOM     19  C   UNL     1      -0.546  11.301  21.346  0.00  0.00    +0.000 C 
ATOM     20  O   UNL     1       0.505  11.713  21.853  0.00  0.00    +0.000 OA
ATOM     21  H   UNL     1      -1.553   9.972  20.141  0.00  0.00    +0.000 HD
BRANCH  19  22
ATOM     22  C   UNL     1      -1.852  12.082  21.598  0.00  0.00    +0.000 C 
ATOM     23  C   UNL     1      -2.490  12.204  23.004  0.00  0.00    +0.000 C 
ATOM     24  C   UNL     1      -2.848  13.663  22.655  0.00  0.00    +0.000 C 
ATOM     25  C   UNL     1      -1.697  13.632  21.641  0.00  0.00    +0.000 C 
ENDBRANCH  19  22
ENDBRANCH   5  18
BRANCH   9  26
ATOM     26  C   UNL     1       3.919   5.396  19.516  0.00  0.00    +0.000 C 
BRANCH  26  27
ATOM     27  C   UNL     1       2.862   4.317  19.581  0.00  0.00    +0.000 A 
ATOM     28  C   UNL     1       2.213   3.884  18.412  0.00  0.00    +0.000 A 
ATOM     29  C   UNL     1       1.134   2.993  18.472  0.00  0.00    +0.000 A 
ATOM     30  C   UNL     1       0.690   2.522  19.704  0.00  0.00    +0.000 A 
ATOM     31  C   UNL     1       1.344   2.924  20.860  0.00  0.00    +0.000 A 
ATOM     32  F   UNL     1       0.916   2.478  22.049  0.00  0.00    +0.000 F 
ATOM     33  C   UNL     1       2.422   3.804  20.810  0.00  0.00    +0.000 A 
ENDBRANCH  26  27
ENDBRANCH   9  26
TORSDOF 8
ENDMDL
MODEL 2
REMARK VINA RESULT:      -8.2      2.066      2.702
REMARK  Name = 
REMARK  9 active torsions:
REMARK  status: ('A' for Active; 'I' for Inactive)
REMARK    1  A    between atoms: C_1  and  O_2
REMARK    2  A    between atoms: O_2  and  C_3
REMARK    3  A    between atoms: C_3  and  C_4
REMARK    4  A    between atoms: C_4  and  N_5
REMARK    5  A    between atoms: C_6  and  C_8
REMARK    6  A    between atoms: C_12  and  N_13
REMARK    7  A    between atoms: C_14  and  C_16
REMARK    8  A    between atoms: N_23  and  C_24
REMARK    9  A    between atoms: C_24  and  C_25
REMARK                            x       y       z     vdW  Elec       q    Type
REMARK                         _______ _______ _______ _____ _____    ______ ____
ROOT
ATOM      1  C   UNL     1       4.906   5.783  17.057  0.00  0.00    +0.000 A 
ATOM      2  C   UNL     1       4.358   7.005  16.694  0.00  0.00    +0.000 A 
ATOM      3  C   UNL     1       3.461   7.431  17.698  0.00  0.00    +0.000 A 
ATOM      4  C   UNL     1       2.631   8.562  17.813  0.00  0.00    +0.000 A 
ATOM      5  C   UNL     1       1.814   8.742  18.931  0.00  0.00    +0.000 A 
ATOM      6  C   UNL     1       1.853   7.779  19.942  0.00  0.00    +0.000 A 
ATOM      7  C   UNL     1       2.662   6.628  19.844  0.00  0.00    +0.000 A 
ATOM      8  C   UNL     1       3.466   6.469  18.701  0.00  0.00    +0.000 A 
ATOM      9  N   UNL     1       4.334   5.457  18.288  0.00  0.00    +0.000 N 
ENDROOT
BRANCH   1  11
ATOM     10  N   UNL     1       5.419   4.638  15.024  0.00  0.00    +0.000 N 
ATOM     11  C   UNL     1       5.844   4.967  16.295  0.00  0.00    +0.000 C 
ATOM     12  O   UNL     1       6.930   4.587  16.721  0.00  0.00    +0.000 OA
ATOM     13  H   UNL     1       4.690   5.203  14.609  0.00  0.00    +0.000 HD
BRANCH  10  14
ATOM     14  C   UNL     1       6.292   3.953  14.091  0.00  0.00    +0.000 C 
BRANCH  14  15
ATOM     15  C   UNL     1       5.559   3.580  12.802  0.00  0.00    +0.000 C 
BRANCH  15  17
ATOM     16  C   UNL     1       5.928   1.702  11.417  0.00  0.00    +0.000 C 
ATOM     17  O   UNL     1       6.474   2.913  11.924  0.00  0.00    +0.000 OA
ENDBRANCH  15  17
ENDBRANCH  14  15
ENDBRANCH  10  14
ENDBRANCH   1  11
BRANCH   5  18
ATOM     18  N   UNL     1       0.947   9.856  19.086  0.00  0.00    +0.000 N 
ATOM     19  C   UNL     1      -0.183  10.135  18.333  0.00  0.00    +0.000 C 
ATOM     20  O   UNL     1      -0.619   9.417  17.423  0.00  0.00    +0.000 OA
ATOM     21  H   UNL     1       1.171  10.494  19.838  0.00  0.00    +0.000 HD
BRANCH  19  22
ATOM     22  C   UNL     1      -0.938  11.433  18.684  0.00  0.00    +0.000 C 
ATOM     23  C   UNL     1      -2.459  11.603  18.444  0.00  0.00    +0.000 C 
ATOM     24  C   UNL     1      -2.527  12.371  19.781  0.00  0.00    +0.000 C 
ATOM     25  C   UNL     1      -1.253  11.625  20.198  0.00  0.00    +0.000 C 
ENDBRANCH  19  22
ENDBRANCH   5  18
BRANCH   9  26
ATOM     26  C   UNL     1       4.461   4.165  18.963  0.00  0.00    +0.000 C 
BRANCH  26  27
ATOM     27  C   UNL     1       3.148   3.473  19.255  0.00  0.00    +0.000 A 
ATOM     28  C   UNL     1       2.245   3.193  18.215  0.00  0.00    +0.000 A 
ATOM     29  C   UNL     1       0.968   2.686  18.485  0.00  0.00    +0.000 A 
ATOM     30  C   UNL     1       0.577   2.451  19.800  0.00  0.00    +0.000 A 
ATOM     31  C   UNL     1       1.475   2.699  20.829  0.00  0.00    +0.000 A 
ATOM     32  F   UNL     1       1.101   2.480  22.097  0.00  0.00    +0.000 F 
ATOM     33  C   UNL     1       2.749   3.197  20.570  0.00  0.00    +0.000 A 
ENDBRANCH  26  27
ENDBRANCH   9  26
TORSDOF 8
ENDMDL
MODEL 3
REMARK VINA RESULT:      -8.2      1.550      1.761
REMARK  Name = 
REMARK  9 active torsions:
REMARK  status: ('A' for Active; 'I' for Inactive)
REMARK    1  A    between atoms: C_1  and  O_2
REMARK    2  A    between atoms: O_2  and  C_3
REMARK    3  A    between atoms: C_3  and  C_4
REMARK    4  A    between atoms: C_4  and  N_5
REMARK    5  A    between atoms: C_6  and  C_8
REMARK    6  A    between atoms: C_12  and  N_13
REMARK    7  A    between atoms: C_14  and  C_16
REMARK    8  A    between atoms: N_23  and  C_24
REMARK    9  A    between atoms: C_24  and  C_25
REMARK                            x       y       z     vdW  Elec       q    Type
REMARK                         _______ _______ _______ _____ _____    ______ ____
ROOT
ATOM      1  C   UNL     1       3.551   6.945  17.975  0.00  0.00    +0.000 A 
ATOM      2  C   UNL     1       2.834   8.077  17.617  0.00  0.00    +0.000 A 
ATOM      3  C   UNL     1       1.994   8.456  18.688  0.00  0.00    +0.000 A 
ATOM      4  C   UNL     1       1.054   9.493  18.838  0.00  0.00    +0.000 A 
ATOM      5  C   UNL     1       0.333   9.642  20.025  0.00  0.00    +0.000 A 
ATOM      6  C   UNL     1       0.580   8.745  21.067  0.00  0.00    +0.000 A 
ATOM      7  C   UNL     1       1.503   7.687  20.937  0.00  0.00    +0.000 A 
ATOM      8  C   UNL     1       2.206   7.555  19.725  0.00  0.00    +0.000 A 
ATOM      9  N   UNL     1       3.141   6.625  19.270  0.00  0.00    +0.000 N 
ENDROOT
BRANCH   1  11
ATOM     10  N   UNL     1       5.812   6.596  17.290  0.00  0.00    +0.000 N 
ATOM     11  C   UNL     1       4.499   6.197  17.157  0.00  0.00    +0.000 C 
ATOM     12  O   UNL     1       4.184   5.282  16.403  0.00  0.00    +0.000 OA
ATOM     13  H   UNL     1       6.066   7.120  18.117  0.00  0.00    +0.000 HD
BRANCH  10  14
ATOM     14  C   UNL     1       6.891   5.863  16.655  0.00  0.00    +0.000 C 
BRANCH  14  15
ATOM     15  C   UNL     1       7.461   4.786  17.578  0.00  0.00    +0.000 C 
BRANCH  15  17
ATOM     16  C   UNL     1       7.969   5.575  19.746  0.00  0.00    +0.000 C 
ATOM     17  O   UNL     1       6.972   5.007  18.906  0.00  0.00    +0.000 OA
ENDBRANCH  15  17
ENDBRANCH  14  15
ENDBRANCH  10  14
ENDBRANCH   1  11
BRANCH   5  18
ATOM     18  N   UNL     1      -0.637  10.660  20.220  0.00  0.00    +0.000 N 
ATOM     19  C   UNL     1      -0.499  11.792  21.010  0.00  0.00    +0.000 C 
ATOM     20  O   UNL     1       0.523  12.091  21.641  0.00  0.00    +0.000 OA
ATOM     21  H   UNL     1      -1.504  10.553  19.712  0.00  0.00    +0.000 HD
BRANCH  19  22
ATOM     22  C   UNL     1      -1.720  12.732  21.080  0.00  0.00    +0.000 C 
ATOM     23  C   UNL     1      -2.934  12.590  20.128  0.00  0.00    +0.000 C 
ATOM     24  C   UNL     1      -3.843  12.936  21.326  0.00  0.00    +0.000 C 
ATOM     25  C   UNL     1      -2.718  12.433  22.239  0.00  0.00    +0.000 C 
ENDBRANCH  19  22
ENDBRANCH   5  18
BRANCH   9  26
ATOM     26  C   UNL     1       3.480   5.394  19.984  0.00  0.00    +0.000 C 
BRANCH  26  27
ATOM     27  C   UNL     1       2.845   4.141  19.423  0.00  0.00    +0.000 A 
ATOM     28  C   UNL     1       1.446   4.001  19.401  0.00  0.00    +0.000 A 
ATOM     29  C   UNL     1       0.847   2.794  19.022  0.00  0.00    +0.000 A 
ATOM     30  C   UNL     1       1.639   1.709  18.656  0.00  0.00    +0.000 A 
ATOM     31  C   UNL     1       3.020   1.851  18.648  0.00  0.00    +0.000 A 
ATOM     32  F   UNL     1       3.788   0.807  18.303  0.00  0.00    +0.000 F 
ATOM     33  C   UNL     1       3.625   3.049  19.018  0.00  0.00    +0.000 A 
ENDBRANCH  26  27
ENDBRANCH   9  26
TORSDOF 8
ENDMDL
MODEL 4
REMARK VINA RESULT:      -8.1      1.974      2.890
REMARK  Name = 
REMARK  9 active torsions:
REMARK  status: ('A' for Active; 'I' for Inactive)
REMARK    1  A    between atoms: C_1  and  O_2
REMARK    2  A    between atoms: O_2  and  C_3
REMARK    3  A    between atoms: C_3  and  C_4
REMARK    4  A    between atoms: C_4  and  N_5
REMARK    5  A    between atoms: C_6  and  C_8
REMARK    6  A    between atoms: C_12  and  N_13
REMARK    7  A    between atoms: C_14  and  C_16
REMARK    8  A    between atoms: N_23  and  C_24
REMARK    9  A    between atoms: C_24  and  C_25
REMARK                            x       y       z     vdW  Elec       q    Type
REMARK                         _______ _______ _______ _____ _____    ______ ____
ROOT
ATOM      1  C   UNL     1       5.460   5.696  16.695  0.00  0.00    +0.000 A 
ATOM      2  C   UNL     1       4.814   6.884  16.385  0.00  0.00    +0.000 A 
ATOM      3  C   UNL     1       3.868   7.177  17.392  0.00  0.00    +0.000 A 
ATOM      4  C   UNL     1       2.941   8.225  17.549  0.00  0.00    +0.000 A 
ATOM      5  C   UNL     1       2.094   8.274  18.658  0.00  0.00    +0.000 A 
ATOM      6  C   UNL     1       2.201   7.265  19.618  0.00  0.00    +0.000 A 
ATOM      7  C   UNL     1       3.108   6.195  19.477  0.00  0.00    +0.000 A 
ATOM      8  C   UNL     1       3.941   6.166  18.343  0.00  0.00    +0.000 A 
ATOM      9  N   UNL     1       4.899   5.257  17.895  0.00  0.00    +0.000 N 
ENDROOT
BRANCH   1  11
ATOM     10  N   UNL     1       6.133   4.783  14.593  0.00  0.00    +0.000 N 
ATOM     11  C   UNL     1       6.476   5.005  15.910  0.00  0.00    +0.000 C 
ATOM     12  O   UNL     1       7.559   4.639  16.356  0.00  0.00    +0.000 OA
ATOM     13  H   UNL     1       5.396   5.350  14.195  0.00  0.00    +0.000 HD
BRANCH  10  14
ATOM     14  C   UNL     1       7.087   4.235  13.647  0.00  0.00    +0.000 C 
BRANCH  14  15
ATOM     15  C   UNL     1       6.387   3.534  12.482  0.00  0.00    +0.000 C 
BRANCH  15  17
ATOM     16  C   UNL     1       4.260   3.273  11.488  0.00  0.00    +0.000 C 
ATOM     17  O   UNL     1       4.969   3.627  12.669  0.00  0.00    +0.000 OA
ENDBRANCH  15  17
ENDBRANCH  14  15
ENDBRANCH  10  14
ENDBRANCH   1  11
BRANCH   5  18
ATOM     18  N   UNL     1       1.132   9.299  18.854  0.00  0.00    +0.000 N 
ATOM     19  C   UNL     1       0.728   9.832  20.070  0.00  0.00    +0.000 C 
ATOM     20  O   UNL     1       1.186   9.501  21.171  0.00  0.00    +0.000 OA
ATOM     21  H   UNL     1       0.720   9.691  18.018  0.00  0.00    +0.000 HD
BRANCH  19  22
ATOM     22  C   UNL     1      -0.363  10.921  20.013  0.00  0.00    +0.000 C 
ATOM     23  C   UNL     1      -0.103  12.329  19.422  0.00  0.00    +0.000 C 
ATOM     24  C   UNL     1      -1.518  12.273  18.810  0.00  0.00    +0.000 C 
ATOM     25  C   UNL     1      -1.412  10.744  18.875  0.00  0.00    +0.000 C 
ENDBRANCH  19  22
ENDBRANCH   5  18
BRANCH   9  26
ATOM     26  C   UNL     1       5.127   3.946  18.505  0.00  0.00    +0.000 C 
BRANCH  26  27
ATOM     27  C   UNL     1       3.868   3.190  18.869  0.00  0.00    +0.000 A 
ATOM     28  C   UNL     1       2.952   2.811  17.872  0.00  0.00    +0.000 A 
ATOM     29  C   UNL     1       1.717   2.243  18.206  0.00  0.00    +0.000 A 
ATOM     30  C   UNL     1       1.381   2.043  19.542  0.00  0.00    +0.000 A 
ATOM     31  C   UNL     1       2.294   2.390  20.529  0.00  0.00    +0.000 A 
ATOM     32  F   UNL     1       1.972   2.206  21.817  0.00  0.00    +0.000 F 
ATOM     33  C   UNL     1       3.527   2.950  20.207  0.00  0.00    +0.000 A 
ENDBRANCH  26  27
ENDBRANCH   9  26
TORSDOF 8
ENDMDL
MODEL 5
REMARK VINA RESULT:      -8.1      1.514      1.911
REMARK  Name = 
REMARK  9 active torsions:
REMARK  status: ('A' for Active; 'I' for Inactive)
REMARK    1  A    between atoms: C_1  and  O_2
REMARK    2  A    between atoms: O_2  and  C_3
REMARK    3  A    between atoms: C_3  and  C_4
REMARK    4  A    between atoms: C_4  and  N_5
REMARK    5  A    between atoms: C_6  and  C_8
REMARK    6  A    between atoms: C_12  and  N_13
REMARK    7  A    between atoms: C_14  and  C_16
REMARK    8  A    between atoms: N_23  and  C_24
REMARK    9  A    between atoms: C_24  and  C_25
REMARK                            x       y       z     vdW  Elec       q    Type
REMARK                         _______ _______ _______ _____ _____    ______ ____
ROOT
ATOM      1  C   UNL     1       4.544   6.463  17.516  0.00  0.00    +0.000 A 
ATOM      2  C   UNL     1       3.875   7.573  17.023  0.00  0.00    +0.000 A 
ATOM      3  C   UNL     1       2.903   7.986  17.960  0.00  0.00    +0.000 A 
ATOM      4  C   UNL     1       1.947   9.020  17.946  0.00  0.00    +0.000 A 
ATOM      5  C   UNL     1       1.078   9.209  19.023  0.00  0.00    +0.000 A 
ATOM      6  C   UNL     1       1.193   8.357  20.124  0.00  0.00    +0.000 A 
ATOM      7  C   UNL     1       2.129   7.304  20.157  0.00  0.00    +0.000 A 
ATOM      8  C   UNL     1       2.983   7.130  19.052  0.00  0.00    +0.000 A 
ATOM      9  N   UNL     1       3.973   6.191  18.759  0.00  0.00    +0.000 N 
ENDROOT
BRANCH   1  11
ATOM     10  N   UNL     1       5.145   4.582  16.171  0.00  0.00    +0.000 N 
ATOM     11  C   UNL     1       5.593   5.691  16.858  0.00  0.00    +0.000 C 
ATOM     12  O   UNL     1       6.784   5.980  16.893  0.00  0.00    +0.000 OA
ATOM     13  H   UNL     1       4.168   4.549  15.912  0.00  0.00    +0.000 HD
BRANCH  10  14
ATOM     14  C   UNL     1       6.041   3.792  15.349  0.00  0.00    +0.000 C 
BRANCH  14  15
ATOM     15  C   UNL     1       6.221   4.406  13.961  0.00  0.00    +0.000 C 
BRANCH  15  17
ATOM     16  C   UNL     1       6.694   3.335  11.908  0.00  0.00    +0.000 C 
ATOM     17  O   UNL     1       5.765   3.470  12.976  0.00  0.00    +0.000 OA
ENDBRANCH  15  17
ENDBRANCH  14  15
ENDBRANCH  10  14
ENDBRANCH   1  11
BRANCH   5  18
ATOM     18  N   UNL     1       0.087  10.225  19.050  0.00  0.00    +0.000 N 
ATOM     19  C   UNL     1       0.180  11.454  19.688  0.00  0.00    +0.000 C 
ATOM     20  O   UNL     1       1.176  11.853  20.306  0.00  0.00    +0.000 OA
ATOM     21  H   UNL     1      -0.760  10.036  18.532  0.00  0.00    +0.000 HD
BRANCH  19  22
ATOM     22  C   UNL     1      -1.056  12.371  19.593  0.00  0.00    +0.000 C 
ATOM     23  C   UNL     1      -2.389  11.907  18.955  0.00  0.00    +0.000 C 
ATOM     24  C   UNL     1      -3.127  12.683  20.065  0.00  0.00    +0.000 C 
ATOM     25  C   UNL     1      -1.860  12.535  20.918  0.00  0.00    +0.000 C 
ENDBRANCH  19  22
ENDBRANCH   5  18
BRANCH   9  26
ATOM     26  C   UNL     1       4.222   4.992  19.561  0.00  0.00    +0.000 C 
BRANCH  26  27
ATOM     27  C   UNL     1       3.063   4.023  19.626  0.00  0.00    +0.000 A 
ATOM     28  C   UNL     1       2.434   3.585  18.447  0.00  0.00    +0.000 A 
ATOM     29  C   UNL     1       1.272   2.805  18.496  0.00  0.00    +0.000 A 
ATOM     30  C   UNL     1       0.723   2.451  19.725  0.00  0.00    +0.000 A 
ATOM     31  C   UNL     1       1.356   2.857  20.892  0.00  0.00    +0.000 A 
ATOM     32  F   UNL     1       0.827   2.524  22.078  0.00  0.00    +0.000 F 
ATOM     33  C   UNL     1       2.514   3.627  20.854  0.00  0.00    +0.000 A 
ENDBRANCH  26  27
ENDBRANCH   9  26
TORSDOF 8
ENDMDL
MODEL 6
REMARK VINA RESULT:      -8.0      1.029      1.546
REMARK  Name = 
REMARK  9 active torsions:
REMARK  status: ('A' for Active; 'I' for Inactive)
REMARK    1  A    between atoms: C_1  and  O_2
REMARK    2  A    between atoms: O_2  and  C_3
REMARK    3  A    between atoms: C_3  and  C_4
REMARK    4  A    between atoms: C_4  and  N_5
REMARK    5  A    between atoms: C_6  and  C_8
REMARK    6  A    between atoms: C_12  and  N_13
REMARK    7  A    between atoms: C_14  and  C_16
REMARK    8  A    between atoms: N_23  and  C_24
REMARK    9  A    between atoms: C_24  and  C_25
REMARK                            x       y       z     vdW  Elec       q    Type
REMARK                         _______ _______ _______ _____ _____    ______ ____
ROOT
ATOM      1  C   UNL     1       3.522   7.160  17.745  0.00  0.00    +0.000 A 
ATOM      2  C   UNL     1       2.722   8.269  17.509  0.00  0.00    +0.000 A 
ATOM      3  C   UNL     1       1.975   8.561  18.672  0.00  0.00    +0.000 A 
ATOM      4  C   UNL     1       1.008   9.543  18.959  0.00  0.00    +0.000 A 
ATOM      5  C   UNL     1       0.402   9.608  20.215  0.00  0.00    +0.000 A 
ATOM      6  C   UNL     1       0.791   8.683  21.187  0.00  0.00    +0.000 A 
ATOM      7  C   UNL     1       1.744   7.679  20.921  0.00  0.00    +0.000 A 
ATOM      8  C   UNL     1       2.330   7.631  19.643  0.00  0.00    +0.000 A 
ATOM      9  N   UNL     1       3.257   6.768  19.058  0.00  0.00    +0.000 N 
ENDROOT
BRANCH   1  11
ATOM     10  N   UNL     1       4.651   5.162  17.082  0.00  0.00    +0.000 N 
ATOM     11  C   UNL     1       4.418   6.494  16.807  0.00  0.00    +0.000 C 
ATOM     12  O   UNL     1       4.937   7.045  15.842  0.00  0.00    +0.000 OA
ATOM     13  H   UNL     1       3.990   4.680  17.677  0.00  0.00    +0.000 HD
BRANCH  10  14
ATOM     14  C   UNL     1       5.404   4.324  16.168  0.00  0.00    +0.000 C 
BRANCH  14  15
ATOM     15  C   UNL     1       6.907   4.411  16.431  0.00  0.00    +0.000 C 
BRANCH  15  17
ATOM     16  C   UNL     1       6.756   4.600  14.081  0.00  0.00    +0.000 C 
ATOM     17  O   UNL     1       7.565   4.827  15.228  0.00  0.00    +0.000 OA
ENDBRANCH  15  17
ENDBRANCH  14  15
ENDBRANCH  10  14
ENDBRANCH   1  11
BRANCH   5  18
ATOM     18  N   UNL     1      -0.590  10.568  20.548  0.00  0.00    +0.000 N 
ATOM     19  C   UNL     1      -0.378  11.800  21.150  0.00  0.00    +0.000 C 
ATOM     20  O   UNL     1       0.733  12.254  21.454  0.00  0.00    +0.000 OA
ATOM     21  H   UNL     1      -1.541  10.332  20.300  0.00  0.00    +0.000 HD
BRANCH  19  22
ATOM     22  C   UNL     1      -1.634  12.647  21.437  0.00  0.00    +0.000 C 
ATOM     23  C   UNL     1      -2.906  12.575  20.556  0.00  0.00    +0.000 C 
ATOM     24  C   UNL     1      -3.741  12.691  21.848  0.00  0.00    +0.000 C 
ATOM     25  C   UNL     1      -2.530  12.127  22.601  0.00  0.00    +0.000 C 
ENDBRANCH  19  22
ENDBRANCH   5  18
BRANCH   9  26
ATOM     26  C   UNL     1       3.720   5.527  19.679  0.00  0.00    +0.000 C 
BRANCH  26  27
ATOM     27  C   UNL     1       2.624   4.541  20.018  0.00  0.00    +0.000 A 
ATOM     28  C   UNL     1       2.441   4.108  21.343  0.00  0.00    +0.000 A 
ATOM     29  C   UNL     1       1.530   3.090  21.650  0.00  0.00    +0.000 A 
ATOM     30  C   UNL     1       0.788   2.491  20.635  0.00  0.00    +0.000 A 
ATOM     31  C   UNL     1       0.944   2.935  19.329  0.00  0.00    +0.000 A 
ATOM     32  F   UNL     1       0.237   2.357  18.348  0.00  0.00    +0.000 F 
ATOM     33  C   UNL     1       1.843   3.950  19.015  0.00  0.00    +0.000 A 
ENDBRANCH  26  27
ENDBRANCH   9  26
TORSDOF 8
ENDMDL
MODEL 7
REMARK VINA RESULT:      -8.0      1.924      2.081
REMARK  Name = 
REMARK  9 active torsions:
REMARK  status: ('A' for Active; 'I' for Inactive)
REMARK    1  A    between atoms: C_1  and  O_2
REMARK    2  A    between atoms: O_2  and  C_3
REMARK    3  A    between atoms: C_3  and  C_4
REMARK    4  A    between atoms: C_4  and  N_5
REMARK    5  A    between atoms: C_6  and  C_8
REMARK    6  A    between atoms: C_12  and  N_13
REMARK    7  A    between atoms: C_14  and  C_16
REMARK    8  A    between atoms: N_23  and  C_24
REMARK    9  A    between atoms: C_24  and  C_25
REMARK                            x       y       z     vdW  Elec       q    Type
REMARK                         _______ _______ _______ _____ _____    ______ ____
ROOT
ATOM      1  C   UNL     1       3.620   6.798  17.816  0.00  0.00    +0.000 A 
ATOM      2  C   UNL     1       2.961   7.933  17.368  0.00  0.00    +0.000 A 
ATOM      3  C   UNL     1       2.119   8.419  18.393  0.00  0.00    +0.000 A 
ATOM      4  C   UNL     1       1.223   9.503  18.453  0.00  0.00    +0.000 A 
ATOM      5  C   UNL     1       0.488   9.763  19.612  0.00  0.00    +0.000 A 
ATOM      6  C   UNL     1       0.675   8.928  20.717  0.00  0.00    +0.000 A 
ATOM      7  C   UNL     1       1.553   7.825  20.677  0.00  0.00    +0.000 A 
ATOM      8  C   UNL     1       2.272   7.582  19.492  0.00  0.00    +0.000 A 
ATOM      9  N   UNL     1       3.173   6.584  19.120  0.00  0.00    +0.000 N 
ENDROOT
BRANCH   1  11
ATOM     10  N   UNL     1       5.871   6.342  17.157  0.00  0.00    +0.000 N 
ATOM     11  C   UNL     1       4.549   5.956  17.070  0.00  0.00    +0.000 C 
ATOM     12  O   UNL     1       4.213   4.978  16.411  0.00  0.00    +0.000 OA
ATOM     13  H   UNL     1       6.139   6.940  17.927  0.00  0.00    +0.000 HD
BRANCH  10  14
ATOM     14  C   UNL     1       6.932   5.531  16.591  0.00  0.00    +0.000 C 
BRANCH  14  15
ATOM     15  C   UNL     1       7.570   4.623  17.642  0.00  0.00    +0.000 C 
BRANCH  15  17
ATOM     16  C   UNL     1       8.010   5.555  19.768  0.00  0.00    +0.000 C 
ATOM     17  O   UNL     1       7.032   4.954  18.929  0.00  0.00    +0.000 OA
ENDBRANCH  15  17
ENDBRANCH  14  15
ENDBRANCH  10  14
ENDBRANCH   1  11
BRANCH   5  18
ATOM     18  N   UNL     1      -0.439  10.832  19.718  0.00  0.00    +0.000 N 
ATOM     19  C   UNL     1      -1.532  11.064  18.894  0.00  0.00    +0.000 C 
ATOM     20  O   UNL     1      -1.873  10.334  17.955  0.00  0.00    +0.000 OA
ATOM     21  H   UNL     1      -0.295  11.474  20.486  0.00  0.00    +0.000 HD
BRANCH  19  22
ATOM     22  C   UNL     1      -2.369  12.322  19.204  0.00  0.00    +0.000 C 
ATOM     23  C   UNL     1      -3.697  12.263  19.997  0.00  0.00    +0.000 C 
ATOM     24  C   UNL     1      -3.280  13.578  20.687  0.00  0.00    +0.000 C 
ATOM     25  C   UNL     1      -1.826  13.206  20.366  0.00  0.00    +0.000 C 
ENDBRANCH  19  22
ENDBRANCH   5  18
BRANCH   9  26
ATOM     26  C   UNL     1       3.443   5.390  19.922  0.00  0.00    +0.000 C 
BRANCH  26  27
ATOM     27  C   UNL     1       2.824   4.117  19.390  0.00  0.00    +0.000 A 
ATOM     28  C   UNL     1       1.426   3.969  19.348  0.00  0.00    +0.000 A 
ATOM     29  C   UNL     1       0.840   2.747  18.997  0.00  0.00    +0.000 A 
ATOM     30  C   UNL     1       1.644   1.655  18.680  0.00  0.00    +0.000 A 
ATOM     31  C   UNL     1       3.024   1.804  18.692  0.00  0.00    +0.000 A 
ATOM     32  F   UNL     1       3.803   0.754  18.394  0.00  0.00    +0.000 F 
ATOM     33  C   UNL     1       3.616   3.016  19.034  0.00  0.00    +0.000 A 
ENDBRANCH  26  27
ENDBRANCH   9  26
TORSDOF 8
ENDMDL
MODEL 8
REMARK VINA RESULT:      -7.9      1.160      1.335
REMARK  Name = 
REMARK  9 active torsions:
REMARK  status: ('A' for Active; 'I' for Inactive)
REMARK    1  A    between atoms: C_1  and  O_2
REMARK    2  A    between atoms: O_2  and  C_3
REMARK    3  A    between atoms: C_3  and  C_4
REMARK    4  A    between atoms: C_4  and  N_5
REMARK    5  A    between atoms: C_6  and  C_8
REMARK    6  A    between atoms: C_12  and  N_13
REMARK    7  A    between atoms: C_14  and  C_16
REMARK    8  A    between atoms: N_23  and  C_24
REMARK    9  A    between atoms: C_24  and  C_25
REMARK                            x       y       z     vdW  Elec       q    Type
REMARK                         _______ _______ _______ _____ _____    ______ ____
ROOT
ATOM      1  C   UNL     1       3.764   7.220  17.785  0.00  0.00    +0.000 A 
ATOM      2  C   UNL     1       2.936   8.311  17.560  0.00  0.00    +0.000 A 
ATOM      3  C   UNL     1       2.084   8.486  18.672  0.00  0.00    +0.000 A 
ATOM      4  C   UNL     1       1.052   9.405  18.944  0.00  0.00    +0.000 A 
ATOM      5  C   UNL     1       0.342   9.352  20.145  0.00  0.00    +0.000 A 
ATOM      6  C   UNL     1       0.691   8.373  21.079  0.00  0.00    +0.000 A 
ATOM      7  C   UNL     1       1.708   7.430  20.825  0.00  0.00    +0.000 A 
ATOM      8  C   UNL     1       2.399   7.501  19.601  0.00  0.00    +0.000 A 
ATOM      9  N   UNL     1       3.410   6.722  19.039  0.00  0.00    +0.000 N 
ENDROOT
BRANCH   1  11
ATOM     10  N   UNL     1       4.448   5.419  16.372  0.00  0.00    +0.000 N 
ATOM     11  C   UNL     1       4.764   6.662  16.882  0.00  0.00    +0.000 C 
ATOM     12  O   UNL     1       5.811   7.226  16.580  0.00  0.00    +0.000 OA
ATOM     13  H   UNL     1       3.479   5.133  16.393  0.00  0.00    +0.000 HD
BRANCH  10  14
ATOM     14  C   UNL     1       5.268   4.791  15.354  0.00  0.00    +0.000 C 
BRANCH  14  15
ATOM     15  C   UNL     1       6.235   3.772  15.957  0.00  0.00    +0.000 C 
BRANCH  15  17
ATOM     16  C   UNL     1       7.711   4.527  17.640  0.00  0.00    +0.000 C 
ATOM     17  O   UNL     1       7.479   4.424  16.241  0.00  0.00    +0.000 OA
ENDBRANCH  15  17
ENDBRANCH  14  15
ENDBRANCH  10  14
ENDBRANCH   1  11
BRANCH   5  18
ATOM     18  N   UNL     1      -0.717  10.244  20.459  0.00  0.00    +0.000 N 
ATOM     19  C   UNL     1      -0.639  11.365  21.272  0.00  0.00    +0.000 C 
ATOM     20  O   UNL     1       0.395  11.768  21.820  0.00  0.00    +0.000 OA
ATOM     21  H   UNL     1      -1.610  10.048  20.026  0.00  0.00    +0.000 HD
BRANCH  19  22
ATOM     22  C   UNL     1      -1.949  12.153  21.481  0.00  0.00    +0.000 C 
ATOM     23  C   UNL     1      -1.970  13.601  22.030  0.00  0.00    +0.000 C 
ATOM     24  C   UNL     1      -3.107  13.904  21.031  0.00  0.00    +0.000 C 
ATOM     25  C   UNL     1      -2.580  12.739  20.182  0.00  0.00    +0.000 C 
ENDBRANCH  19  22
ENDBRANCH   5  18
BRANCH   9  26
ATOM     26  C   UNL     1       3.877   5.457  19.609  0.00  0.00    +0.000 C 
BRANCH  26  27
ATOM     27  C   UNL     1       3.144   4.231  19.113  0.00  0.00    +0.000 A 
ATOM     28  C   UNL     1       1.741   4.229  19.022  0.00  0.00    +0.000 A 
ATOM     29  C   UNL     1       1.040   3.059  18.706  0.00  0.00    +0.000 A 
ATOM     30  C   UNL     1       1.732   1.874  18.475  0.00  0.00    +0.000 A 
ATOM     31  C   UNL     1       3.119   1.876  18.537  0.00  0.00    +0.000 A 
ATOM     32  F   UNL     1       3.790   0.736  18.323  0.00  0.00    +0.000 F 
ATOM     33  C   UNL     1       3.826   3.035  18.845  0.00  0.00    +0.000 A 
ENDBRANCH  26  27
ENDBRANCH   9  26
TORSDOF 8
ENDMDL
MODEL 9
REMARK VINA RESULT:      -7.8      2.170      2.559
REMARK  Name = 
REMARK  9 active torsions:
REMARK  status: ('A' for Active; 'I' for Inactive)
REMARK    1  A    between atoms: C_1  and  O_2
REMARK    2  A    between atoms: O_2  and  C_3
REMARK    3  A    between atoms: C_3  and  C_4
REMARK    4  A    between atoms: C_4  and  N_5
REMARK    5  A    between atoms: C_6  and  C_8
REMARK    6  A    between atoms: C_12  and  N_13
REMARK    7  A    between atoms: C_14  and  C_16
REMARK    8  A    between atoms: N_23  and  C_24
REMARK    9  A    between atoms: C_24  and  C_25
REMARK                            x       y       z     vdW  Elec       q    Type
REMARK                         _______ _______ _______ _____ _____    ______ ____
ROOT
ATOM      1  C   UNL     1       4.416   6.466  17.581  0.00  0.00    +0.000 A 
ATOM      2  C   UNL     1       3.722   7.528  17.019  0.00  0.00    +0.000 A 
ATOM      3  C   UNL     1       2.768   8.004  17.946  0.00  0.00    +0.000 A 
ATOM      4  C   UNL     1       1.801   9.024  17.874  0.00  0.00    +0.000 A 
ATOM      5  C   UNL     1       0.956   9.290  18.954  0.00  0.00    +0.000 A 
ATOM      6  C   UNL     1       1.107   8.528  20.116  0.00  0.00    +0.000 A 
ATOM      7  C   UNL     1       2.056   7.490  20.208  0.00  0.00    +0.000 A 
ATOM      8  C   UNL     1       2.885   7.237  19.099  0.00  0.00    +0.000 A 
ATOM      9  N   UNL     1       3.878   6.288  18.856  0.00  0.00    +0.000 N 
ENDROOT
BRANCH   1  11
ATOM     10  N   UNL     1       4.989   4.606  16.197  0.00  0.00    +0.000 N 
ATOM     11  C   UNL     1       5.457   5.655  16.960  0.00  0.00    +0.000 C 
ATOM     12  O   UNL     1       6.659   5.864  17.086  0.00  0.00    +0.000 OA
ATOM     13  H   UNL     1       4.032   4.647  15.873  0.00  0.00    +0.000 HD
BRANCH  10  14
ATOM     14  C   UNL     1       5.888   3.793  15.400  0.00  0.00    +0.000 C 
BRANCH  14  15
ATOM     15  C   UNL     1       6.150   4.418  14.030  0.00  0.00    +0.000 C 
BRANCH  15  17
ATOM     16  C   UNL     1       5.933   3.080  12.096  0.00  0.00    +0.000 C 
ATOM     17  O   UNL     1       5.246   3.845  13.078  0.00  0.00    +0.000 OA
ENDBRANCH  15  17
ENDBRANCH  14  15
ENDBRANCH  10  14
ENDBRANCH   1  11
BRANCH   5  18
ATOM     18  N   UNL     1      -0.045  10.295  18.926  0.00  0.00    +0.000 N 
ATOM     19  C   UNL     1      -1.142  10.346  18.078  0.00  0.00    +0.000 C 
ATOM     20  O   UNL     1      -1.420   9.484  17.234  0.00  0.00    +0.000 OA
ATOM     21  H   UNL     1       0.045  11.035  19.610  0.00  0.00    +0.000 HD
BRANCH  19  22
ATOM     22  C   UNL     1      -2.069  11.569  18.229  0.00  0.00    +0.000 C 
ATOM     23  C   UNL     1      -3.613  11.450  18.208  0.00  0.00    +0.000 C 
ATOM     24  C   UNL     1      -3.655  12.523  19.317  0.00  0.00    +0.000 C 
ATOM     25  C   UNL     1      -2.227  12.102  19.685  0.00  0.00    +0.000 C 
ENDBRANCH  19  22
ENDBRANCH   5  18
BRANCH   9  26
ATOM     26  C   UNL     1       4.160   5.158  19.743  0.00  0.00    +0.000 C 
BRANCH  26  27
ATOM     27  C   UNL     1       3.396   3.894  19.419  0.00  0.00    +0.000 A 
ATOM     28  C   UNL     1       4.054   2.792  18.845  0.00  0.00    +0.000 A 
ATOM     29  C   UNL     1       3.338   1.672  18.406  0.00  0.00    +0.000 A 
ATOM     30  C   UNL     1       1.953   1.637  18.536  0.00  0.00    +0.000 A 
ATOM     31  C   UNL     1       1.300   2.710  19.128  0.00  0.00    +0.000 A 
ATOM     32  F   UNL     1      -0.034   2.684  19.250  0.00  0.00    +0.000 F 
ATOM     33  C   UNL     1       2.004   3.826  19.573  0.00  0.00    +0.000 A 
ENDBRANCH  26  27
ENDBRANCH   9  26
TORSDOF 8
ENDMDL
