MODEL 1
REMARK VINA RESULT:      -6.8      0.000      0.000
REMARK  Name = 
REMARK  5 active torsions:
REMARK  status: ('A' for Active; 'I' for Inactive)
REMARK    1  A    between atoms: C_1  and  C_2
REMARK    2  A    between atoms: C_4  and  C_5
REMARK    3  A    between atoms: C_5  and  N_6
REMARK    4  A    between atoms: C_11  and  C_13
REMARK    5  A    between atoms: C_13  and  C_14
REMARK                            x       y       z     vdW  Elec       q    Type
REMARK                         _______ _______ _______ _____ _____    ______ ____
ROOT
ATOM      1  N   UNL     1       1.701   7.692  20.093  0.00  0.00    +0.000 N 
ATOM      2  C   UNL     1       1.389   6.302  20.303  0.00  0.00    +0.000 C 
ATOM      3  C   UNL     1       2.357   5.618  19.371  0.00  0.00    +0.000 C 
ATOM      4  C   UNL     1       3.789   5.604  19.905  0.00  0.00    +0.000 C 
ATOM      5  N   UNL     1       4.599   5.732  18.708  0.00  0.00    +0.000 N 
ATOM      6  C   UNL     1       5.948   5.436  18.742  0.00  0.00    +0.000 C 
ATOM      7  O   UNL     1       6.503   4.983  19.738  0.00  0.00    +0.000 OA
ATOM      8  C   UNL     1       3.855   6.388  17.636  0.00  0.00    +0.000 C 
ATOM      9  C   UNL     1       2.447   6.577  18.175  0.00  0.00    +0.000 C 
ATOM     10  C   UNL     1       2.210   7.931  18.824  0.00  0.00    +0.000 C 
ATOM     11  O   UNL     1       2.415   9.014  18.304  0.00  0.00    +0.000 OA
ENDROOT
BRANCH   6  12
ATOM     12  C   UNL     1       6.747   5.662  17.501  0.00  0.00    +0.000 C 
ATOM     13  C   UNL     1       6.391   4.934  16.211  0.00  0.00    +0.000 C 
ATOM     14  C   UNL     1       7.589   4.496  16.986  0.00  0.00    +0.000 C 
BRANCH  12  15
ATOM     15  C   UNL     1       7.343   6.972  17.400  0.00  0.00    +0.000 C 
ATOM     16  N   UNL     1       7.797   8.031  17.281  0.00  0.00    +0.000 NA
ENDBRANCH  12  15
ENDBRANCH   6  12
BRANCH   1  17
ATOM     17  C   UNL     1       1.423   8.697  21.097  0.00  0.00    +0.000 C 
BRANCH  17  21
ATOM     18  C   UNL     1      -2.229  10.886  18.505  0.00  0.00    +0.000 C 
ATOM     19  C   UNL     1      -0.999  10.749  19.334  0.00  0.00    +0.000 A 
ATOM     20  N   UNL     1      -0.507   9.611  19.783  0.00  0.00    +0.000 NA
ATOM     21  C   UNL     1       0.660   9.847  20.505  0.00  0.00    +0.000 A 
ATOM     22  C   UNL     1       1.023  11.179  20.582  0.00  0.00    +0.000 A 
ATOM     23  S   UNL     1      -0.092  12.155  19.732  0.00  0.00    +0.000 S 
ENDBRANCH  17  21
ENDBRANCH   1  17
TORSDOF 4
ENDMDL
MODEL 2
REMARK VINA RESULT:      -6.7      4.706      7.376
REMARK  Name = 
REMARK  5 active torsions:
REMARK  status: ('A' for Active; 'I' for Inactive)
REMARK    1  A    between atoms: C_1  and  C_2
REMARK    2  A    between atoms: C_4  and  C_5
REMARK    3  A    between atoms: C_5  and  N_6
REMARK    4  A    between atoms: C_11  and  C_13
REMARK    5  A    between atoms: C_13  and  C_14
REMARK                            x       y       z     vdW  Elec       q    Type
REMARK                         _______ _______ _______ _____ _____    ______ ____
ROOT
ATOM      1  N   UNL     1       6.359   6.108  17.509  0.00  0.00    +0.000 N 
ATOM      2  C   UNL     1       7.164   5.433  18.494  0.00  0.00    +0.000 C 
ATOM      3  C   UNL     1       6.118   4.791  19.369  0.00  0.00    +0.000 C 
ATOM      4  C   UNL     1       5.479   3.559  18.728  0.00  0.00    +0.000 C 
ATOM      5  N   UNL     1       4.106   3.609  19.192  0.00  0.00    +0.000 N 
ATOM      6  C   UNL     1       3.293   2.496  19.091  0.00  0.00    +0.000 C 
ATOM      7  O   UNL     1       3.700   1.410  18.690  0.00  0.00    +0.000 OA
ATOM      8  C   UNL     1       3.712   4.974  19.531  0.00  0.00    +0.000 C 
ATOM      9  C   UNL     1       4.970   5.811  19.370  0.00  0.00    +0.000 C 
ATOM     10  C   UNL     1       5.110   6.460  18.003  0.00  0.00    +0.000 C 
ATOM     11  O   UNL     1       4.279   7.171  17.465  0.00  0.00    +0.000 OA
ENDROOT
BRANCH   6  12
ATOM     12  C   UNL     1       1.865   2.628  19.512  0.00  0.00    +0.000 C 
ATOM     13  C   UNL     1       0.747   2.104  18.620  0.00  0.00    +0.000 C 
ATOM     14  C   UNL     1       0.981   3.575  18.703  0.00  0.00    +0.000 C 
BRANCH  12  15
ATOM     15  C   UNL     1       1.656   2.624  20.939  0.00  0.00    +0.000 C 
ATOM     16  N   UNL     1       1.530   2.638  22.090  0.00  0.00    +0.000 NA
ENDBRANCH  12  15
ENDBRANCH   6  12
BRANCH   1  17
ATOM     17  C   UNL     1       6.871   6.427  16.193  0.00  0.00    +0.000 C 
BRANCH  17  21
ATOM     18  C   UNL     1       7.170   3.830  11.950  0.00  0.00    +0.000 C 
ATOM     19  C   UNL     1       6.668   4.266  13.283  0.00  0.00    +0.000 A 
ATOM     20  N   UNL     1       7.203   5.218  14.023  0.00  0.00    +0.000 NA
ATOM     21  C   UNL     1       6.471   5.379  15.196  0.00  0.00    +0.000 A 
ATOM     22  C   UNL     1       5.386   4.529  15.312  0.00  0.00    +0.000 A 
ATOM     23  S   UNL     1       5.261   3.525  13.935  0.00  0.00    +0.000 S 
ENDBRANCH  17  21
ENDBRANCH   1  17
TORSDOF 4
ENDMDL
MODEL 3
REMARK VINA RESULT:      -6.7      0.995      1.339
REMARK  Name = 
REMARK  5 active torsions:
REMARK  status: ('A' for Active; 'I' for Inactive)
REMARK    1  A    between atoms: C_1  and  C_2
REMARK    2  A    between atoms: C_4  and  C_5
REMARK    3  A    between atoms: C_5  and  N_6
REMARK    4  A    between atoms: C_11  and  C_13
REMARK    5  A    between atoms: C_13  and  C_14
REMARK                            x       y       z     vdW  Elec       q    Type
REMARK                         _______ _______ _______ _____ _____    ______ ____
ROOT
ATOM      1  N   UNL     1       1.741   7.533  20.352  0.00  0.00    +0.000 N 
ATOM      2  C   UNL     1       1.409   6.135  20.439  0.00  0.00    +0.000 C 
ATOM      3  C   UNL     1       2.305   5.532  19.387  0.00  0.00    +0.000 C 
ATOM      4  C   UNL     1       3.765   5.438  19.830  0.00  0.00    +0.000 C 
ATOM      5  N   UNL     1       4.506   5.673  18.605  0.00  0.00    +0.000 N 
ATOM      6  C   UNL     1       5.848   5.351  18.528  0.00  0.00    +0.000 C 
ATOM      7  O   UNL     1       6.449   4.789  19.438  0.00  0.00    +0.000 OA
ATOM      8  C   UNL     1       3.717   6.448  17.651  0.00  0.00    +0.000 C 
ATOM      9  C   UNL     1       2.348   6.606  18.290  0.00  0.00    +0.000 C 
ATOM     10  C   UNL     1       2.182   7.891  19.085  0.00  0.00    +0.000 C 
ATOM     11  O   UNL     1       2.383   9.017  18.665  0.00  0.00    +0.000 OA
ENDROOT
BRANCH   6  12
ATOM     12  C   UNL     1       6.579   5.688  17.270  0.00  0.00    +0.000 C 
ATOM     13  C   UNL     1       6.091   5.156  15.928  0.00  0.00    +0.000 C 
ATOM     14  C   UNL     1       7.303   4.550  16.552  0.00  0.00    +0.000 C 
BRANCH  12  15
ATOM     15  C   UNL     1       7.257   6.961  17.291  0.00  0.00    +0.000 C 
ATOM     16  N   UNL     1       7.766   8.002  17.285  0.00  0.00    +0.000 NA
ENDBRANCH  12  15
ENDBRANCH   6  12
BRANCH   1  17
ATOM     17  C   UNL     1       1.546   8.435  21.467  0.00  0.00    +0.000 C 
BRANCH  17  21
ATOM     18  C   UNL     1       0.629  13.311  20.983  0.00  0.00    +0.000 C 
ATOM     19  C   UNL     1       0.433  11.839  20.866  0.00  0.00    +0.000 A 
ATOM     20  N   UNL     1       1.278  10.922  21.296  0.00  0.00    +0.000 NA
ATOM     21  C   UNL     1       0.772   9.650  21.042  0.00  0.00    +0.000 A 
ATOM     22  C   UNL     1      -0.460   9.641  20.416  0.00  0.00    +0.000 A 
ATOM     23  S   UNL     1      -1.011  11.237  20.152  0.00  0.00    +0.000 S 
ENDBRANCH  17  21
ENDBRANCH   1  17
TORSDOF 4
ENDMDL
MODEL 4
REMARK VINA RESULT:      -6.4      3.138      4.064
REMARK  Name = 
REMARK  5 active torsions:
REMARK  status: ('A' for Active; 'I' for Inactive)
REMARK    1  A    between atoms: C_1  and  C_2
REMARK    2  A    between atoms: C_4  and  C_5
REMARK    3  A    between atoms: C_5  and  N_6
REMARK    4  A    between atoms: C_11  and  C_13
REMARK    5  A    between atoms: C_13  and  C_14
REMARK                            x       y       z     vdW  Elec       q    Type
REMARK                         _______ _______ _______ _____ _____    ______ ____
ROOT
ATOM      1  N   UNL     1       1.135   9.152  19.050  0.00  0.00    +0.000 N 
ATOM      2  C   UNL     1       2.097   9.158  17.979  0.00  0.00    +0.000 C 
ATOM      3  C   UNL     1       2.749   7.807  18.134  0.00  0.00    +0.000 C 
ATOM      4  C   UNL     1       1.871   6.660  17.634  0.00  0.00    +0.000 C 
ATOM      5  N   UNL     1       2.182   5.574  18.544  0.00  0.00    +0.000 N 
ATOM      6  C   UNL     1       1.833   4.275  18.226  0.00  0.00    +0.000 C 
ATOM      7  O   UNL     1       1.329   3.967  17.151  0.00  0.00    +0.000 OA
ATOM      8  C   UNL     1       2.666   6.081  19.826  0.00  0.00    +0.000 C 
ATOM      9  C   UNL     1       2.767   7.587  19.654  0.00  0.00    +0.000 C 
ATOM     10  C   UNL     1       1.531   8.345  20.108  0.00  0.00    +0.000 C 
ATOM     11  O   UNL     1       1.010   8.263  21.207  0.00  0.00    +0.000 OA
ENDROOT
BRANCH   6  12
ATOM     12  C   UNL     1       2.106   3.208  19.235  0.00  0.00    +0.000 C 
ATOM     13  C   UNL     1       1.151   2.032  19.392  0.00  0.00    +0.000 C 
ATOM     14  C   UNL     1       1.154   3.108  20.426  0.00  0.00    +0.000 C 
BRANCH  12  15
ATOM     15  C   UNL     1       3.504   2.991  19.517  0.00  0.00    +0.000 C 
ATOM     16  N   UNL     1       4.621   2.772  19.734  0.00  0.00    +0.000 NA
ENDBRANCH  12  15
ENDBRANCH   6  12
BRANCH   1  17
ATOM     17  C   UNL     1      -0.057   9.973  19.010  0.00  0.00    +0.000 C 
BRANCH  17  21
ATOM     18  C   UNL     1      -1.174  12.854  22.922  0.00  0.00    +0.000 C 
ATOM     19  C   UNL     1      -0.478  12.387  21.690  0.00  0.00    +0.000 A 
ATOM     20  N   UNL     1      -0.746  11.270  21.043  0.00  0.00    +0.000 NA
ATOM     21  C   UNL     1       0.079  11.155  19.927  0.00  0.00    +0.000 A 
ATOM     22  C   UNL     1       0.963  12.206  19.761  0.00  0.00    +0.000 A 
ATOM     23  S   UNL     1       0.756  13.364  21.000  0.00  0.00    +0.000 S 
ENDBRANCH  17  21
ENDBRANCH   1  17
TORSDOF 4
ENDMDL
MODEL 5
REMARK VINA RESULT:      -6.3      3.134      4.066
REMARK  Name = 
REMARK  5 active torsions:
REMARK  status: ('A' for Active; 'I' for Inactive)
REMARK    1  A    between atoms: C_1  and  C_2
REMARK    2  A    between atoms: C_4  and  C_5
REMARK    3  A    between atoms: C_5  and  N_6
REMARK    4  A    between atoms: C_11  and  C_13
REMARK    5  A    between atoms: C_13  and  C_14
REMARK                            x       y       z     vdW  Elec       q    Type
REMARK                         _______ _______ _______ _____ _____    ______ ____
ROOT
ATOM      1  N   UNL     1       1.141   9.160  19.056  0.00  0.00    +0.000 N 
ATOM      2  C   UNL     1       2.093   9.173  17.976  0.00  0.00    +0.000 C 
ATOM      3  C   UNL     1       2.744   7.821  18.114  0.00  0.00    +0.000 C 
ATOM      4  C   UNL     1       1.860   6.679  17.611  0.00  0.00    +0.000 C 
ATOM      5  N   UNL     1       2.178   5.584  18.508  0.00  0.00    +0.000 N 
ATOM      6  C   UNL     1       1.824   4.289  18.182  0.00  0.00    +0.000 C 
ATOM      7  O   UNL     1       1.310   3.991  17.109  0.00  0.00    +0.000 OA
ATOM      8  C   UNL     1       2.674   6.079  19.790  0.00  0.00    +0.000 C 
ATOM      9  C   UNL     1       2.776   7.587  19.631  0.00  0.00    +0.000 C 
ATOM     10  C   UNL     1       1.545   8.343  20.103  0.00  0.00    +0.000 C 
ATOM     11  O   UNL     1       1.035   8.252  21.206  0.00  0.00    +0.000 OA
ENDROOT
BRANCH   6  12
ATOM     12  C   UNL     1       2.105   3.213  19.180  0.00  0.00    +0.000 C 
ATOM     13  C   UNL     1       1.175   2.012  19.301  0.00  0.00    +0.000 C 
ATOM     14  C   UNL     1       1.135   3.072  20.351  0.00  0.00    +0.000 C 
BRANCH  12  15
ATOM     15  C   UNL     1       3.502   3.024  19.483  0.00  0.00    +0.000 C 
ATOM     16  N   UNL     1       4.634   2.874  19.681  0.00  0.00    +0.000 NA
ENDBRANCH  12  15
ENDBRANCH   6  12
BRANCH   1  17
ATOM     17  C   UNL     1      -0.050   9.983  19.034  0.00  0.00    +0.000 C 
BRANCH  17  21
ATOM     18  C   UNL     1      -0.101  14.960  18.766  0.00  0.00    +0.000 C 
ATOM     19  C   UNL     1       0.196  13.597  19.288  0.00  0.00    +0.000 A 
ATOM     20  N   UNL     1      -0.212  12.467  18.742  0.00  0.00    +0.000 NA
ATOM     21  C   UNL     1       0.262  11.383  19.476  0.00  0.00    +0.000 A 
ATOM     22  C   UNL     1       1.026  11.730  20.575  0.00  0.00    +0.000 A 
ATOM     23  S   UNL     1       1.175  13.428  20.691  0.00  0.00    +0.000 S 
ENDBRANCH  17  21
ENDBRANCH   1  17
TORSDOF 4
ENDMDL
MODEL 6
REMARK VINA RESULT:      -6.3      3.142      4.158
REMARK  Name = 
REMARK  5 active torsions:
REMARK  status: ('A' for Active; 'I' for Inactive)
REMARK    1  A    between atoms: C_1  and  C_2
REMARK    2  A    between atoms: C_4  and  C_5
REMARK    3  A    between atoms: C_5  and  N_6
REMARK    4  A    between atoms: C_11  and  C_13
REMARK    5  A    between atoms: C_13  and  C_14
REMARK                            x       y       z     vdW  Elec       q    Type
REMARK                         _______ _______ _______ _____ _____    ______ ____
ROOT
ATOM      1  N   UNL     1       0.953   9.207  19.210  0.00  0.00    +0.000 N 
ATOM      2  C   UNL     1       1.882   9.277  18.112  0.00  0.00    +0.000 C 
ATOM      3  C   UNL     1       2.585   7.947  18.208  0.00  0.00    +0.000 C 
ATOM      4  C   UNL     1       1.733   6.784  17.699  0.00  0.00    +0.000 C 
ATOM      5  N   UNL     1       2.108   5.684  18.567  0.00  0.00    +0.000 N 
ATOM      6  C   UNL     1       1.795   4.383  18.221  0.00  0.00    +0.000 C 
ATOM      7  O   UNL     1       1.270   4.088  17.152  0.00  0.00    +0.000 OA
ATOM      8  C   UNL     1       2.612   6.170  19.849  0.00  0.00    +0.000 C 
ATOM      9  C   UNL     1       2.656   7.684  19.720  0.00  0.00    +0.000 C 
ATOM     10  C   UNL     1       1.409   8.385  20.231  0.00  0.00    +0.000 C 
ATOM     11  O   UNL     1       0.924   8.253  21.342  0.00  0.00    +0.000 OA
ENDROOT
BRANCH   6  12
ATOM     12  C   UNL     1       2.135   3.298  19.190  0.00  0.00    +0.000 C 
ATOM     13  C   UNL     1       1.233   2.078  19.329  0.00  0.00    +0.000 C 
ATOM     14  C   UNL     1       1.215   3.121  20.397  0.00  0.00    +0.000 C 
BRANCH  12  15
ATOM     15  C   UNL     1       3.546   3.131  19.435  0.00  0.00    +0.000 C 
ATOM     16  N   UNL     1       4.686   2.993  19.588  0.00  0.00    +0.000 NA
ENDBRANCH  12  15
ENDBRANCH   6  12
BRANCH   1  17
ATOM     17  C   UNL     1      -0.266   9.986  19.229  0.00  0.00    +0.000 C 
BRANCH  17  21
ATOM     18  C   UNL     1       1.686  14.118  21.220  0.00  0.00    +0.000 C 
ATOM     19  C   UNL     1       0.940  13.250  20.266  0.00  0.00    +0.000 A 
ATOM     20  N   UNL     1       0.817  11.941  20.365  0.00  0.00    +0.000 NA
ATOM     21  C   UNL     1       0.039  11.453  19.318  0.00  0.00    +0.000 A 
ATOM     22  C   UNL     1      -0.409  12.425  18.442  0.00  0.00    +0.000 A 
ATOM     23  S   UNL     1       0.126  13.971  18.934  0.00  0.00    +0.000 S 
ENDBRANCH  17  21
ENDBRANCH   1  17
TORSDOF 4
ENDMDL
MODEL 7
REMARK VINA RESULT:      -6.2      3.762      7.290
REMARK  Name = 
REMARK  5 active torsions:
REMARK  status: ('A' for Active; 'I' for Inactive)
REMARK    1  A    between atoms: C_1  and  C_2
REMARK    2  A    between atoms: C_4  and  C_5
REMARK    3  A    between atoms: C_5  and  N_6
REMARK    4  A    between atoms: C_11  and  C_13
REMARK    5  A    between atoms: C_13  and  C_14
REMARK                            x       y       z     vdW  Elec       q    Type
REMARK                         _______ _______ _______ _____ _____    ______ ____
ROOT
ATOM      1  N   UNL     1       2.054   7.926  19.166  0.00  0.00    +0.000 N 
ATOM      2  C   UNL     1       1.565   8.193  17.838  0.00  0.00    +0.000 C 
ATOM      3  C   UNL     1       1.064   9.609  17.966  0.00  0.00    +0.000 C 
ATOM      4  C   UNL     1       2.192  10.641  17.995  0.00  0.00    +0.000 C 
ATOM      5  N   UNL     1       1.694  11.662  18.898  0.00  0.00    +0.000 N 
ATOM      6  C   UNL     1       2.284  12.911  18.933  0.00  0.00    +0.000 C 
ATOM      7  O   UNL     1       3.184  13.242  18.167  0.00  0.00    +0.000 OA
ATOM      8  C   UNL     1       0.713  11.111  19.830  0.00  0.00    +0.000 C 
ATOM      9  C   UNL     1       0.509   9.668  19.397  0.00  0.00    +0.000 C 
ATOM     10  C   UNL     1       1.390   8.672  20.130  0.00  0.00    +0.000 C 
ATOM     11  O   UNL     1       1.471   8.550  21.340  0.00  0.00    +0.000 OA
ENDROOT
BRANCH   6  12
ATOM     12  C   UNL     1       1.782  13.896  19.938  0.00  0.00    +0.000 C 
ATOM     13  C   UNL     1       0.292  14.195  20.045  0.00  0.00    +0.000 C 
ATOM     14  C   UNL     1       1.191  15.200  19.406  0.00  0.00    +0.000 C 
BRANCH  12  15
ATOM     15  C   UNL     1       2.585  14.000  21.131  0.00  0.00    +0.000 C 
ATOM     16  N   UNL     1       3.266  14.072  22.065  0.00  0.00    +0.000 NA
ENDBRANCH  12  15
ENDBRANCH   6  12
BRANCH   1  17
ATOM     17  C   UNL     1       3.071   6.927  19.418  0.00  0.00    +0.000 C 
BRANCH  17  21
ATOM     18  C   UNL     1       1.380   2.766  21.581  0.00  0.00    +0.000 C 
ATOM     19  C   UNL     1       1.734   3.729  20.500  0.00  0.00    +0.000 A 
ATOM     20  N   UNL     1       2.241   4.932  20.690  0.00  0.00    +0.000 NA
ATOM     21  C   UNL     1       2.469   5.553  19.464  0.00  0.00    +0.000 A 
ATOM     22  C   UNL     1       2.120   4.789  18.365  0.00  0.00    +0.000 A 
ATOM     23  S   UNL     1       1.516   3.269  18.858  0.00  0.00    +0.000 S 
ENDBRANCH  17  21
ENDBRANCH   1  17
TORSDOF 4
ENDMDL
MODEL 8
REMARK VINA RESULT:      -6.2      3.737      7.302
REMARK  Name = 
REMARK  5 active torsions:
REMARK  status: ('A' for Active; 'I' for Inactive)
REMARK    1  A    between atoms: C_1  and  C_2
REMARK    2  A    between atoms: C_4  and  C_5
REMARK    3  A    between atoms: C_5  and  N_6
REMARK    4  A    between atoms: C_11  and  C_13
REMARK    5  A    between atoms: C_13  and  C_14
REMARK                            x       y       z     vdW  Elec       q    Type
REMARK                         _______ _______ _______ _____ _____    ______ ____
ROOT
ATOM      1  N   UNL     1       2.070   7.925  19.217  0.00  0.00    +0.000 N 
ATOM      2  C   UNL     1       1.643   8.145  17.860  0.00  0.00    +0.000 C 
ATOM      3  C   UNL     1       1.114   9.556  17.921  0.00  0.00    +0.000 C 
ATOM      4  C   UNL     1       2.223  10.607  17.975  0.00  0.00    +0.000 C 
ATOM      5  N   UNL     1       1.665  11.645  18.821  0.00  0.00    +0.000 N 
ATOM      6  C   UNL     1       2.234  12.904  18.849  0.00  0.00    +0.000 C 
ATOM      7  O   UNL     1       3.164  13.228  18.118  0.00  0.00    +0.000 OA
ATOM      8  C   UNL     1       0.649  11.104  19.720  0.00  0.00    +0.000 C 
ATOM      9  C   UNL     1       0.488   9.646  19.321  0.00  0.00    +0.000 C 
ATOM     10  C   UNL     1       1.348   8.686  20.126  0.00  0.00    +0.000 C 
ATOM     11  O   UNL     1       1.371   8.601  21.341  0.00  0.00    +0.000 OA
ENDROOT
BRANCH   6  12
ATOM     12  C   UNL     1       1.667  13.909  19.798  0.00  0.00    +0.000 C 
ATOM     13  C   UNL     1       0.172  14.199  19.811  0.00  0.00    +0.000 C 
ATOM     14  C   UNL     1       1.100  15.196  19.201  0.00  0.00    +0.000 C 
BRANCH  12  15
ATOM     15  C   UNL     1       2.398  14.048  21.034  0.00  0.00    +0.000 C 
ATOM     16  N   UNL     1       3.023  14.149  22.004  0.00  0.00    +0.000 NA
ENDBRANCH  12  15
ENDBRANCH   6  12
BRANCH   1  17
ATOM     17  C   UNL     1       3.089   6.951  19.548  0.00  0.00    +0.000 C 
BRANCH  17  21
ATOM     18  C   UNL     1       2.173   2.318  17.951  0.00  0.00    +0.000 C 
ATOM     19  C   UNL     1       2.141   3.519  18.832  0.00  0.00    +0.000 A 
ATOM     20  N   UNL     1       2.768   4.655  18.593  0.00  0.00    +0.000 NA
ATOM     21  C   UNL     1       2.505   5.569  19.611  0.00  0.00    +0.000 A 
ATOM     22  C   UNL     1       1.676   5.089  20.607  0.00  0.00    +0.000 A 
ATOM     23  S   UNL     1       1.198   3.484  20.269  0.00  0.00    +0.000 S 
ENDBRANCH  17  21
ENDBRANCH   1  17
TORSDOF 4
ENDMDL
MODEL 9
REMARK VINA RESULT:      -6.0      3.019      4.060
REMARK  Name = 
REMARK  5 active torsions:
REMARK  status: ('A' for Active; 'I' for Inactive)
REMARK    1  A    between atoms: C_1  and  C_2
REMARK    2  A    between atoms: C_4  and  C_5
REMARK    3  A    between atoms: C_5  and  N_6
REMARK    4  A    between atoms: C_11  and  C_13
REMARK    5  A    between atoms: C_13  and  C_14
REMARK                            x       y       z     vdW  Elec       q    Type
REMARK                         _______ _______ _______ _____ _____    ______ ____
ROOT
ATOM      1  N   UNL     1       1.173   8.915  19.082  0.00  0.00    +0.000 N 
ATOM      2  C   UNL     1       2.001   8.973  17.906  0.00  0.00    +0.000 C 
ATOM      3  C   UNL     1       2.758   7.671  17.989  0.00  0.00    +0.000 C 
ATOM      4  C   UNL     1       1.908   6.462  17.599  0.00  0.00    +0.000 C 
ATOM      5  N   UNL     1       2.396   5.409  18.470  0.00  0.00    +0.000 N 
ATOM      6  C   UNL     1       2.102   4.087  18.199  0.00  0.00    +0.000 C 
ATOM      7  O   UNL     1       1.499   3.733  17.192  0.00  0.00    +0.000 OA
ATOM      8  C   UNL     1       2.990   5.962  19.684  0.00  0.00    +0.000 C 
ATOM      9  C   UNL     1       2.967   7.470  19.497  0.00  0.00    +0.000 C 
ATOM     10  C   UNL     1       1.744   8.149  20.090  0.00  0.00    +0.000 C 
ATOM     11  O   UNL     1       1.362   8.044  21.242  0.00  0.00    +0.000 OA
ENDROOT
BRANCH   6  12
ATOM     12  C   UNL     1       2.563   3.052  19.174  0.00  0.00    +0.000 C 
ATOM     13  C   UNL     1       4.047   2.736  19.318  0.00  0.00    +0.000 C 
ATOM     14  C   UNL     1       3.163   1.768  18.603  0.00  0.00    +0.000 C 
BRANCH  12  15
ATOM     15  C   UNL     1       1.720   2.900  20.334  0.00  0.00    +0.000 C 
ATOM     16  N   UNL     1       1.049   2.823  21.275  0.00  0.00    +0.000 NA
ENDBRANCH  12  15
ENDBRANCH   6  12
BRANCH   1  17
ATOM     17  C   UNL     1      -0.068   9.653  19.179  0.00  0.00    +0.000 C 
BRANCH  17  21
ATOM     18  C   UNL     1      -1.101  12.773  22.927  0.00  0.00    +0.000 C 
ATOM     19  C   UNL     1      -0.417  12.218  21.726  0.00  0.00    +0.000 A 
ATOM     20  N   UNL     1      -0.721  11.078  21.137  0.00  0.00    +0.000 NA
ATOM     21  C   UNL     1       0.104  10.876  20.032  0.00  0.00    +0.000 A 
ATOM     22  C   UNL     1       1.023  11.887  19.816  0.00  0.00    +0.000 A 
ATOM     23  S   UNL     1       0.851  13.116  20.990  0.00  0.00    +0.000 S 
ENDBRANCH  17  21
ENDBRANCH   1  17
TORSDOF 4
ENDMDL
