MODEL 1
REMARK VINA RESULT:      -8.0      0.000      0.000
REMARK  Name = 
REMARK  12 active torsions:
REMARK  status: ('A' for Active; 'I' for Inactive)
REMARK    1  A    between atoms: C_1  and  C_2
REMARK    2  A    between atoms: C_2  and  C_3
REMARK    3  A    between atoms: C_3  and  C_4
REMARK    4  A    between atoms: C_8  and  O_9
REMARK    5  A    between atoms: O_9  and  C_10
REMARK    6  A    between atoms: C_12  and  C_13
REMARK    7  A    between atoms: C_13  and  C_14
REMARK    8  A    between atoms: C_13  and  O_15
REMARK    9  A    between atoms: C_13  and  C_16
REMARK   10  A    between atoms: N_20  and  C_21
REMARK   11  A    between atoms: C_24  and  C_25
REMARK   12  A    between atoms: N_32  and  C_33
REMARK                            x       y       z     vdW  Elec       q    Type
REMARK                         _______ _______ _______ _____ _____    ______ ____
ROOT
ATOM      1  O   UNL     1       3.337   7.918  17.800  0.00  0.00    +0.000 OA
ENDROOT
BRANCH   1   6
ATOM      2  C   UNL     1       0.579   9.788  19.359  0.00  0.00    +0.000 A 
ATOM      3  C   UNL     1       0.532   9.152  20.615  0.00  0.00    +0.000 A 
ATOM      4  C   UNL     1       1.334   8.049  20.898  0.00  0.00    +0.000 A 
ATOM      5  C   UNL     1       2.197   7.553  19.929  0.00  0.00    +0.000 A 
ATOM      6  C   UNL     1       2.330   8.216  18.707  0.00  0.00    +0.000 A 
ATOM      7  C   UNL     1       1.477   9.277  18.395  0.00  0.00    +0.000 A 
BRANCH   2   8
ATOM      8  C   UNL     1      -0.363  10.977  19.031  0.00  0.00    +0.000 C 
ATOM      9  C   UNL     1      -1.454  11.288  20.101  0.00  0.00    +0.000 C 
ATOM     10  C   UNL     1      -1.032  11.393  21.567  0.00  0.00    +0.000 C 
ATOM     11  C   UNL     1      -0.082  12.535  21.880  0.00  0.00    +0.000 C 
ATOM     12  C   UNL     1       1.238  12.450  21.130  0.00  0.00    +0.000 C 
ATOM     13  N   UNL     1       1.142  12.912  19.748  0.00  0.00    +0.000 N 
ATOM     14  C   UNL     1       2.054  13.966  19.326  0.00  0.00    +0.000 C 
ATOM     15  C   UNL     1       0.445  12.273  18.725  0.00  0.00    +0.000 C 
ATOM     16  O   UNL     1       0.526  12.710  17.571  0.00  0.00    +0.000 OA
BRANCH   8  18
ATOM     17  C   UNL     1      -2.538  10.008  17.861  0.00  0.00    +0.000 C 
ATOM     18  C   UNL     1      -1.101  10.511  17.716  0.00  0.00    +0.000 C 
ENDBRANCH   8  18
ENDBRANCH   2   8
ENDBRANCH   1   6
BRANCH   1  19
ATOM     19  C   UNL     1       3.703   6.582  17.717  0.00  0.00    +0.000 A 
ATOM     20  C   UNL     1       2.812   5.560  18.099  0.00  0.00    +0.000 A 
ATOM     21  C   UNL     1       3.073   4.203  17.840  0.00  0.00    +0.000 A 
ATOM     22  C   UNL     1       4.268   3.907  17.167  0.00  0.00    +0.000 A 
ATOM     23  C   UNL     1       5.220   4.907  16.908  0.00  0.00    +0.000 A 
ATOM     24  C   UNL     1       4.963   6.248  17.223  0.00  0.00    +0.000 A 
BRANCH  21  25
ATOM     25  C   UNL     1       2.073   3.136  18.309  0.00  0.00    +0.000 C 
ATOM     26  C   UNL     1       0.654   3.404  17.789  0.00  0.00    +0.000 C 
BRANCH  25  27
ATOM     27  C   UNL     1       2.050   2.911  19.799  0.00  0.00    +0.000 A 
ATOM     28  C   UNL     1       1.009   3.001  20.710  0.00  0.00    +0.000 A 
ATOM     29  N   UNL     1       1.394   2.620  21.966  0.00  0.00    +0.000 NA
ATOM     30  C   UNL     1       2.658   2.294  21.852  0.00  0.00    +0.000 A 
ATOM     31  N   UNL     1       3.110   2.471  20.574  0.00  0.00    +0.000 N 
ATOM     32  C   UNL     1       4.471   2.208  20.166  0.00  0.00    +0.000 C 
ENDBRANCH  25  27
BRANCH  25  33
ATOM     33  O   UNL     1       2.465   1.891  17.712  0.00  0.00    +0.000 OA
ATOM     34  H   UNL     1       2.225   1.192  18.345  0.00  0.00    +0.000 HD
ENDBRANCH  25  33
ENDBRANCH  21  25
BRANCH  24  35
ATOM     35  C   UNL     1       6.010   7.224  17.066  0.00  0.00    +0.000 C 
ATOM     36  N   UNL     1       6.813   8.053  16.998  0.00  0.00    +0.000 NA
ENDBRANCH  24  35
ENDBRANCH   1  19
TORSDOF 8
ENDMDL
MODEL 2
REMARK VINA RESULT:      -7.5      5.450      9.601
REMARK  Name = 
REMARK  12 active torsions:
REMARK  status: ('A' for Active; 'I' for Inactive)
REMARK    1  A    between atoms: C_1  and  C_2
REMARK    2  A    between atoms: C_2  and  C_3
REMARK    3  A    between atoms: C_3  and  C_4
REMARK    4  A    between atoms: C_8  and  O_9
REMARK    5  A    between atoms: O_9  and  C_10
REMARK    6  A    between atoms: C_12  and  C_13
REMARK    7  A    between atoms: C_13  and  C_14
REMARK    8  A    between atoms: C_13  and  O_15
REMARK    9  A    between atoms: C_13  and  C_16
REMARK   10  A    between atoms: N_20  and  C_21
REMARK   11  A    between atoms: C_24  and  C_25
REMARK   12  A    between atoms: N_32  and  C_33
REMARK                            x       y       z     vdW  Elec       q    Type
REMARK                         _______ _______ _______ _____ _____    ______ ____
ROOT
ATOM      1  O   UNL     1      -2.778  11.828  23.211  0.00  0.00    +0.000 OA
ENDROOT
BRANCH   1   6
ATOM      2  C   UNL     1      -0.020  11.393  20.816  0.00  0.00    +0.000 A 
ATOM      3  C   UNL     1       0.618  10.271  21.379  0.00  0.00    +0.000 A 
ATOM      4  C   UNL     1       0.199   9.734  22.594  0.00  0.00    +0.000 A 
ATOM      5  C   UNL     1      -0.865  10.311  23.276  0.00  0.00    +0.000 A 
ATOM      6  C   UNL     1      -1.573  11.368  22.700  0.00  0.00    +0.000 A 
ATOM      7  C   UNL     1      -1.110  11.953  21.519  0.00  0.00    +0.000 A 
BRANCH   2   8
ATOM      8  C   UNL     1       0.494  12.023  19.493  0.00  0.00    +0.000 C 
ATOM      9  C   UNL     1       1.614  11.226  18.758  0.00  0.00    +0.000 C 
ATOM     10  C   UNL     1       1.423   9.725  18.538  0.00  0.00    +0.000 C 
ATOM     11  C   UNL     1       0.259   9.354  17.637  0.00  0.00    +0.000 C 
ATOM     12  C   UNL     1      -1.091   9.817  18.165  0.00  0.00    +0.000 C 
ATOM     13  N   UNL     1      -1.349  11.231  17.911  0.00  0.00    +0.000 N 
ATOM     14  C   UNL     1      -2.571  11.575  17.198  0.00  0.00    +0.000 C 
ATOM     15  C   UNL     1      -0.677  12.299  18.504  0.00  0.00    +0.000 C 
ATOM     16  O   UNL     1      -1.061  13.453  18.284  0.00  0.00    +0.000 OA
BRANCH   8  18
ATOM     17  C   UNL     1       2.615  13.593  19.767  0.00  0.00    +0.000 C 
ATOM     18  C   UNL     1       1.109  13.401  19.956  0.00  0.00    +0.000 C 
ENDBRANCH   8  18
ENDBRANCH   2   8
ENDBRANCH   1   6
BRANCH   1  19
ATOM     19  C   UNL     1      -3.389  12.850  22.500  0.00  0.00    +0.000 A 
ATOM     20  C   UNL     1      -4.295  12.570  21.459  0.00  0.00    +0.000 A 
ATOM     21  C   UNL     1      -5.079  13.571  20.858  0.00  0.00    +0.000 A 
ATOM     22  C   UNL     1      -4.927  14.874  21.353  0.00  0.00    +0.000 A 
ATOM     23  C   UNL     1      -3.929  15.180  22.293  0.00  0.00    +0.000 A 
ATOM     24  C   UNL     1      -3.121  14.175  22.841  0.00  0.00    +0.000 A 
BRANCH  21  25
ATOM     25  C   UNL     1      -6.027  13.202  19.707  0.00  0.00    +0.000 C 
ATOM     26  C   UNL     1      -7.190  14.194  19.576  0.00  0.00    +0.000 C 
BRANCH  25  27
ATOM     27  C   UNL     1      -6.548  11.788  19.754  0.00  0.00    +0.000 A 
ATOM     28  C   UNL     1      -6.314  10.711  18.911  0.00  0.00    +0.000 A 
ATOM     29  N   UNL     1      -6.908   9.567  19.367  0.00  0.00    +0.000 NA
ATOM     30  C   UNL     1      -7.508   9.913  20.480  0.00  0.00    +0.000 A 
ATOM     31  N   UNL     1      -7.341  11.243  20.749  0.00  0.00    +0.000 N 
ATOM     32  C   UNL     1      -7.911  11.900  21.902  0.00  0.00    +0.000 C 
ENDBRANCH  25  27
BRANCH  25  33
ATOM     33  O   UNL     1      -5.285  13.325  18.485  0.00  0.00    +0.000 OA
ATOM     34  H   UNL     1      -5.813  13.889  17.895  0.00  0.00    +0.000 HD
ENDBRANCH  25  33
ENDBRANCH  21  25
BRANCH  24  35
ATOM     35  C   UNL     1      -2.024  14.540  23.700  0.00  0.00    +0.000 C 
ATOM     36  N   UNL     1      -1.146  14.756  24.421  0.00  0.00    +0.000 NA
ENDBRANCH  24  35
ENDBRANCH   1  19
TORSDOF 8
ENDMDL
MODEL 3
REMARK VINA RESULT:      -7.5      0.935      1.258
REMARK  Name = 
REMARK  12 active torsions:
REMARK  status: ('A' for Active; 'I' for Inactive)
REMARK    1  A    between atoms: C_1  and  C_2
REMARK    2  A    between atoms: C_2  and  C_3
REMARK    3  A    between atoms: C_3  and  C_4
REMARK    4  A    between atoms: C_8  and  O_9
REMARK    5  A    between atoms: O_9  and  C_10
REMARK    6  A    between atoms: C_12  and  C_13
REMARK    7  A    between atoms: C_13  and  C_14
REMARK    8  A    between atoms: C_13  and  O_15
REMARK    9  A    between atoms: C_13  and  C_16
REMARK   10  A    between atoms: N_20  and  C_21
REMARK   11  A    between atoms: C_24  and  C_25
REMARK   12  A    between atoms: N_32  and  C_33
REMARK                            x       y       z     vdW  Elec       q    Type
REMARK                         _______ _______ _______ _____ _____    ______ ____
ROOT
ATOM      1  O   UNL     1       3.714   7.549  17.559  0.00  0.00    +0.000 OA
ENDROOT
BRANCH   1   6
ATOM      2  C   UNL     1       0.925   9.284  19.214  0.00  0.00    +0.000 A 
ATOM      3  C   UNL     1       0.898   8.590  20.439  0.00  0.00    +0.000 A 
ATOM      4  C   UNL     1       1.725   7.492  20.667  0.00  0.00    +0.000 A 
ATOM      5  C   UNL     1       2.594   7.061  19.673  0.00  0.00    +0.000 A 
ATOM      6  C   UNL     1       2.706   7.783  18.483  0.00  0.00    +0.000 A 
ATOM      7  C   UNL     1       1.828   8.837  18.223  0.00  0.00    +0.000 A 
BRANCH   2   8
ATOM      8  C   UNL     1      -0.045  10.465  18.945  0.00  0.00    +0.000 C 
ATOM      9  C   UNL     1      -1.180  10.658  19.996  0.00  0.00    +0.000 C 
ATOM     10  C   UNL     1      -0.812  10.661  21.480  0.00  0.00    +0.000 C 
ATOM     11  C   UNL     1       0.089  11.803  21.914  0.00  0.00    +0.000 C 
ATOM     12  C   UNL     1       1.436  11.817  21.208  0.00  0.00    +0.000 C 
ATOM     13  N   UNL     1       1.371  12.383  19.863  0.00  0.00    +0.000 N 
ATOM     14  C   UNL     1       2.261  13.494  19.556  0.00  0.00    +0.000 C 
ATOM     15  C   UNL     1       0.729  11.805  18.769  0.00  0.00    +0.000 C 
ATOM     16  O   UNL     1       0.835  12.334  17.657  0.00  0.00    +0.000 OA
BRANCH   8  18
ATOM     17  C   UNL     1      -2.218  10.369  17.426  0.00  0.00    +0.000 C 
ATOM     18  C   UNL     1      -0.723  10.082  17.572  0.00  0.00    +0.000 C 
ENDBRANCH   8  18
ENDBRANCH   2   8
ENDBRANCH   1   6
BRANCH   1  19
ATOM     19  C   UNL     1       4.355   6.322  17.657  0.00  0.00    +0.000 A 
ATOM     20  C   UNL     1       3.640   5.154  17.985  0.00  0.00    +0.000 A 
ATOM     21  C   UNL     1       4.215   3.874  17.896  0.00  0.00    +0.000 A 
ATOM     22  C   UNL     1       5.543   3.807  17.450  0.00  0.00    +0.000 A 
ATOM     23  C   UNL     1       6.300   4.974  17.252  0.00  0.00    +0.000 A 
ATOM     24  C   UNL     1       5.723   6.243  17.399  0.00  0.00    +0.000 A 
BRANCH  21  25
ATOM     25  C   UNL     1       3.389   2.642  18.298  0.00  0.00    +0.000 C 
ATOM     26  C   UNL     1       2.210   2.401  17.346  0.00  0.00    +0.000 C 
BRANCH  25  27
ATOM     27  C   UNL     1       2.915   2.647  19.729  0.00  0.00    +0.000 A 
ATOM     28  C   UNL     1       3.576   2.310  20.900  0.00  0.00    +0.000 A 
ATOM     29  N   UNL     1       2.809   2.548  22.007  0.00  0.00    +0.000 NA
ATOM     30  C   UNL     1       1.680   3.028  21.544  0.00  0.00    +0.000 A 
ATOM     31  N   UNL     1       1.681   3.089  20.178  0.00  0.00    +0.000 N 
ATOM     32  C   UNL     1       0.559   3.559  19.400  0.00  0.00    +0.000 C 
ENDBRANCH  25  27
BRANCH  25  33
ATOM     33  O   UNL     1       4.235   1.493  18.150  0.00  0.00    +0.000 OA
ATOM     34  H   UNL     1       4.898   1.721  17.475  0.00  0.00    +0.000 HD
ENDBRANCH  25  33
ENDBRANCH  21  25
BRANCH  24  35
ATOM     35  C   UNL     1       6.558   7.413  17.320  0.00  0.00    +0.000 C 
ATOM     36  N   UNL     1       7.201   8.374  17.331  0.00  0.00    +0.000 NA
ENDBRANCH  24  35
ENDBRANCH   1  19
TORSDOF 8
ENDMDL
MODEL 4
REMARK VINA RESULT:      -7.3      2.536      8.668
REMARK  Name = 
REMARK  12 active torsions:
REMARK  status: ('A' for Active; 'I' for Inactive)
REMARK    1  A    between atoms: C_1  and  C_2
REMARK    2  A    between atoms: C_2  and  C_3
REMARK    3  A    between atoms: C_3  and  C_4
REMARK    4  A    between atoms: C_8  and  O_9
REMARK    5  A    between atoms: O_9  and  C_10
REMARK    6  A    between atoms: C_12  and  C_13
REMARK    7  A    between atoms: C_13  and  C_14
REMARK    8  A    between atoms: C_13  and  O_15
REMARK    9  A    between atoms: C_13  and  C_16
REMARK   10  A    between atoms: N_20  and  C_21
REMARK   11  A    between atoms: C_24  and  C_25
REMARK   12  A    between atoms: N_32  and  C_33
REMARK                            x       y       z     vdW  Elec       q    Type
REMARK                         _______ _______ _______ _____ _____    ______ ____
ROOT
ATOM      1  O   UNL     1       1.232   7.970  20.577  0.00  0.00    +0.000 OA
ENDROOT
BRANCH   1   6
ATOM      2  C   UNL     1       3.477   6.217  18.249  0.00  0.00    +0.000 A 
ATOM      3  C   UNL     1       3.697   7.240  17.306  0.00  0.00    +0.000 A 
ATOM      4  C   UNL     1       3.024   8.457  17.387  0.00  0.00    +0.000 A 
ATOM      5  C   UNL     1       2.112   8.677  18.411  0.00  0.00    +0.000 A 
ATOM      6  C   UNL     1       1.940   7.716  19.411  0.00  0.00    +0.000 A 
ATOM      7  C   UNL     1       2.557   6.469  19.291  0.00  0.00    +0.000 A 
BRANCH   2   8
ATOM      8  C   UNL     1       4.183   4.842  18.113  0.00  0.00    +0.000 C 
ATOM      9  C   UNL     1       4.540   4.407  16.660  0.00  0.00    +0.000 C 
ATOM     10  C   UNL     1       5.252   5.409  15.749  0.00  0.00    +0.000 C 
ATOM     11  C   UNL     1       6.640   5.816  16.207  0.00  0.00    +0.000 C 
ATOM     12  C   UNL     1       6.658   6.491  17.570  0.00  0.00    +0.000 C 
ATOM     13  N   UNL     1       6.574   5.544  18.678  0.00  0.00    +0.000 N 
ATOM     14  C   UNL     1       7.620   5.595  19.689  0.00  0.00    +0.000 C 
ATOM     15  C   UNL     1       5.460   4.771  19.002  0.00  0.00    +0.000 C 
ATOM     16  O   UNL     1       5.479   4.082  20.029  0.00  0.00    +0.000 OA
BRANCH   8  18
ATOM     17  C   UNL     1       2.437   2.898  17.658  0.00  0.00    +0.000 C 
ATOM     18  C   UNL     1       3.114   3.822  18.670  0.00  0.00    +0.000 C 
ENDBRANCH   8  18
ENDBRANCH   2   8
ENDBRANCH   1   6
BRANCH   1  19
ATOM     19  C   UNL     1       0.593   9.200  20.644  0.00  0.00    +0.000 A 
ATOM     20  C   UNL     1       0.012   9.780  19.500  0.00  0.00    +0.000 A 
ATOM     21  C   UNL     1      -0.811  10.917  19.573  0.00  0.00    +0.000 A 
ATOM     22  C   UNL     1      -1.040  11.451  20.850  0.00  0.00    +0.000 A 
ATOM     23  C   UNL     1      -0.354  10.960  21.973  0.00  0.00    +0.000 A 
ATOM     24  C   UNL     1       0.505   9.858  21.871  0.00  0.00    +0.000 A 
BRANCH  21  25
ATOM     25  C   UNL     1      -1.391  11.517  18.283  0.00  0.00    +0.000 C 
ATOM     26  C   UNL     1      -0.795  12.895  17.967  0.00  0.00    +0.000 C 
BRANCH  25  27
ATOM     27  C   UNL     1      -2.897  11.576  18.242  0.00  0.00    +0.000 A 
ATOM     28  C   UNL     1      -3.813  11.930  19.221  0.00  0.00    +0.000 A 
ATOM     29  N   UNL     1      -5.094  11.943  18.742  0.00  0.00    +0.000 NA
ATOM     30  C   UNL     1      -4.990  11.603  17.480  0.00  0.00    +0.000 A 
ATOM     31  N   UNL     1      -3.693  11.350  17.132  0.00  0.00    +0.000 N 
ATOM     32  C   UNL     1      -3.288  10.937  15.808  0.00  0.00    +0.000 C 
ENDBRANCH  25  27
BRANCH  25  33
ATOM     33  O   UNL     1      -0.984  10.671  17.197  0.00  0.00    +0.000 OA
ATOM     34  H   UNL     1      -0.012  10.692  17.179  0.00  0.00    +0.000 HD
ENDBRANCH  25  33
ENDBRANCH  21  25
BRANCH  24  35
ATOM     35  C   UNL     1       1.291   9.465  23.011  0.00  0.00    +0.000 C 
ATOM     36  N   UNL     1       1.890   9.214  23.968  0.00  0.00    +0.000 NA
ENDBRANCH  24  35
ENDBRANCH   1  19
TORSDOF 8
ENDMDL
MODEL 5
REMARK VINA RESULT:      -7.3      1.020      2.072
REMARK  Name = 
REMARK  12 active torsions:
REMARK  status: ('A' for Active; 'I' for Inactive)
REMARK    1  A    between atoms: C_1  and  C_2
REMARK    2  A    between atoms: C_2  and  C_3
REMARK    3  A    between atoms: C_3  and  C_4
REMARK    4  A    between atoms: C_8  and  O_9
REMARK    5  A    between atoms: O_9  and  C_10
REMARK    6  A    between atoms: C_12  and  C_13
REMARK    7  A    between atoms: C_13  and  C_14
REMARK    8  A    between atoms: C_13  and  O_15
REMARK    9  A    between atoms: C_13  and  C_16
REMARK   10  A    between atoms: N_20  and  C_21
REMARK   11  A    between atoms: C_24  and  C_25
REMARK   12  A    between atoms: N_32  and  C_33
REMARK                            x       y       z     vdW  Elec       q    Type
REMARK                         _______ _______ _______ _____ _____    ______ ____
ROOT
ATOM      1  O   UNL     1       3.454   7.908  17.346  0.00  0.00    +0.000 OA
ENDROOT
BRANCH   1   6
ATOM      2  C   UNL     1       1.493  10.356  19.269  0.00  0.00    +0.000 A 
ATOM      3  C   UNL     1       1.113   9.558  20.365  0.00  0.00    +0.000 A 
ATOM      4  C   UNL     1       1.415   8.198  20.410  0.00  0.00    +0.000 A 
ATOM      5  C   UNL     1       2.100   7.606  19.356  0.00  0.00    +0.000 A 
ATOM      6  C   UNL     1       2.567   8.390  18.299  0.00  0.00    +0.000 A 
ATOM      7  C   UNL     1       2.203   9.735  18.216  0.00  0.00    +0.000 A 
BRANCH   2   8
ATOM      8  C   UNL     1       1.097  11.855  19.198  0.00  0.00    +0.000 C 
ATOM      9  C   UNL     1       0.030  12.221  18.122  0.00  0.00    +0.000 C 
ATOM     10  C   UNL     1      -1.243  11.378  18.037  0.00  0.00    +0.000 C 
ATOM     11  C   UNL     1      -2.134  11.440  19.264  0.00  0.00    +0.000 C 
ATOM     12  C   UNL     1      -1.458  10.944  20.533  0.00  0.00    +0.000 C 
ATOM     13  N   UNL     1      -0.570  11.936  21.133  0.00  0.00    +0.000 N 
ATOM     14  C   UNL     1      -0.803  12.295  22.524  0.00  0.00    +0.000 C 
ATOM     15  C   UNL     1       0.632  12.384  20.588  0.00  0.00    +0.000 C 
ATOM     16  O   UNL     1       1.346  13.152  21.244  0.00  0.00    +0.000 OA
BRANCH   8  18
ATOM     17  C   UNL     1       2.334  13.881  18.014  0.00  0.00    +0.000 C 
ATOM     18  C   UNL     1       2.445  12.575  18.801  0.00  0.00    +0.000 C 
ENDBRANCH   8  18
ENDBRANCH   2   8
ENDBRANCH   1   6
BRANCH   1  19
ATOM     19  C   UNL     1       3.824   6.577  17.480  0.00  0.00    +0.000 A 
ATOM     20  C   UNL     1       2.888   5.598  17.862  0.00  0.00    +0.000 A 
ATOM     21  C   UNL     1       3.178   4.223  17.810  0.00  0.00    +0.000 A 
ATOM     22  C   UNL     1       4.452   3.863  17.346  0.00  0.00    +0.000 A 
ATOM     23  C   UNL     1       5.432   4.837  17.095  0.00  0.00    +0.000 A 
ATOM     24  C   UNL     1       5.139   6.203  17.204  0.00  0.00    +0.000 A 
BRANCH  21  25
ATOM     25  C   UNL     1       2.121   3.207  18.270  0.00  0.00    +0.000 C 
ATOM     26  C   UNL     1       0.722   3.548  17.740  0.00  0.00    +0.000 C 
BRANCH  25  27
ATOM     27  C   UNL     1       2.076   2.982  19.760  0.00  0.00    +0.000 A 
ATOM     28  C   UNL     1       1.027   3.101  20.660  0.00  0.00    +0.000 A 
ATOM     29  N   UNL     1       1.387   2.708  21.919  0.00  0.00    +0.000 NA
ATOM     30  C   UNL     1       2.643   2.346  21.819  0.00  0.00    +0.000 A 
ATOM     31  N   UNL     1       3.114   2.510  20.546  0.00  0.00    +0.000 N 
ATOM     32  C   UNL     1       4.471   2.209  20.152  0.00  0.00    +0.000 C 
ENDBRANCH  25  27
BRANCH  25  33
ATOM     33  O   UNL     1       2.454   1.945  17.674  0.00  0.00    +0.000 OA
ATOM     34  H   UNL     1       1.765   1.759  17.014  0.00  0.00    +0.000 HD
ENDBRANCH  25  33
ENDBRANCH  21  25
BRANCH  24  35
ATOM     35  C   UNL     1       6.199   7.167  17.069  0.00  0.00    +0.000 C 
ATOM     36  N   UNL     1       7.063   7.936  17.041  0.00  0.00    +0.000 NA
ENDBRANCH  24  35
ENDBRANCH   1  19
TORSDOF 8
ENDMDL
MODEL 6
REMARK VINA RESULT:      -7.2      2.524      8.667
REMARK  Name = 
REMARK  12 active torsions:
REMARK  status: ('A' for Active; 'I' for Inactive)
REMARK    1  A    between atoms: C_1  and  C_2
REMARK    2  A    between atoms: C_2  and  C_3
REMARK    3  A    between atoms: C_3  and  C_4
REMARK    4  A    between atoms: C_8  and  O_9
REMARK    5  A    between atoms: O_9  and  C_10
REMARK    6  A    between atoms: C_12  and  C_13
REMARK    7  A    between atoms: C_13  and  C_14
REMARK    8  A    between atoms: C_13  and  O_15
REMARK    9  A    between atoms: C_13  and  C_16
REMARK   10  A    between atoms: N_20  and  C_21
REMARK   11  A    between atoms: C_24  and  C_25
REMARK   12  A    between atoms: N_32  and  C_33
REMARK                            x       y       z     vdW  Elec       q    Type
REMARK                         _______ _______ _______ _____ _____    ______ ____
ROOT
ATOM      1  O   UNL     1       1.264   7.909  20.632  0.00  0.00    +0.000 OA
ENDROOT
BRANCH   1   6
ATOM      2  C   UNL     1       3.496   6.196  18.262  0.00  0.00    +0.000 A 
ATOM      3  C   UNL     1       3.691   7.226  17.322  0.00  0.00    +0.000 A 
ATOM      4  C   UNL     1       3.006   8.436  17.421  0.00  0.00    +0.000 A 
ATOM      5  C   UNL     1       2.106   8.639  18.459  0.00  0.00    +0.000 A 
ATOM      6  C   UNL     1       1.958   7.671  19.454  0.00  0.00    +0.000 A 
ATOM      7  C   UNL     1       2.588   6.431  19.318  0.00  0.00    +0.000 A 
BRANCH   2   8
ATOM      8  C   UNL     1       4.215   4.829  18.108  0.00  0.00    +0.000 C 
ATOM      9  C   UNL     1       4.572   4.415  16.648  0.00  0.00    +0.000 C 
ATOM     10  C   UNL     1       5.270   5.435  15.747  0.00  0.00    +0.000 C 
ATOM     11  C   UNL     1       6.656   5.850  16.206  0.00  0.00    +0.000 C 
ATOM     12  C   UNL     1       6.672   6.509  17.576  0.00  0.00    +0.000 C 
ATOM     13  N   UNL     1       6.601   5.548  18.673  0.00  0.00    +0.000 N 
ATOM     14  C   UNL     1       7.650   5.598  19.682  0.00  0.00    +0.000 C 
ATOM     15  C   UNL     1       5.496   4.760  18.992  0.00  0.00    +0.000 C 
ATOM     16  O   UNL     1       5.525   4.060  20.011  0.00  0.00    +0.000 OA
BRANCH   8  18
ATOM     17  C   UNL     1       2.802   2.613  17.750  0.00  0.00    +0.000 C 
ATOM     18  C   UNL     1       3.158   3.792  18.656  0.00  0.00    +0.000 C 
ENDBRANCH   8  18
ENDBRANCH   2   8
ENDBRANCH   1   6
BRANCH   1  19
ATOM     19  C   UNL     1       0.629   9.139  20.724  0.00  0.00    +0.000 A 
ATOM     20  C   UNL     1      -0.002   9.716  19.604  0.00  0.00    +0.000 A 
ATOM     21  C   UNL     1      -0.821  10.853  19.709  0.00  0.00    +0.000 A 
ATOM     22  C   UNL     1      -0.995  11.390  20.993  0.00  0.00    +0.000 A 
ATOM     23  C   UNL     1      -0.262  10.902  22.087  0.00  0.00    +0.000 A 
ATOM     24  C   UNL     1       0.592   9.800  21.951  0.00  0.00    +0.000 A 
BRANCH  21  25
ATOM     25  C   UNL     1      -1.456  11.450  18.444  0.00  0.00    +0.000 C 
ATOM     26  C   UNL     1      -0.971  12.881  18.173  0.00  0.00    +0.000 C 
BRANCH  25  27
ATOM     27  C   UNL     1      -2.962  11.392  18.412  0.00  0.00    +0.000 A 
ATOM     28  C   UNL     1      -3.819  10.588  17.676  0.00  0.00    +0.000 A 
ATOM     29  N   UNL     1      -5.128  10.789  18.018  0.00  0.00    +0.000 NA
ATOM     30  C   UNL     1      -5.100  11.705  18.956  0.00  0.00    +0.000 A 
ATOM     31  N   UNL     1      -3.823  12.118  19.217  0.00  0.00    +0.000 N 
ATOM     32  C   UNL     1      -3.498  13.134  20.192  0.00  0.00    +0.000 C 
ENDBRANCH  25  27
BRANCH  25  33
ATOM     33  O   UNL     1      -0.992  10.676  17.327  0.00  0.00    +0.000 OA
ATOM     34  H   UNL     1      -1.733  10.107  17.058  0.00  0.00    +0.000 HD
ENDBRANCH  25  33
ENDBRANCH  21  25
BRANCH  24  35
ATOM     35  C   UNL     1       1.426   9.410  23.058  0.00  0.00    +0.000 C 
ATOM     36  N   UNL     1       2.107   9.177  23.963  0.00  0.00    +0.000 NA
ENDBRANCH  24  35
ENDBRANCH   1  19
TORSDOF 8
ENDMDL
MODEL 7
REMARK VINA RESULT:      -7.2      1.356      2.400
REMARK  Name = 
REMARK  12 active torsions:
REMARK  status: ('A' for Active; 'I' for Inactive)
REMARK    1  A    between atoms: C_1  and  C_2
REMARK    2  A    between atoms: C_2  and  C_3
REMARK    3  A    between atoms: C_3  and  C_4
REMARK    4  A    between atoms: C_8  and  O_9
REMARK    5  A    between atoms: O_9  and  C_10
REMARK    6  A    between atoms: C_12  and  C_13
REMARK    7  A    between atoms: C_13  and  C_14
REMARK    8  A    between atoms: C_13  and  O_15
REMARK    9  A    between atoms: C_13  and  C_16
REMARK   10  A    between atoms: N_20  and  C_21
REMARK   11  A    between atoms: C_24  and  C_25
REMARK   12  A    between atoms: N_32  and  C_33
REMARK                            x       y       z     vdW  Elec       q    Type
REMARK                         _______ _______ _______ _____ _____    ______ ____
ROOT
ATOM      1  O   UNL     1       3.694   7.350  17.215  0.00  0.00    +0.000 OA
ENDROOT
BRANCH   1   6
ATOM      2  C   UNL     1       1.641   9.726  19.132  0.00  0.00    +0.000 A 
ATOM      3  C   UNL     1       1.362   8.944  20.270  0.00  0.00    +0.000 A 
ATOM      4  C   UNL     1       1.762   7.612  20.349  0.00  0.00    +0.000 A 
ATOM      5  C   UNL     1       2.445   7.030  19.289  0.00  0.00    +0.000 A 
ATOM      6  C   UNL     1       2.814   7.804  18.186  0.00  0.00    +0.000 A 
ATOM      7  C   UNL     1       2.352   9.117  18.073  0.00  0.00    +0.000 A 
BRANCH   2   8
ATOM      8  C   UNL     1       1.137  11.190  19.027  0.00  0.00    +0.000 C 
ATOM      9  C   UNL     1       0.022  11.444  17.968  0.00  0.00    +0.000 C 
ATOM     10  C   UNL     1      -1.189  10.511  17.940  0.00  0.00    +0.000 C 
ATOM     11  C   UNL     1      -2.054  10.548  19.187  0.00  0.00    +0.000 C 
ATOM     12  C   UNL     1      -1.315  10.142  20.453  0.00  0.00    +0.000 C 
ATOM     13  N   UNL     1      -0.487  11.214  20.999  0.00  0.00    +0.000 N 
ATOM     14  C   UNL     1      -0.712  11.599  22.385  0.00  0.00    +0.000 C 
ATOM     15  C   UNL     1       0.667  11.728  20.411  0.00  0.00    +0.000 C 
ATOM     16  O   UNL     1       1.339  12.565  21.026  0.00  0.00    +0.000 OA
BRANCH   8  18
ATOM     17  C   UNL     1       2.200  13.372  17.958  0.00  0.00    +0.000 C 
ATOM     18  C   UNL     1       2.420  11.991  18.575  0.00  0.00    +0.000 C 
ENDBRANCH   8  18
ENDBRANCH   2   8
ENDBRANCH   1   6
BRANCH   1  19
ATOM     19  C   UNL     1       4.355   6.164  17.501  0.00  0.00    +0.000 A 
ATOM     20  C   UNL     1       3.641   5.001  17.848  0.00  0.00    +0.000 A 
ATOM     21  C   UNL     1       4.260   3.742  17.945  0.00  0.00    +0.000 A 
ATOM     22  C   UNL     1       5.633   3.691  17.667  0.00  0.00    +0.000 A 
ATOM     23  C   UNL     1       6.373   4.866  17.455  0.00  0.00    +0.000 A 
ATOM     24  C   UNL     1       5.746   6.118  17.416  0.00  0.00    +0.000 A 
BRANCH  21  25
ATOM     25  C   UNL     1       3.428   2.518  18.357  0.00  0.00    +0.000 C 
ATOM     26  C   UNL     1       2.315   2.208  17.347  0.00  0.00    +0.000 C 
BRANCH  25  27
ATOM     27  C   UNL     1       2.864   2.587  19.753  0.00  0.00    +0.000 A 
ATOM     28  C   UNL     1       3.475   2.399  20.984  0.00  0.00    +0.000 A 
ATOM     29  N   UNL     1       2.620   2.649  22.022  0.00  0.00    +0.000 NA
ATOM     30  C   UNL     1       1.486   2.989  21.458  0.00  0.00    +0.000 A 
ATOM     31  N   UNL     1       1.571   2.947  20.094  0.00  0.00    +0.000 N 
ATOM     32  C   UNL     1       0.465   3.255  19.217  0.00  0.00    +0.000 C 
ENDBRANCH  25  27
BRANCH  25  33
ATOM     33  O   UNL     1       4.299   1.378  18.322  0.00  0.00    +0.000 OA
ATOM     34  H   UNL     1       4.300   1.057  17.404  0.00  0.00    +0.000 HD
ENDBRANCH  25  33
ENDBRANCH  21  25
BRANCH  24  35
ATOM     35  C   UNL     1       6.549   7.310  17.329  0.00  0.00    +0.000 C 
ATOM     36  N   UNL     1       7.261   8.219  17.264  0.00  0.00    +0.000 NA
ENDBRANCH  24  35
ENDBRANCH   1  19
TORSDOF 8
ENDMDL
MODEL 8
REMARK VINA RESULT:      -7.2      5.357     10.454
REMARK  Name = 
REMARK  12 active torsions:
REMARK  status: ('A' for Active; 'I' for Inactive)
REMARK    1  A    between atoms: C_1  and  C_2
REMARK    2  A    between atoms: C_2  and  C_3
REMARK    3  A    between atoms: C_3  and  C_4
REMARK    4  A    between atoms: C_8  and  O_9
REMARK    5  A    between atoms: O_9  and  C_10
REMARK    6  A    between atoms: C_12  and  C_13
REMARK    7  A    between atoms: C_13  and  C_14
REMARK    8  A    between atoms: C_13  and  O_15
REMARK    9  A    between atoms: C_13  and  C_16
REMARK   10  A    between atoms: N_20  and  C_21
REMARK   11  A    between atoms: C_24  and  C_25
REMARK   12  A    between atoms: N_32  and  C_33
REMARK                            x       y       z     vdW  Elec       q    Type
REMARK                         _______ _______ _______ _____ _____    ______ ____
ROOT
ATOM      1  O   UNL     1      -4.300  12.865  19.390  0.00  0.00    +0.000 OA
ENDROOT
BRANCH   1   6
ATOM      2  C   UNL     1      -1.178  10.921  19.376  0.00  0.00    +0.000 A 
ATOM      3  C   UNL     1      -1.310  10.255  18.142  0.00  0.00    +0.000 A 
ATOM      4  C   UNL     1      -2.470  10.370  17.378  0.00  0.00    +0.000 A 
ATOM      5  C   UNL     1      -3.525  11.150  17.834  0.00  0.00    +0.000 A 
ATOM      6  C   UNL     1      -3.387  11.892  19.009  0.00  0.00    +0.000 A 
ATOM      7  C   UNL     1      -2.257  11.722  19.812  0.00  0.00    +0.000 A 
BRANCH   2   8
ATOM      8  C   UNL     1       0.092  10.736  20.250  0.00  0.00    +0.000 C 
ATOM      9  C   UNL     1       1.254   9.935  19.589  0.00  0.00    +0.000 C 
ATOM     10  C   UNL     1       1.691  10.311  18.173  0.00  0.00    +0.000 C 
ATOM     11  C   UNL     1       2.274  11.705  18.033  0.00  0.00    +0.000 C 
ATOM     12  C   UNL     1       1.304  12.812  18.417  0.00  0.00    +0.000 C 
ATOM     13  N   UNL     1       1.200  13.005  19.861  0.00  0.00    +0.000 N 
ATOM     14  C   UNL     1       1.454  14.340  20.383  0.00  0.00    +0.000 C 
ATOM     15  C   UNL     1       0.632  12.104  20.761  0.00  0.00    +0.000 C 
ATOM     16  O   UNL     1       0.510  12.430  21.947  0.00  0.00    +0.000 OA
BRANCH   8  18
ATOM     17  C   UNL     1      -0.115   8.401  21.493  0.00  0.00    +0.000 C 
ATOM     18  C   UNL     1      -0.428   9.898  21.483  0.00  0.00    +0.000 C 
ENDBRANCH   8  18
ENDBRANCH   2   8
ENDBRANCH   1   6
BRANCH   1  19
ATOM     19  C   UNL     1      -4.480  13.028  20.756  0.00  0.00    +0.000 A 
ATOM     20  C   UNL     1      -3.498  13.652  21.548  0.00  0.00    +0.000 A 
ATOM     21  C   UNL     1      -3.732  14.012  22.887  0.00  0.00    +0.000 A 
ATOM     22  C   UNL     1      -5.005  13.730  23.403  0.00  0.00    +0.000 A 
ATOM     23  C   UNL     1      -5.939  12.988  22.661  0.00  0.00    +0.000 A 
ATOM     24  C   UNL     1      -5.666  12.591  21.346  0.00  0.00    +0.000 A 
BRANCH  21  25
ATOM     25  C   UNL     1      -2.607  14.663  23.705  0.00  0.00    +0.000 C 
ATOM     26  C   UNL     1      -2.994  14.844  25.179  0.00  0.00    +0.000 C 
BRANCH  25  27
ATOM     27  C   UNL     1      -2.090  15.960  23.136  0.00  0.00    +0.000 A 
ATOM     28  C   UNL     1      -0.834  16.297  22.653  0.00  0.00    +0.000 A 
ATOM     29  N   UNL     1      -0.809  17.561  22.133  0.00  0.00    +0.000 NA
ATOM     30  C   UNL     1      -2.029  18.018  22.284  0.00  0.00    +0.000 A 
ATOM     31  N   UNL     1      -2.836  17.103  22.902  0.00  0.00    +0.000 N 
ATOM     32  C   UNL     1      -4.225  17.347  23.212  0.00  0.00    +0.000 C 
ENDBRANCH  25  27
BRANCH  25  33
ATOM     33  O   UNL     1      -1.500  13.749  23.714  0.00  0.00    +0.000 OA
ATOM     34  H   UNL     1      -1.033  13.871  22.870  0.00  0.00    +0.000 HD
ENDBRANCH  25  33
ENDBRANCH  21  25
BRANCH  24  35
ATOM     35  C   UNL     1      -6.587  11.721  20.663  0.00  0.00    +0.000 C 
ATOM     36  N   UNL     1      -7.351  10.993  20.188  0.00  0.00    +0.000 NA
ENDBRANCH  24  35
ENDBRANCH   1  19
TORSDOF 8
ENDMDL
MODEL 9
REMARK VINA RESULT:      -7.1      4.348     10.686
REMARK  Name = 
REMARK  12 active torsions:
REMARK  status: ('A' for Active; 'I' for Inactive)
REMARK    1  A    between atoms: C_1  and  C_2
REMARK    2  A    between atoms: C_2  and  C_3
REMARK    3  A    between atoms: C_3  and  C_4
REMARK    4  A    between atoms: C_8  and  O_9
REMARK    5  A    between atoms: O_9  and  C_10
REMARK    6  A    between atoms: C_12  and  C_13
REMARK    7  A    between atoms: C_13  and  C_14
REMARK    8  A    between atoms: C_13  and  O_15
REMARK    9  A    between atoms: C_13  and  C_16
REMARK   10  A    between atoms: N_20  and  C_21
REMARK   11  A    between atoms: C_24  and  C_25
REMARK   12  A    between atoms: N_32  and  C_33
REMARK                            x       y       z     vdW  Elec       q    Type
REMARK                         _______ _______ _______ _____ _____    ______ ____
ROOT
ATOM      1  O   UNL     1      -5.050  12.335  18.796  0.00  0.00    +0.000 OA
ENDROOT
BRANCH   1   6
ATOM      2  C   UNL     1      -1.499  11.378  18.718  0.00  0.00    +0.000 A 
ATOM      3  C   UNL     1      -1.556  10.301  17.813  0.00  0.00    +0.000 A 
ATOM      4  C   UNL     1      -2.773   9.834  17.319  0.00  0.00    +0.000 A 
ATOM      5  C   UNL     1      -3.959  10.431  17.725  0.00  0.00    +0.000 A 
ATOM      6  C   UNL     1      -3.928  11.557  18.551  0.00  0.00    +0.000 A 
ATOM      7  C   UNL     1      -2.717  11.980  19.104  0.00  0.00    +0.000 A 
BRANCH   2   8
ATOM      8  C   UNL     1      -0.144  11.850  19.312  0.00  0.00    +0.000 C 
ATOM      9  C   UNL     1      -0.201  12.397  20.770  0.00  0.00    +0.000 C 
ATOM     10  C   UNL     1      -0.937  11.579  21.832  0.00  0.00    +0.000 C 
ATOM     11  C   UNL     1      -0.329  10.221  22.128  0.00  0.00    +0.000 C 
ATOM     12  C   UNL     1      -0.290   9.295  20.922  0.00  0.00    +0.000 C 
ATOM     13  N   UNL     1       0.814   9.587  20.012  0.00  0.00    +0.000 N 
ATOM     14  C   UNL     1       1.727   8.500  19.690  0.00  0.00    +0.000 C 
ATOM     15  C   UNL     1       0.935  10.729  19.222  0.00  0.00    +0.000 C 
ATOM     16  O   UNL     1       1.867  10.811  18.414  0.00  0.00    +0.000 OA
BRANCH   8  18
ATOM     17  C   UNL     1       0.934  14.256  19.025  0.00  0.00    +0.000 C 
ATOM     18  C   UNL     1       0.277  13.042  18.367  0.00  0.00    +0.000 C 
ENDBRANCH   8  18
ENDBRANCH   2   8
ENDBRANCH   1   6
BRANCH   1  19
ATOM     19  C   UNL     1      -5.184  12.817  20.091  0.00  0.00    +0.000 A 
ATOM     20  C   UNL     1      -4.317  13.809  20.589  0.00  0.00    +0.000 A 
ATOM     21  C   UNL     1      -4.548  14.459  21.814  0.00  0.00    +0.000 A 
ATOM     22  C   UNL     1      -5.698  14.081  22.522  0.00  0.00    +0.000 A 
ATOM     23  C   UNL     1      -6.489  13.001  22.097  0.00  0.00    +0.000 A 
ATOM     24  C   UNL     1      -6.210  12.330  20.899  0.00  0.00    +0.000 A 
BRANCH  21  25
ATOM     25  C   UNL     1      -3.547  15.511  22.315  0.00  0.00    +0.000 C 
ATOM     26  C   UNL     1      -4.141  16.395  23.419  0.00  0.00    +0.000 C 
BRANCH  25  27
ATOM     27  C   UNL     1      -2.941  16.364  21.230  0.00  0.00    +0.000 A 
ATOM     28  C   UNL     1      -1.641  16.427  20.752  0.00  0.00    +0.000 A 
ATOM     29  N   UNL     1      -1.529  17.273  19.683  0.00  0.00    +0.000 NA
ATOM     30  C   UNL     1      -2.739  17.739  19.488  0.00  0.00    +0.000 A 
ATOM     31  N   UNL     1      -3.624  17.240  20.404  0.00  0.00    +0.000 N 
ATOM     32  C   UNL     1      -5.023  17.598  20.437  0.00  0.00    +0.000 C 
ENDBRANCH  25  27
BRANCH  25  33
ATOM     33  O   UNL     1      -2.462  14.807  22.937  0.00  0.00    +0.000 OA
ATOM     34  H   UNL     1      -1.673  14.978  22.395  0.00  0.00    +0.000 HD
ENDBRANCH  25  33
ENDBRANCH  21  25
BRANCH  24  35
ATOM     35  C   UNL     1      -6.958  11.147  20.560  0.00  0.00    +0.000 C 
ATOM     36  N   UNL     1      -7.572  10.186  20.368  0.00  0.00    +0.000 NA
ENDBRANCH  24  35
ENDBRANCH   1  19
TORSDOF 8
ENDMDL
