MODEL 1
REMARK VINA RESULT:      -7.5      0.000      0.000
REMARK  Name = 
REMARK  10 active torsions:
REMARK  status: ('A' for Active; 'I' for Inactive)
REMARK    1  A    between atoms: C_2  and  C_3
REMARK    2  A    between atoms: C_3  and  N_4
REMARK    3  A    between atoms: C_5  and  S_6
REMARK    4  A    between atoms: S_6  and  C_7
REMARK    5  A    between atoms: C_7  and  C_8
REMARK    6  A    between atoms: C_8  and  O_10
REMARK    7  A    between atoms: O_10  and  C_11
REMARK    8  A    between atoms: C_11  and  C_12
REMARK    9  A    between atoms: N_23  and  C_24
REMARK   10  A    between atoms: N_27  and  C_28
REMARK                            x       y       z     vdW  Elec       q    Type
REMARK                         _______ _______ _______ _____ _____    ______ ____
ROOT
ATOM      1  N   UNL     1       4.614   5.115  17.956  0.00  0.00    +0.000 N 
ATOM      2  C   UNL     1       5.861   4.575  18.228  0.00  0.00    +0.000 A 
ATOM      3  N   UNL     1       5.794   3.608  19.115  0.00  0.00    +0.000 NA
ATOM      4  C   UNL     1       4.471   3.516  19.423  0.00  0.00    +0.000 A 
ATOM      5  C   UNL     1       3.712   4.411  18.725  0.00  0.00    +0.000 A 
ATOM      6  C   UNL     1       2.291   4.479  18.856  0.00  0.00    +0.000 A 
ATOM      7  O   UNL     1       1.587   5.224  18.183  0.00  0.00    +0.000 OA
ATOM      8  N   UNL     1       1.788   3.592  19.818  0.00  0.00    +0.000 N 
ATOM      9  C   UNL     1       0.359   3.588  20.081  0.00  0.00    +0.000 C 
ATOM     10  C   UNL     1       2.545   2.647  20.538  0.00  0.00    +0.000 A 
ATOM     11  O   UNL     1       2.002   1.869  21.330  0.00  0.00    +0.000 OA
ATOM     12  N   UNL     1       3.920   2.624  20.309  0.00  0.00    +0.000 N 
ATOM     13  C   UNL     1       4.763   1.666  20.996  0.00  0.00    +0.000 C 
ENDROOT
BRANCH   1  14
ATOM     14  C   UNL     1       4.288   6.165  16.998  0.00  0.00    +0.000 C 
BRANCH  14  16
ATOM     15  C   UNL     1       2.873   8.172  17.560  0.00  0.00    +0.000 C 
ATOM     16  C   UNL     1       4.026   7.494  17.651  0.00  0.00    +0.000 C 
ENDBRANCH  14  16
ENDBRANCH   1  14
BRANCH   2  17
ATOM     17  S   UNL     1       7.330   5.110  17.474  0.00  0.00    +0.000 S 
BRANCH  17  18
ATOM     18  C   UNL     1       7.890   6.445  18.596  0.00  0.00    +0.000 C 
BRANCH  18  19
ATOM     19  C   UNL     1       7.850   7.799  17.897  0.00  0.00    +0.000 C 
ATOM     20  O   UNL     1       7.313   8.038  16.825  0.00  0.00    +0.000 OA
BRANCH  19  21
ATOM     21  O   UNL     1       8.548   8.730  18.626  0.00  0.00    +0.000 OA
BRANCH  21  22
ATOM     22  C   UNL     1       8.596  10.070  18.083  0.00  0.00    +0.000 C 
BRANCH  22  23
ATOM     23  C   UNL     1       9.701  10.902  18.705  0.00  0.00    +0.000 A 
ATOM     24  C   UNL     1      10.686  11.517  17.925  0.00  0.00    +0.000 A 
ATOM     25  C   UNL     1      11.676  12.311  18.517  0.00  0.00    +0.000 A 
ATOM     26  C   UNL     1      11.685  12.507  19.898  0.00  0.00    +0.000 A 
ATOM     27  C   UNL     1      10.697  11.922  20.685  0.00  0.00    +0.000 A 
ATOM     28  C   UNL     1       9.708  11.130  20.092  0.00  0.00    +0.000 A 
ENDBRANCH  22  23
ENDBRANCH  21  22
ENDBRANCH  19  21
ENDBRANCH  18  19
ENDBRANCH  17  18
ENDBRANCH   2  17
TORSDOF 8
ENDMDL
MODEL 2
REMARK VINA RESULT:      -7.3      1.891      2.846
REMARK  Name = 
REMARK  10 active torsions:
REMARK  status: ('A' for Active; 'I' for Inactive)
REMARK    1  A    between atoms: C_2  and  C_3
REMARK    2  A    between atoms: C_3  and  N_4
REMARK    3  A    between atoms: C_5  and  S_6
REMARK    4  A    between atoms: S_6  and  C_7
REMARK    5  A    between atoms: C_7  and  C_8
REMARK    6  A    between atoms: C_8  and  O_10
REMARK    7  A    between atoms: O_10  and  C_11
REMARK    8  A    between atoms: C_11  and  C_12
REMARK    9  A    between atoms: N_23  and  C_24
REMARK   10  A    between atoms: N_27  and  C_28
REMARK                            x       y       z     vdW  Elec       q    Type
REMARK                         _______ _______ _______ _____ _____    ______ ____
ROOT
ATOM      1  N   UNL     1       4.809   4.584  16.807  0.00  0.00    +0.000 N 
ATOM      2  C   UNL     1       5.144   5.902  17.070  0.00  0.00    +0.000 A 
ATOM      3  N   UNL     1       4.355   6.437  17.974  0.00  0.00    +0.000 NA
ATOM      4  C   UNL     1       3.490   5.439  18.308  0.00  0.00    +0.000 A 
ATOM      5  C   UNL     1       3.742   4.284  17.627  0.00  0.00    +0.000 A 
ATOM      6  C   UNL     1       2.986   3.090  17.835  0.00  0.00    +0.000 A 
ATOM      7  O   UNL     1       3.246   2.023  17.288  0.00  0.00    +0.000 OA
ATOM      8  N   UNL     1       1.932   3.262  18.742  0.00  0.00    +0.000 N 
ATOM      9  C   UNL     1       1.056   2.134  19.014  0.00  0.00    +0.000 C 
ATOM     10  C   UNL     1       1.660   4.436  19.471  0.00  0.00    +0.000 A 
ATOM     11  O   UNL     1       0.737   4.475  20.291  0.00  0.00    +0.000 OA
ATOM     12  N   UNL     1       2.482   5.537  19.235  0.00  0.00    +0.000 N 
ATOM     13  C   UNL     1       2.279   6.774  19.962  0.00  0.00    +0.000 C 
ENDROOT
BRANCH   1  14
ATOM     14  C   UNL     1       5.483   3.657  15.904  0.00  0.00    +0.000 C 
BRANCH  14  16
ATOM     15  C   UNL     1       6.234   3.837  13.506  0.00  0.00    +0.000 C 
ATOM     16  C   UNL     1       5.303   4.016  14.454  0.00  0.00    +0.000 C 
ENDBRANCH  14  16
ENDBRANCH   1  14
BRANCH   2  17
ATOM     17  S   UNL     1       6.457   6.737  16.302  0.00  0.00    +0.000 S 
BRANCH  17  18
ATOM     18  C   UNL     1       6.950   7.959  17.574  0.00  0.00    +0.000 C 
BRANCH  18  19
ATOM     19  C   UNL     1       8.016   7.384  18.500  0.00  0.00    +0.000 C 
ATOM     20  O   UNL     1       8.087   6.226  18.882  0.00  0.00    +0.000 OA
BRANCH  19  21
ATOM     21  O   UNL     1       8.885   8.372  18.893  0.00  0.00    +0.000 OA
BRANCH  21  22
ATOM     22  C   UNL     1       8.597   9.710  18.424  0.00  0.00    +0.000 C 
BRANCH  22  23
ATOM     23  C   UNL     1       9.572  10.733  18.971  0.00  0.00    +0.000 A 
ATOM     24  C   UNL     1       9.527  11.153  20.304  0.00  0.00    +0.000 A 
ATOM     25  C   UNL     1      10.462  12.072  20.796  0.00  0.00    +0.000 A 
ATOM     26  C   UNL     1      11.460  12.574  19.962  0.00  0.00    +0.000 A 
ATOM     27  C   UNL     1      11.533  12.146  18.639  0.00  0.00    +0.000 A 
ATOM     28  C   UNL     1      10.600  11.228  18.149  0.00  0.00    +0.000 A 
ENDBRANCH  22  23
ENDBRANCH  21  22
ENDBRANCH  19  21
ENDBRANCH  18  19
ENDBRANCH  17  18
ENDBRANCH   2  17
TORSDOF 8
ENDMDL
MODEL 3
REMARK VINA RESULT:      -7.2      3.197      7.313
REMARK  Name = 
REMARK  10 active torsions:
REMARK  status: ('A' for Active; 'I' for Inactive)
REMARK    1  A    between atoms: C_2  and  C_3
REMARK    2  A    between atoms: C_3  and  N_4
REMARK    3  A    between atoms: C_5  and  S_6
REMARK    4  A    between atoms: S_6  and  C_7
REMARK    5  A    between atoms: C_7  and  C_8
REMARK    6  A    between atoms: C_8  and  O_10
REMARK    7  A    between atoms: O_10  and  C_11
REMARK    8  A    between atoms: C_11  and  C_12
REMARK    9  A    between atoms: N_23  and  C_24
REMARK   10  A    between atoms: N_27  and  C_28
REMARK                            x       y       z     vdW  Elec       q    Type
REMARK                         _______ _______ _______ _____ _____    ______ ____
ROOT
ATOM      1  N   UNL     1       4.568   3.553  19.005  0.00  0.00    +0.000 N 
ATOM      2  C   UNL     1       3.781   3.186  17.926  0.00  0.00    +0.000 A 
ATOM      3  N   UNL     1       4.132   3.816  16.826  0.00  0.00    +0.000 NA
ATOM      4  C   UNL     1       5.174   4.607  17.203  0.00  0.00    +0.000 A 
ATOM      5  C   UNL     1       5.483   4.466  18.524  0.00  0.00    +0.000 A 
ATOM      6  C   UNL     1       6.563   5.171  19.140  0.00  0.00    +0.000 A 
ATOM      7  O   UNL     1       6.901   5.000  20.306  0.00  0.00    +0.000 OA
ATOM      8  N   UNL     1       7.204   6.059  18.266  0.00  0.00    +0.000 N 
ATOM      9  C   UNL     1       8.297   6.870  18.775  0.00  0.00    +0.000 C 
ATOM     10  C   UNL     1       6.919   6.211  16.895  0.00  0.00    +0.000 A 
ATOM     11  O   UNL     1       7.576   6.984  16.191  0.00  0.00    +0.000 OA
ATOM     12  N   UNL     1       5.876   5.446  16.373  0.00  0.00    +0.000 N 
ATOM     13  C   UNL     1       5.536   5.531  14.967  0.00  0.00    +0.000 C 
ENDROOT
BRANCH   1  14
ATOM     14  C   UNL     1       4.509   3.036  20.367  0.00  0.00    +0.000 C 
BRANCH  14  16
ATOM     15  C   UNL     1       5.477   1.022  21.530  0.00  0.00    +0.000 C 
ATOM     16  C   UNL     1       4.898   1.586  20.461  0.00  0.00    +0.000 C 
ENDBRANCH  14  16
ENDBRANCH   1  14
BRANCH   2  17
ATOM     17  S   UNL     1       2.495   2.025  18.018  0.00  0.00    +0.000 S 
BRANCH  17  18
ATOM     18  C   UNL     1       1.074   3.047  18.559  0.00  0.00    +0.000 C 
BRANCH  18  19
ATOM     19  C   UNL     1       1.089   3.247  20.071  0.00  0.00    +0.000 C 
ATOM     20  O   UNL     1       1.264   2.375  20.909  0.00  0.00    +0.000 OA
BRANCH  19  21
ATOM     21  O   UNL     1       0.831   4.560  20.378  0.00  0.00    +0.000 OA
BRANCH  21  22
ATOM     22  C   UNL     1       1.977   5.386  20.691  0.00  0.00    +0.000 C 
BRANCH  22  23
ATOM     23  C   UNL     1       1.995   6.672  19.889  0.00  0.00    +0.000 A 
ATOM     24  C   UNL     1       2.487   6.716  18.581  0.00  0.00    +0.000 A 
ATOM     25  C   UNL     1       2.460   7.907  17.845  0.00  0.00    +0.000 A 
ATOM     26  C   UNL     1       1.929   9.067  18.408  0.00  0.00    +0.000 A 
ATOM     27  C   UNL     1       1.412   9.034  19.700  0.00  0.00    +0.000 A 
ATOM     28  C   UNL     1       1.439   7.843  20.433  0.00  0.00    +0.000 A 
ENDBRANCH  22  23
ENDBRANCH  21  22
ENDBRANCH  19  21
ENDBRANCH  18  19
ENDBRANCH  17  18
ENDBRANCH   2  17
TORSDOF 8
ENDMDL
MODEL 4
REMARK VINA RESULT:      -7.0      4.110      7.961
REMARK  Name = 
REMARK  10 active torsions:
REMARK  status: ('A' for Active; 'I' for Inactive)
REMARK    1  A    between atoms: C_2  and  C_3
REMARK    2  A    between atoms: C_3  and  N_4
REMARK    3  A    between atoms: C_5  and  S_6
REMARK    4  A    between atoms: S_6  and  C_7
REMARK    5  A    between atoms: C_7  and  C_8
REMARK    6  A    between atoms: C_8  and  O_10
REMARK    7  A    between atoms: O_10  and  C_11
REMARK    8  A    between atoms: C_11  and  C_12
REMARK    9  A    between atoms: N_23  and  C_24
REMARK   10  A    between atoms: N_27  and  C_28
REMARK                            x       y       z     vdW  Elec       q    Type
REMARK                         _______ _______ _______ _____ _____    ______ ____
ROOT
ATOM      1  N   UNL     1       3.845   6.199  17.446  0.00  0.00    +0.000 N 
ATOM      2  C   UNL     1       3.010   7.082  18.113  0.00  0.00    +0.000 A 
ATOM      3  N   UNL     1       2.206   6.461  18.947  0.00  0.00    +0.000 NA
ATOM      4  C   UNL     1       2.532   5.145  18.821  0.00  0.00    +0.000 A 
ATOM      5  C   UNL     1       3.540   4.942  17.924  0.00  0.00    +0.000 A 
ATOM      6  C   UNL     1       4.074   3.646  17.649  0.00  0.00    +0.000 A 
ATOM      7  O   UNL     1       5.029   3.455  16.902  0.00  0.00    +0.000 OA
ATOM      8  N   UNL     1       3.406   2.623  18.336  0.00  0.00    +0.000 N 
ATOM      9  C   UNL     1       3.823   1.249  18.115  0.00  0.00    +0.000 C 
ATOM     10  C   UNL     1       2.377   2.805  19.280  0.00  0.00    +0.000 A 
ATOM     11  O   UNL     1       1.884   1.842  19.876  0.00  0.00    +0.000 OA
ATOM     12  N   UNL     1       1.953   4.113  19.516  0.00  0.00    +0.000 N 
ATOM     13  C   UNL     1       0.914   4.382  20.489  0.00  0.00    +0.000 C 
ENDROOT
BRANCH   1  14
ATOM     14  C   UNL     1       4.895   6.520  16.486  0.00  0.00    +0.000 C 
BRANCH  14  16
ATOM     15  C   UNL     1       7.209   6.118  17.398  0.00  0.00    +0.000 C 
ATOM     16  C   UNL     1       6.182   6.940  17.142  0.00  0.00    +0.000 C 
ENDBRANCH  14  16
ENDBRANCH   1  14
BRANCH   2  17
ATOM     17  S   UNL     1       3.036   8.801  17.877  0.00  0.00    +0.000 S 
BRANCH  17  18
ATOM     18  C   UNL     1       1.254   9.222  17.824  0.00  0.00    +0.000 C 
BRANCH  18  19
ATOM     19  C   UNL     1       0.838   9.996  19.071  0.00  0.00    +0.000 C 
ATOM     20  O   UNL     1       1.272   9.824  20.200  0.00  0.00    +0.000 OA
BRANCH  19  21
ATOM     21  O   UNL     1      -0.142  10.905  18.760  0.00  0.00    +0.000 OA
BRANCH  21  22
ATOM     22  C   UNL     1      -1.503  10.513  19.055  0.00  0.00    +0.000 C 
BRANCH  22  23
ATOM     23  C   UNL     1      -2.402  10.593  17.837  0.00  0.00    +0.000 A 
ATOM     24  C   UNL     1      -3.543  11.401  17.818  0.00  0.00    +0.000 A 
ATOM     25  C   UNL     1      -4.339  11.488  16.669  0.00  0.00    +0.000 A 
ATOM     26  C   UNL     1      -3.994  10.775  15.521  0.00  0.00    +0.000 A 
ATOM     27  C   UNL     1      -2.847   9.987  15.516  0.00  0.00    +0.000 A 
ATOM     28  C   UNL     1      -2.053   9.901  16.664  0.00  0.00    +0.000 A 
ENDBRANCH  22  23
ENDBRANCH  21  22
ENDBRANCH  19  21
ENDBRANCH  18  19
ENDBRANCH  17  18
ENDBRANCH   2  17
TORSDOF 8
ENDMDL
MODEL 5
REMARK VINA RESULT:      -7.0      6.182      9.893
REMARK  Name = 
REMARK  10 active torsions:
REMARK  status: ('A' for Active; 'I' for Inactive)
REMARK    1  A    between atoms: C_2  and  C_3
REMARK    2  A    between atoms: C_3  and  N_4
REMARK    3  A    between atoms: C_5  and  S_6
REMARK    4  A    between atoms: S_6  and  C_7
REMARK    5  A    between atoms: C_7  and  C_8
REMARK    6  A    between atoms: C_8  and  O_10
REMARK    7  A    between atoms: O_10  and  C_11
REMARK    8  A    between atoms: C_11  and  C_12
REMARK    9  A    between atoms: N_23  and  C_24
REMARK   10  A    between atoms: N_27  and  C_28
REMARK                            x       y       z     vdW  Elec       q    Type
REMARK                         _______ _______ _______ _____ _____    ______ ____
ROOT
ATOM      1  N   UNL     1      -0.769  11.368  19.755  0.00  0.00    +0.000 N 
ATOM      2  C   UNL     1      -0.127  10.590  18.806  0.00  0.00    +0.000 A 
ATOM      3  N   UNL     1      -0.919  10.286  17.802  0.00  0.00    +0.000 NA
ATOM      4  C   UNL     1      -2.103  10.886  18.107  0.00  0.00    +0.000 A 
ATOM      5  C   UNL     1      -2.050  11.571  19.287  0.00  0.00    +0.000 A 
ATOM      6  C   UNL     1      -3.162  12.308  19.797  0.00  0.00    +0.000 A 
ATOM      7  O   UNL     1      -3.110  12.989  20.816  0.00  0.00    +0.000 OA
ATOM      8  N   UNL     1      -4.310  12.186  19.001  0.00  0.00    +0.000 N 
ATOM      9  C   UNL     1      -5.528  12.855  19.429  0.00  0.00    +0.000 C 
ATOM     10  C   UNL     1      -4.387  11.503  17.772  0.00  0.00    +0.000 A 
ATOM     11  O   UNL     1      -5.433  11.496  17.114  0.00  0.00    +0.000 OA
ATOM     12  N   UNL     1      -3.236  10.851  17.333  0.00  0.00    +0.000 N 
ATOM     13  C   UNL     1      -3.230  10.144  16.067  0.00  0.00    +0.000 C 
ENDROOT
BRANCH   1  14
ATOM     14  C   UNL     1      -0.203  11.934  20.974  0.00  0.00    +0.000 C 
BRANCH  14  16
ATOM     15  C   UNL     1      -1.272  10.958  23.037  0.00  0.00    +0.000 C 
ATOM     16  C   UNL     1      -0.272  10.992  22.145  0.00  0.00    +0.000 C 
ENDBRANCH  14  16
ENDBRANCH   1  14
BRANCH   2  17
ATOM     17  S   UNL     1       1.530  10.089  18.928  0.00  0.00    +0.000 S 
BRANCH  17  18
ATOM     18  C   UNL     1       1.609   8.683  17.756  0.00  0.00    +0.000 C 
BRANCH  18  19
ATOM     19  C   UNL     1       2.795   7.778  18.068  0.00  0.00    +0.000 C 
ATOM     20  O   UNL     1       3.784   7.622  17.367  0.00  0.00    +0.000 OA
BRANCH  19  21
ATOM     21  O   UNL     1       2.585   7.111  19.249  0.00  0.00    +0.000 OA
BRANCH  21  22
ATOM     22  C   UNL     1       3.333   5.888  19.442  0.00  0.00    +0.000 C 
BRANCH  22  23
ATOM     23  C   UNL     1       2.483   4.653  19.221  0.00  0.00    +0.000 A 
ATOM     24  C   UNL     1       2.693   3.801  18.132  0.00  0.00    +0.000 A 
ATOM     25  C   UNL     1       1.919   2.646  17.967  0.00  0.00    +0.000 A 
ATOM     26  C   UNL     1       0.932   2.324  18.898  0.00  0.00    +0.000 A 
ATOM     27  C   UNL     1       0.728   3.148  20.000  0.00  0.00    +0.000 A 
ATOM     28  C   UNL     1       1.501   4.301  20.164  0.00  0.00    +0.000 A 
ENDBRANCH  22  23
ENDBRANCH  21  22
ENDBRANCH  19  21
ENDBRANCH  18  19
ENDBRANCH  17  18
ENDBRANCH   2  17
TORSDOF 8
ENDMDL
MODEL 6
REMARK VINA RESULT:      -6.9      6.159      9.907
REMARK  Name = 
REMARK  10 active torsions:
REMARK  status: ('A' for Active; 'I' for Inactive)
REMARK    1  A    between atoms: C_2  and  C_3
REMARK    2  A    between atoms: C_3  and  N_4
REMARK    3  A    between atoms: C_5  and  S_6
REMARK    4  A    between atoms: S_6  and  C_7
REMARK    5  A    between atoms: C_7  and  C_8
REMARK    6  A    between atoms: C_8  and  O_10
REMARK    7  A    between atoms: O_10  and  C_11
REMARK    8  A    between atoms: C_11  and  C_12
REMARK    9  A    between atoms: N_23  and  C_24
REMARK   10  A    between atoms: N_27  and  C_28
REMARK                            x       y       z     vdW  Elec       q    Type
REMARK                         _______ _______ _______ _____ _____    ______ ____
ROOT
ATOM      1  N   UNL     1      -0.889  11.295  19.947  0.00  0.00    +0.000 N 
ATOM      2  C   UNL     1      -0.182  10.524  19.039  0.00  0.00    +0.000 A 
ATOM      3  N   UNL     1      -0.890  10.261  17.964  0.00  0.00    +0.000 NA
ATOM      4  C   UNL     1      -2.084  10.880  18.179  0.00  0.00    +0.000 A 
ATOM      5  C   UNL     1      -2.120  11.537  19.375  0.00  0.00    +0.000 A 
ATOM      6  C   UNL     1      -3.257  12.287  19.805  0.00  0.00    +0.000 A 
ATOM      7  O   UNL     1      -3.279  12.944  20.841  0.00  0.00    +0.000 OA
ATOM      8  N   UNL     1      -4.333  12.209  18.910  0.00  0.00    +0.000 N 
ATOM      9  C   UNL     1      -5.569  12.895  19.246  0.00  0.00    +0.000 C 
ATOM     10  C   UNL     1      -4.317  11.555  17.662  0.00  0.00    +0.000 A 
ATOM     11  O   UNL     1      -5.301  11.586  16.916  0.00  0.00    +0.000 OA
ATOM     12  N   UNL     1      -3.145  10.887  17.309  0.00  0.00    +0.000 N 
ATOM     13  C   UNL     1      -3.044  10.209  16.032  0.00  0.00    +0.000 C 
ENDROOT
BRANCH   1  14
ATOM     14  C   UNL     1      -0.420  11.820  21.224  0.00  0.00    +0.000 C 
BRANCH  14  16
ATOM     15  C   UNL     1      -0.462   9.775  22.695  0.00  0.00    +0.000 C 
ATOM     16  C   UNL     1      -0.892  11.010  22.401  0.00  0.00    +0.000 C 
ENDBRANCH  14  16
ENDBRANCH   1  14
BRANCH   2  17
ATOM     17  S   UNL     1       1.447   9.984  19.292  0.00  0.00    +0.000 S 
BRANCH  17  18
ATOM     18  C   UNL     1       1.864   9.207  17.686  0.00  0.00    +0.000 C 
BRANCH  18  19
ATOM     19  C   UNL     1       2.755   7.986  17.884  0.00  0.00    +0.000 C 
ATOM     20  O   UNL     1       3.934   7.900  17.576  0.00  0.00    +0.000 OA
BRANCH  19  21
ATOM     21  O   UNL     1       2.031   6.955  18.429  0.00  0.00    +0.000 OA
BRANCH  21  22
ATOM     22  C   UNL     1       2.470   5.615  18.104  0.00  0.00    +0.000 C 
BRANCH  22  23
ATOM     23  C   UNL     1       2.107   4.614  19.183  0.00  0.00    +0.000 A 
ATOM     24  C   UNL     1       2.562   4.752  20.498  0.00  0.00    +0.000 A 
ATOM     25  C   UNL     1       2.184   3.836  21.487  0.00  0.00    +0.000 A 
ATOM     26  C   UNL     1       1.337   2.774  21.172  0.00  0.00    +0.000 A 
ATOM     27  C   UNL     1       0.856   2.636  19.873  0.00  0.00    +0.000 A 
ATOM     28  C   UNL     1       1.233   3.553  18.887  0.00  0.00    +0.000 A 
ENDBRANCH  22  23
ENDBRANCH  21  22
ENDBRANCH  19  21
ENDBRANCH  18  19
ENDBRANCH  17  18
ENDBRANCH   2  17
TORSDOF 8
ENDMDL
MODEL 7
REMARK VINA RESULT:      -6.9      7.075     10.573
REMARK  Name = 
REMARK  10 active torsions:
REMARK  status: ('A' for Active; 'I' for Inactive)
REMARK    1  A    between atoms: C_2  and  C_3
REMARK    2  A    between atoms: C_3  and  N_4
REMARK    3  A    between atoms: C_5  and  S_6
REMARK    4  A    between atoms: S_6  and  C_7
REMARK    5  A    between atoms: C_7  and  C_8
REMARK    6  A    between atoms: C_8  and  O_10
REMARK    7  A    between atoms: O_10  and  C_11
REMARK    8  A    between atoms: C_11  and  C_12
REMARK    9  A    between atoms: N_23  and  C_24
REMARK   10  A    between atoms: N_27  and  C_28
REMARK                            x       y       z     vdW  Elec       q    Type
REMARK                         _______ _______ _______ _____ _____    ______ ____
ROOT
ATOM      1  N   UNL     1      -1.674  12.428  20.133  0.00  0.00    +0.000 N 
ATOM      2  C   UNL     1      -0.911  11.909  19.100  0.00  0.00    +0.000 A 
ATOM      3  N   UNL     1      -1.657  11.491  18.102  0.00  0.00    +0.000 NA
ATOM      4  C   UNL     1      -2.934  11.751  18.497  0.00  0.00    +0.000 A 
ATOM      5  C   UNL     1      -2.988  12.338  19.728  0.00  0.00    +0.000 A 
ATOM      6  C   UNL     1      -4.219  12.732  20.337  0.00  0.00    +0.000 A 
ATOM      7  O   UNL     1      -4.281  13.327  21.408  0.00  0.00    +0.000 OA
ATOM      8  N   UNL     1      -5.342  12.386  19.573  0.00  0.00    +0.000 N 
ATOM      9  C   UNL     1      -6.662  12.694  20.097  0.00  0.00    +0.000 C 
ATOM     10  C   UNL     1      -5.315  11.798  18.294  0.00  0.00    +0.000 A 
ATOM     11  O   UNL     1      -6.360  11.577  17.673  0.00  0.00    +0.000 OA
ATOM     12  N   UNL     1      -4.063  11.490  17.761  0.00  0.00    +0.000 N 
ATOM     13  C   UNL     1      -3.952  10.903  16.440  0.00  0.00    +0.000 C 
ENDROOT
BRANCH   1  14
ATOM     14  C   UNL     1      -1.200  13.026  21.376  0.00  0.00    +0.000 C 
BRANCH  14  16
ATOM     15  C   UNL     1      -1.910  11.521  23.267  0.00  0.00    +0.000 C 
ATOM     16  C   UNL     1      -0.959  12.012  22.461  0.00  0.00    +0.000 C 
ENDBRANCH  14  16
ENDBRANCH   1  14
BRANCH   2  17
ATOM     17  S   UNL     1       0.822  11.833  19.122  0.00  0.00    +0.000 S 
BRANCH  17  18
ATOM     18  C   UNL     1       1.140  10.275  20.034  0.00  0.00    +0.000 C 
BRANCH  18  19
ATOM     19  C   UNL     1       1.391   9.120  19.071  0.00  0.00    +0.000 C 
ATOM     20  O   UNL     1       1.309   9.170  17.853  0.00  0.00    +0.000 OA
BRANCH  19  21
ATOM     21  O   UNL     1       1.685   7.976  19.770  0.00  0.00    +0.000 OA
BRANCH  21  22
ATOM     22  C   UNL     1       2.566   7.031  19.119  0.00  0.00    +0.000 C 
BRANCH  22  23
ATOM     23  C   UNL     1       2.062   5.605  19.232  0.00  0.00    +0.000 A 
ATOM     24  C   UNL     1       1.658   5.062  20.455  0.00  0.00    +0.000 A 
ATOM     25  C   UNL     1       1.161   3.755  20.529  0.00  0.00    +0.000 A 
ATOM     26  C   UNL     1       1.054   2.979  19.376  0.00  0.00    +0.000 A 
ATOM     27  C   UNL     1       1.429   3.514  18.147  0.00  0.00    +0.000 A 
ATOM     28  C   UNL     1       1.924   4.819  18.074  0.00  0.00    +0.000 A 
ENDBRANCH  22  23
ENDBRANCH  21  22
ENDBRANCH  19  21
ENDBRANCH  18  19
ENDBRANCH  17  18
ENDBRANCH   2  17
TORSDOF 8
ENDMDL
MODEL 8
REMARK VINA RESULT:      -6.9      7.061     10.568
REMARK  Name = 
REMARK  10 active torsions:
REMARK  status: ('A' for Active; 'I' for Inactive)
REMARK    1  A    between atoms: C_2  and  C_3
REMARK    2  A    between atoms: C_3  and  N_4
REMARK    3  A    between atoms: C_5  and  S_6
REMARK    4  A    between atoms: S_6  and  C_7
REMARK    5  A    between atoms: C_7  and  C_8
REMARK    6  A    between atoms: C_8  and  O_10
REMARK    7  A    between atoms: O_10  and  C_11
REMARK    8  A    between atoms: C_11  and  C_12
REMARK    9  A    between atoms: N_23  and  C_24
REMARK   10  A    between atoms: N_27  and  C_28
REMARK                            x       y       z     vdW  Elec       q    Type
REMARK                         _______ _______ _______ _____ _____    ______ ____
ROOT
ATOM      1  N   UNL     1      -2.581  10.657  18.241  0.00  0.00    +0.000 N 
ATOM      2  C   UNL     1      -1.333  10.950  18.768  0.00  0.00    +0.000 A 
ATOM      3  N   UNL     1      -1.383  11.950  19.619  0.00  0.00    +0.000 NA
ATOM      4  C   UNL     1      -2.696  12.311  19.646  0.00  0.00    +0.000 A 
ATOM      5  C   UNL     1      -3.466  11.535  18.829  0.00  0.00    +0.000 A 
ATOM      6  C   UNL     1      -4.879  11.705  18.717  0.00  0.00    +0.000 A 
ATOM      7  O   UNL     1      -5.596  10.970  18.045  0.00  0.00    +0.000 OA
ATOM      8  N   UNL     1      -5.362  12.785  19.470  0.00  0.00    +0.000 N 
ATOM      9  C   UNL     1      -6.780  13.094  19.414  0.00  0.00    +0.000 C 
ATOM     10  C   UNL     1      -4.594  13.589  20.335  0.00  0.00    +0.000 A 
ATOM     11  O   UNL     1      -5.120  14.487  21.001  0.00  0.00    +0.000 OA
ATOM     12  N   UNL     1      -3.228  13.317  20.413  0.00  0.00    +0.000 N 
ATOM     13  C   UNL     1      -2.377  14.087  21.297  0.00  0.00    +0.000 C 
ENDROOT
BRANCH   1  14
ATOM     14  C   UNL     1      -2.925   9.589  17.309  0.00  0.00    +0.000 C 
BRANCH  14  16
ATOM     15  C   UNL     1      -3.307  10.902  15.192  0.00  0.00    +0.000 C 
ATOM     16  C   UNL     1      -2.651   9.952  15.874  0.00  0.00    +0.000 C 
ENDBRANCH  14  16
ENDBRANCH   1  14
BRANCH   2  17
ATOM     17  S   UNL     1       0.116  10.087  18.358  0.00  0.00    +0.000 S 
BRANCH  17  18
ATOM     18  C   UNL     1       1.022  10.053  19.950  0.00  0.00    +0.000 C 
BRANCH  18  19
ATOM     19  C   UNL     1       1.304   8.619  20.387  0.00  0.00    +0.000 C 
ATOM     20  O   UNL     1       1.115   8.159  21.503  0.00  0.00    +0.000 OA
BRANCH  19  21
ATOM     21  O   UNL     1       1.850   7.906  19.350  0.00  0.00    +0.000 OA
BRANCH  21  22
ATOM     22  C   UNL     1       2.716   6.804  19.709  0.00  0.00    +0.000 C 
BRANCH  22  23
ATOM     23  C   UNL     1       2.069   5.457  19.454  0.00  0.00    +0.000 A 
ATOM     24  C   UNL     1       2.030   4.890  18.177  0.00  0.00    +0.000 A 
ATOM     25  C   UNL     1       1.460   3.628  17.971  0.00  0.00    +0.000 A 
ATOM     26  C   UNL     1       0.930   2.914  19.045  0.00  0.00    +0.000 A 
ATOM     27  C   UNL     1       0.983   3.454  20.326  0.00  0.00    +0.000 A 
ATOM     28  C   UNL     1       1.554   4.714  20.531  0.00  0.00    +0.000 A 
ENDBRANCH  22  23
ENDBRANCH  21  22
ENDBRANCH  19  21
ENDBRANCH  18  19
ENDBRANCH  17  18
ENDBRANCH   2  17
TORSDOF 8
ENDMDL
MODEL 9
REMARK VINA RESULT:      -6.9      4.160      7.975
REMARK  Name = 
REMARK  10 active torsions:
REMARK  status: ('A' for Active; 'I' for Inactive)
REMARK    1  A    between atoms: C_2  and  C_3
REMARK    2  A    between atoms: C_3  and  N_4
REMARK    3  A    between atoms: C_5  and  S_6
REMARK    4  A    between atoms: S_6  and  C_7
REMARK    5  A    between atoms: C_7  and  C_8
REMARK    6  A    between atoms: C_8  and  O_10
REMARK    7  A    between atoms: O_10  and  C_11
REMARK    8  A    between atoms: C_11  and  C_12
REMARK    9  A    between atoms: N_23  and  C_24
REMARK   10  A    between atoms: N_27  and  C_28
REMARK                            x       y       z     vdW  Elec       q    Type
REMARK                         _______ _______ _______ _____ _____    ______ ____
ROOT
ATOM      1  N   UNL     1       3.598   6.194  17.498  0.00  0.00    +0.000 N 
ATOM      2  C   UNL     1       2.649   6.967  18.147  0.00  0.00    +0.000 A 
ATOM      3  N   UNL     1       1.876   6.243  18.926  0.00  0.00    +0.000 NA
ATOM      4  C   UNL     1       2.339   4.971  18.780  0.00  0.00    +0.000 A 
ATOM      5  C   UNL     1       3.401   4.898  17.926  0.00  0.00    +0.000 A 
ATOM      6  C   UNL     1       4.076   3.672  17.642  0.00  0.00    +0.000 A 
ATOM      7  O   UNL     1       5.077   3.601  16.937  0.00  0.00    +0.000 OA
ATOM      8  N   UNL     1       3.486   2.566  18.270  0.00  0.00    +0.000 N 
ATOM      9  C   UNL     1       4.051   1.248  18.032  0.00  0.00    +0.000 C 
ATOM     10  C   UNL     1       2.403   2.614  19.169  0.00  0.00    +0.000 A 
ATOM     11  O   UNL     1       1.985   1.588  19.715  0.00  0.00    +0.000 OA
ATOM     12  N   UNL     1       1.839   3.864  19.420  0.00  0.00    +0.000 N 
ATOM     13  C   UNL     1       0.735   3.997  20.349  0.00  0.00    +0.000 C 
ENDROOT
BRANCH   1  14
ATOM     14  C   UNL     1       4.651   6.649  16.597  0.00  0.00    +0.000 C 
BRANCH  14  16
ATOM     15  C   UNL     1       7.133   6.454  16.980  0.00  0.00    +0.000 C 
ATOM     16  C   UNL     1       5.938   6.962  17.310  0.00  0.00    +0.000 C 
ENDBRANCH  14  16
ENDBRANCH   1  14
BRANCH   2  17
ATOM     17  S   UNL     1       2.510   8.686  17.959  0.00  0.00    +0.000 S 
BRANCH  17  18
ATOM     18  C   UNL     1       1.643   9.186  19.494  0.00  0.00    +0.000 C 
BRANCH  18  19
ATOM     19  C   UNL     1       0.733  10.384  19.242  0.00  0.00    +0.000 C 
ATOM     20  O   UNL     1       1.094  11.545  19.114  0.00  0.00    +0.000 OA
BRANCH  19  21
ATOM     21  O   UNL     1      -0.580   9.986  19.220  0.00  0.00    +0.000 OA
BRANCH  21  22
ATOM     22  C   UNL     1      -1.568  11.029  19.055  0.00  0.00    +0.000 C 
BRANCH  22  23
ATOM     23  C   UNL     1      -2.381  10.855  17.787  0.00  0.00    +0.000 A 
ATOM     24  C   UNL     1      -2.004   9.951  16.790  0.00  0.00    +0.000 A 
ATOM     25  C   UNL     1      -2.790   9.780  15.644  0.00  0.00    +0.000 A 
ATOM     26  C   UNL     1      -3.970  10.506  15.488  0.00  0.00    +0.000 A 
ATOM     27  C   UNL     1      -4.372  11.391  16.484  0.00  0.00    +0.000 A 
ATOM     28  C   UNL     1      -3.587  11.560  17.628  0.00  0.00    +0.000 A 
ENDBRANCH  22  23
ENDBRANCH  21  22
ENDBRANCH  19  21
ENDBRANCH  18  19
ENDBRANCH  17  18
ENDBRANCH   2  17
TORSDOF 8
ENDMDL
