MODEL 1
REMARK VINA RESULT:      -5.1      0.000      0.000
REMARK  Name = 
REMARK  3 active torsions:
REMARK  status: ('A' for Active; 'I' for Inactive)
REMARK    1  A    between atoms: C_1  and  O_2
REMARK    2  A    between atoms: O_2  and  C_3
REMARK    3  A    between atoms: C_9  and  O_10
REMARK                            x       y       z     vdW  Elec       q    Type
REMARK                         _______ _______ _______ _____ _____    ______ ____
ROOT
ATOM      1  C   UNL     1       3.736   2.713  19.924  0.00  0.00    +0.000 C 
ATOM      2  C   UNL     1       4.546   3.731  19.130  0.00  0.00    +0.000 C 
ATOM      3  O   UNL     1       5.750   3.909  19.310  0.00  0.00    +0.000 OA
ATOM      4  C   UNL     1       3.787   4.468  18.047  0.00  0.00    +0.000 C 
ATOM      5  C   UNL     1       3.193   3.456  17.074  0.00  0.00    +0.000 C 
ATOM      6  C   UNL     1       2.396   2.358  17.785  0.00  0.00    +0.000 C 
ATOM      7  C   UNL     1       3.193   1.688  18.914  0.00  0.00    +0.000 C 
ENDROOT
BRANCH   1   9
ATOM      8  C   UNL     1       1.974   2.721  21.541  0.00  0.00    +0.000 C 
ATOM      9  O   UNL     1       2.712   3.465  20.583  0.00  0.00    +0.000 OA
ENDBRANCH   1   9
BRANCH   7  10
ATOM     10  O   UNL     1       4.228   0.866  18.368  0.00  0.00    +0.000 OA
ATOM     11  H   UNL     1       4.937   0.742  19.025  0.00  0.00    +0.000 HD
ENDBRANCH   7  10
TORSDOF 2
ENDMDL
MODEL 2
REMARK VINA RESULT:      -5.0      2.927      4.410
REMARK  Name = 
REMARK  3 active torsions:
REMARK  status: ('A' for Active; 'I' for Inactive)
REMARK    1  A    between atoms: C_1  and  O_2
REMARK    2  A    between atoms: O_2  and  C_3
REMARK    3  A    between atoms: C_9  and  O_10
REMARK                            x       y       z     vdW  Elec       q    Type
REMARK                         _______ _______ _______ _____ _____    ______ ____
ROOT
ATOM      1  C   UNL     1       6.564   5.519  18.185  0.00  0.00    +0.000 C 
ATOM      2  C   UNL     1       7.153   4.708  17.037  0.00  0.00    +0.000 C 
ATOM      3  O   UNL     1       8.245   4.146  17.112  0.00  0.00    +0.000 OA
ATOM      4  C   UNL     1       6.273   4.575  15.812  0.00  0.00    +0.000 C 
ATOM      5  C   UNL     1       4.943   3.949  16.216  0.00  0.00    +0.000 C 
ATOM      6  C   UNL     1       4.292   4.669  17.400  0.00  0.00    +0.000 C 
ATOM      7  C   UNL     1       5.249   4.831  18.590  0.00  0.00    +0.000 C 
ENDROOT
BRANCH   1   9
ATOM      8  C   UNL     1       7.579   7.600  17.586  0.00  0.00    +0.000 C 
ATOM      9  O   UNL     1       6.381   6.841  17.667  0.00  0.00    +0.000 OA
ENDBRANCH   1   9
BRANCH   7  10
ATOM     10  O   UNL     1       5.473   3.567  19.219  0.00  0.00    +0.000 OA
ATOM     11  H   UNL     1       6.383   3.265  19.048  0.00  0.00    +0.000 HD
ENDBRANCH   7  10
TORSDOF 2
ENDMDL
MODEL 3
REMARK VINA RESULT:      -4.9      3.548      5.227
REMARK  Name = 
REMARK  3 active torsions:
REMARK  status: ('A' for Active; 'I' for Inactive)
REMARK    1  A    between atoms: C_1  and  O_2
REMARK    2  A    between atoms: O_2  and  C_3
REMARK    3  A    between atoms: C_9  and  O_10
REMARK                            x       y       z     vdW  Elec       q    Type
REMARK                         _______ _______ _______ _____ _____    ______ ____
ROOT
ATOM      1  C   UNL     1       7.259   6.136  17.259  0.00  0.00    +0.000 C 
ATOM      2  C   UNL     1       6.807   5.447  15.977  0.00  0.00    +0.000 C 
ATOM      3  O   UNL     1       7.563   4.761  15.290  0.00  0.00    +0.000 OA
ATOM      4  C   UNL     1       5.341   5.601  15.635  0.00  0.00    +0.000 C 
ATOM      5  C   UNL     1       4.498   5.074  16.791  0.00  0.00    +0.000 C 
ATOM      6  C   UNL     1       4.910   5.675  18.138  0.00  0.00    +0.000 C 
ATOM      7  C   UNL     1       6.417   5.546  18.404  0.00  0.00    +0.000 C 
ENDROOT
BRANCH   1   9
ATOM      8  C   UNL     1       7.922   8.378  17.762  0.00  0.00    +0.000 C 
ATOM      9  O   UNL     1       7.034   7.533  17.045  0.00  0.00    +0.000 OA
ENDBRANCH   1   9
BRANCH   7  10
ATOM     10  O   UNL     1       6.756   4.184  18.677  0.00  0.00    +0.000 OA
ATOM     11  H   UNL     1       7.279   4.128  19.498  0.00  0.00    +0.000 HD
ENDBRANCH   7  10
TORSDOF 2
ENDMDL
MODEL 4
REMARK VINA RESULT:      -4.9      3.440      4.916
REMARK  Name = 
REMARK  3 active torsions:
REMARK  status: ('A' for Active; 'I' for Inactive)
REMARK    1  A    between atoms: C_1  and  O_2
REMARK    2  A    between atoms: O_2  and  C_3
REMARK    3  A    between atoms: C_9  and  O_10
REMARK                            x       y       z     vdW  Elec       q    Type
REMARK                         _______ _______ _______ _____ _____    ______ ____
ROOT
ATOM      1  C   UNL     1       6.421   4.448  17.053  0.00  0.00    +0.000 C 
ATOM      2  C   UNL     1       7.658   4.741  17.894  0.00  0.00    +0.000 C 
ATOM      3  O   UNL     1       8.638   3.998  17.916  0.00  0.00    +0.000 OA
ATOM      4  C   UNL     1       7.636   6.050  18.654  0.00  0.00    +0.000 C 
ATOM      5  C   UNL     1       7.436   7.198  17.670  0.00  0.00    +0.000 C 
ATOM      6  C   UNL     1       6.239   6.972  16.743  0.00  0.00    +0.000 C 
ATOM      7  C   UNL     1       6.281   5.604  16.047  0.00  0.00    +0.000 C 
ENDROOT
BRANCH   1   9
ATOM      8  C   UNL     1       4.109   3.944  17.402  0.00  0.00    +0.000 C 
ATOM      9  O   UNL     1       5.336   4.364  17.982  0.00  0.00    +0.000 OA
ENDBRANCH   1   9
BRANCH   7  10
ATOM     10  O   UNL     1       7.311   5.586  15.056  0.00  0.00    +0.000 OA
ATOM     11  H   UNL     1       7.287   4.744  14.565  0.00  0.00    +0.000 HD
ENDBRANCH   7  10
TORSDOF 2
ENDMDL
MODEL 5
REMARK VINA RESULT:      -4.9      1.861      3.223
REMARK  Name = 
REMARK  3 active torsions:
REMARK  status: ('A' for Active; 'I' for Inactive)
REMARK    1  A    between atoms: C_1  and  O_2
REMARK    2  A    between atoms: O_2  and  C_3
REMARK    3  A    between atoms: C_9  and  O_10
REMARK                            x       y       z     vdW  Elec       q    Type
REMARK                         _______ _______ _______ _____ _____    ______ ____
ROOT
ATOM      1  C   UNL     1       3.242   3.849  18.675  0.00  0.00    +0.000 C 
ATOM      2  C   UNL     1       1.734   4.061  18.613  0.00  0.00    +0.000 C 
ATOM      3  O   UNL     1       1.111   4.100  17.552  0.00  0.00    +0.000 OA
ATOM      4  C   UNL     1       1.031   4.151  19.951  0.00  0.00    +0.000 C 
ATOM      5  C   UNL     1       1.310   2.883  20.750  0.00  0.00    +0.000 C 
ATOM      6  C   UNL     1       2.803   2.557  20.829  0.00  0.00    +0.000 C 
ATOM      7  C   UNL     1       3.477   2.540  19.449  0.00  0.00    +0.000 C 
ENDROOT
BRANCH   1   9
ATOM      8  C   UNL     1       5.167   5.175  19.180  0.00  0.00    +0.000 C 
ATOM      9  O   UNL     1       3.766   5.006  19.335  0.00  0.00    +0.000 OA
ENDBRANCH   1   9
BRANCH   7  10
ATOM     10  O   UNL     1       3.058   1.392  18.708  0.00  0.00    +0.000 OA
ATOM     11  H   UNL     1       3.783   0.742  18.660  0.00  0.00    +0.000 HD
ENDBRANCH   7  10
TORSDOF 2
ENDMDL
MODEL 6
REMARK VINA RESULT:      -4.9      1.094      1.155
REMARK  Name = 
REMARK  3 active torsions:
REMARK  status: ('A' for Active; 'I' for Inactive)
REMARK    1  A    between atoms: C_1  and  O_2
REMARK    2  A    between atoms: O_2  and  C_3
REMARK    3  A    between atoms: C_9  and  O_10
REMARK                            x       y       z     vdW  Elec       q    Type
REMARK                         _______ _______ _______ _____ _____    ______ ____
ROOT
ATOM      1  C   UNL     1       3.076   2.785  19.953  0.00  0.00    +0.000 C 
ATOM      2  C   UNL     1       4.077   3.785  19.386  0.00  0.00    +0.000 C 
ATOM      3  O   UNL     1       5.283   3.549  19.314  0.00  0.00    +0.000 OA
ATOM      4  C   UNL     1       3.484   5.069  18.848  0.00  0.00    +0.000 C 
ATOM      5  C   UNL     1       2.466   4.735  17.763  0.00  0.00    +0.000 C 
ATOM      6  C   UNL     1       1.439   3.696  18.224  0.00  0.00    +0.000 C 
ATOM      7  C   UNL     1       2.096   2.442  18.818  0.00  0.00    +0.000 C 
ENDROOT
BRANCH   1   9
ATOM      8  C   UNL     1       1.494   2.655  21.742  0.00  0.00    +0.000 C 
ATOM      9  O   UNL     1       2.458   3.446  21.062  0.00  0.00    +0.000 OA
ENDBRANCH   1   9
BRANCH   7  10
ATOM     10  O   UNL     1       2.715   1.671  17.784  0.00  0.00    +0.000 OA
ATOM     11  H   UNL     1       3.499   2.139  17.443  0.00  0.00    +0.000 HD
ENDBRANCH   7  10
TORSDOF 2
ENDMDL
MODEL 7
REMARK VINA RESULT:      -4.8      1.501      3.118
REMARK  Name = 
REMARK  3 active torsions:
REMARK  status: ('A' for Active; 'I' for Inactive)
REMARK    1  A    between atoms: C_1  and  O_2
REMARK    2  A    between atoms: O_2  and  C_3
REMARK    3  A    between atoms: C_9  and  O_10
REMARK                            x       y       z     vdW  Elec       q    Type
REMARK                         _______ _______ _______ _____ _____    ______ ____
ROOT
ATOM      1  C   UNL     1       3.472   3.557  20.107  0.00  0.00    +0.000 C 
ATOM      2  C   UNL     1       3.128   2.478  19.087  0.00  0.00    +0.000 C 
ATOM      3  O   UNL     1       3.812   1.467  18.932  0.00  0.00    +0.000 OA
ATOM      4  C   UNL     1       1.843   2.693  18.317  0.00  0.00    +0.000 C 
ATOM      5  C   UNL     1       0.684   2.818  19.300  0.00  0.00    +0.000 C 
ATOM      6  C   UNL     1       0.956   3.849  20.398  0.00  0.00    +0.000 C 
ATOM      7  C   UNL     1       2.300   3.620  21.103  0.00  0.00    +0.000 C 
ENDROOT
BRANCH   1   9
ATOM      8  C   UNL     1       5.001   5.150  19.189  0.00  0.00    +0.000 C 
ATOM      9  O   UNL     1       3.645   4.760  19.351  0.00  0.00    +0.000 OA
ENDBRANCH   1   9
BRANCH   7  10
ATOM     10  O   UNL     1       2.232   2.455  21.930  0.00  0.00    +0.000 OA
ATOM     11  H   UNL     1       1.923   2.697  22.822  0.00  0.00    +0.000 HD
ENDBRANCH   7  10
TORSDOF 2
ENDMDL
MODEL 8
REMARK VINA RESULT:      -4.8      3.895      5.430
REMARK  Name = 
REMARK  3 active torsions:
REMARK  status: ('A' for Active; 'I' for Inactive)
REMARK    1  A    between atoms: C_1  and  O_2
REMARK    2  A    between atoms: O_2  and  C_3
REMARK    3  A    between atoms: C_9  and  O_10
REMARK                            x       y       z     vdW  Elec       q    Type
REMARK                         _______ _______ _______ _____ _____    ______ ____
ROOT
ATOM      1  C   UNL     1       6.503   4.191  16.059  0.00  0.00    +0.000 C 
ATOM      2  C   UNL     1       5.096   4.740  16.266  0.00  0.00    +0.000 C 
ATOM      3  O   UNL     1       4.125   4.015  16.481  0.00  0.00    +0.000 OA
ATOM      4  C   UNL     1       4.976   6.249  16.262  0.00  0.00    +0.000 C 
ATOM      5  C   UNL     1       5.886   6.827  17.340  0.00  0.00    +0.000 C 
ATOM      6  C   UNL     1       7.318   6.296  17.245  0.00  0.00    +0.000 C 
ATOM      7  C   UNL     1       7.376   4.763  17.190  0.00  0.00    +0.000 C 
ENDROOT
BRANCH   1   9
ATOM      8  C   UNL     1       6.279   3.916  13.694  0.00  0.00    +0.000 C 
ATOM      9  O   UNL     1       6.898   4.629  14.755  0.00  0.00    +0.000 OA
ENDBRANCH   1   9
BRANCH   7  10
ATOM     10  O   UNL     1       7.039   4.209  18.465  0.00  0.00    +0.000 OA
ATOM     11  H   UNL     1       6.465   4.826  18.955  0.00  0.00    +0.000 HD
ENDBRANCH   7  10
TORSDOF 2
ENDMDL
MODEL 9
REMARK VINA RESULT:      -4.8      4.402      5.428
REMARK  Name = 
REMARK  3 active torsions:
REMARK  status: ('A' for Active; 'I' for Inactive)
REMARK    1  A    between atoms: C_1  and  O_2
REMARK    2  A    between atoms: O_2  and  C_3
REMARK    3  A    between atoms: C_9  and  O_10
REMARK                            x       y       z     vdW  Elec       q    Type
REMARK                         _______ _______ _______ _____ _____    ______ ____
ROOT
ATOM      1  C   UNL     1       6.811   6.540  17.721  0.00  0.00    +0.000 C 
ATOM      2  C   UNL     1       7.310   5.159  17.316  0.00  0.00    +0.000 C 
ATOM      3  O   UNL     1       7.759   4.350  18.128  0.00  0.00    +0.000 OA
ATOM      4  C   UNL     1       7.155   4.811  15.851  0.00  0.00    +0.000 C 
ATOM      5  C   UNL     1       5.686   4.929  15.461  0.00  0.00    +0.000 C 
ATOM      6  C   UNL     1       5.077   6.272  15.871  0.00  0.00    +0.000 C 
ATOM      7  C   UNL     1       5.318   6.602  17.351  0.00  0.00    +0.000 C 
ENDROOT
BRANCH   1   9
ATOM      8  C   UNL     1       8.011   8.609  17.746  0.00  0.00    +0.000 C 
ATOM      9  O   UNL     1       7.619   7.470  16.993  0.00  0.00    +0.000 OA
ENDBRANCH   1   9
BRANCH   7  10
ATOM     10  O   UNL     1       4.520   5.755  18.183  0.00  0.00    +0.000 OA
ATOM     11  H   UNL     1       3.880   6.289  18.687  0.00  0.00    +0.000 HD
ENDBRANCH   7  10
TORSDOF 2
ENDMDL
