MODEL 1
REMARK VINA RESULT:      -8.4      0.000      0.000
REMARK  Name = 
REMARK  4 active torsions:
REMARK  status: ('A' for Active; 'I' for Inactive)
REMARK    1  A    between atoms: C_1  and  N_2
REMARK    2  A    between atoms: C_8  and  C_9
REMARK    3  A    between atoms: N_11  and  N_12
REMARK    4  A    between atoms: N_15  and  C_16
REMARK                            x       y       z     vdW  Elec       q    Type
REMARK                         _______ _______ _______ _____ _____    ______ ____
ROOT
ATOM      1  C   UNL     1       6.952   5.868  16.521  0.00  0.00    +0.000 C 
ATOM      2  O   UNL     1       7.727   6.060  15.584  0.00  0.00    +0.000 OA
ATOM      3  N   UNL     1       6.548   6.882  17.373  0.00  0.00    +0.000 N 
ATOM      4  H   UNL     1       6.307   6.680  18.348  0.00  0.00    +0.000 HD
ENDROOT
BRANCH   1  12
ATOM      5  C   UNL     1       4.343   3.738  19.979  0.00  0.00    +0.000 C 
ATOM      6  N   UNL     1       4.707   3.838  18.574  0.00  0.00    +0.000 N 
ATOM      7  C   UNL     1       3.838   3.323  17.637  0.00  0.00    +0.000 C 
ATOM      8  O   UNL     1       2.776   2.765  17.901  0.00  0.00    +0.000 OA
ATOM      9  N   UNL     1       4.196   3.471  16.331  0.00  0.00    +0.000 N 
ATOM     10  C   UNL     1       5.272   4.158  15.854  0.00  0.00    +0.000 C 
ATOM     11  O   UNL     1       5.372   4.390  14.650  0.00  0.00    +0.000 OA
ATOM     12  C   UNL     1       6.337   4.516  16.834  0.00  0.00    +0.000 C 
ATOM     13  C   UNL     1       5.939   4.409  18.282  0.00  0.00    +0.000 C 
ATOM     14  O   UNL     1       6.726   4.742  19.172  0.00  0.00    +0.000 OA
ATOM     15  H   UNL     1       3.508   3.172  15.654  0.00  0.00    +0.000 HD
ENDBRANCH   1  12
BRANCH   3  16
ATOM     16  N   UNL     1       7.031   8.198  17.165  0.00  0.00    +0.000 N 
ATOM     17  C   UNL     1       8.063   8.598  18.003  0.00  0.00    +0.000 C 
ATOM     18  O   UNL     1       8.497   7.830  18.861  0.00  0.00    +0.000 OA
ATOM     19  N   UNL     1       8.435   9.912  17.806  0.00  0.00    +0.000 N 
ATOM     20  H   UNL     1       7.018   8.517  16.198  0.00  0.00    +0.000 HD
ATOM     21  H   UNL     1       7.778  10.480  17.291  0.00  0.00    +0.000 HD
BRANCH  19  22
ATOM     22  C   UNL     1       9.448  10.597  18.520  0.00  0.00    +0.000 A 
ATOM     23  C   UNL     1       9.406  10.791  19.904  0.00  0.00    +0.000 A 
ATOM     24  C   UNL     1      10.416  11.500  20.561  0.00  0.00    +0.000 A 
ATOM     25  C   UNL     1      11.487  12.020  19.842  0.00  0.00    +0.000 A 
ATOM     26  C   UNL     1      11.554  11.816  18.465  0.00  0.00    +0.000 A 
ATOM     27  C   UNL     1      10.546  11.100  17.808  0.00  0.00    +0.000 A 
ENDBRANCH  19  22
ENDBRANCH   3  16
TORSDOF 3
ENDMDL
MODEL 2
REMARK VINA RESULT:      -8.4      0.075      1.005
REMARK  Name = 
REMARK  4 active torsions:
REMARK  status: ('A' for Active; 'I' for Inactive)
REMARK    1  A    between atoms: C_1  and  N_2
REMARK    2  A    between atoms: C_8  and  C_9
REMARK    3  A    between atoms: N_11  and  N_12
REMARK    4  A    between atoms: N_15  and  C_16
REMARK                            x       y       z     vdW  Elec       q    Type
REMARK                         _______ _______ _______ _____ _____    ______ ____
ROOT
ATOM      1  C   UNL     1       6.949   5.910  16.575  0.00  0.00    +0.000 C 
ATOM      2  O   UNL     1       7.746   6.111  15.659  0.00  0.00    +0.000 OA
ATOM      3  N   UNL     1       6.500   6.920  17.409  0.00  0.00    +0.000 N 
ATOM      4  H   UNL     1       6.236   6.720  18.378  0.00  0.00    +0.000 HD
ENDROOT
BRANCH   1  12
ATOM      5  C   UNL     1       4.289   3.748  19.974  0.00  0.00    +0.000 C 
ATOM      6  N   UNL     1       4.689   3.847  18.579  0.00  0.00    +0.000 N 
ATOM      7  C   UNL     1       3.857   3.308  17.622  0.00  0.00    +0.000 C 
ATOM      8  O   UNL     1       2.799   2.730  17.860  0.00  0.00    +0.000 OA
ATOM      9  N   UNL     1       4.249   3.455  16.325  0.00  0.00    +0.000 N 
ATOM     10  C   UNL     1       5.323   4.161  15.873  0.00  0.00    +0.000 C 
ATOM     11  O   UNL     1       5.452   4.388  14.671  0.00  0.00    +0.000 OA
ATOM     12  C   UNL     1       6.353   4.547  16.880  0.00  0.00    +0.000 C 
ATOM     13  C   UNL     1       5.917   4.441  18.317  0.00  0.00    +0.000 C 
ATOM     14  O   UNL     1       6.672   4.795  19.226  0.00  0.00    +0.000 OA
ATOM     15  H   UNL     1       3.586   3.138  15.631  0.00  0.00    +0.000 HD
ENDBRANCH   1  12
BRANCH   3  16
ATOM     16  N   UNL     1       6.962   8.245  17.205  0.00  0.00    +0.000 N 
ATOM     17  C   UNL     1       8.037   8.633  17.993  0.00  0.00    +0.000 C 
ATOM     18  O   UNL     1       8.523   7.848  18.807  0.00  0.00    +0.000 OA
ATOM     19  N   UNL     1       8.388   9.954  17.807  0.00  0.00    +0.000 N 
ATOM     20  H   UNL     1       6.892   8.586  16.249  0.00  0.00    +0.000 HD
ATOM     21  H   UNL     1       7.699  10.529  17.343  0.00  0.00    +0.000 HD
BRANCH  19  22
ATOM     22  C   UNL     1       9.436  10.631  18.479  0.00  0.00    +0.000 A 
ATOM     23  C   UNL     1      10.586  11.090  17.828  0.00  0.00    +0.000 A 
ATOM     24  C   UNL     1      11.606  11.727  18.540  0.00  0.00    +0.000 A 
ATOM     25  C   UNL     1      11.488  11.920  19.912  0.00  0.00    +0.000 A 
ATOM     26  C   UNL     1      10.338  11.488  20.571  0.00  0.00    +0.000 A 
ATOM     27  C   UNL     1       9.312  10.856  19.857  0.00  0.00    +0.000 A 
ENDBRANCH  19  22
ENDBRANCH   3  16
TORSDOF 3
ENDMDL
MODEL 3
REMARK VINA RESULT:      -8.3      5.381      7.489
REMARK  Name = 
REMARK  4 active torsions:
REMARK  status: ('A' for Active; 'I' for Inactive)
REMARK    1  A    between atoms: C_1  and  N_2
REMARK    2  A    between atoms: C_8  and  C_9
REMARK    3  A    between atoms: N_11  and  N_12
REMARK    4  A    between atoms: N_15  and  C_16
REMARK                            x       y       z     vdW  Elec       q    Type
REMARK                         _______ _______ _______ _____ _____    ______ ____
ROOT
ATOM      1  C   UNL     1       2.631   5.175  18.988  0.00  0.00    +0.000 C 
ATOM      2  O   UNL     1       1.499   4.716  18.844  0.00  0.00    +0.000 OA
ATOM      3  N   UNL     1       2.941   6.100  19.971  0.00  0.00    +0.000 N 
ATOM      4  H   UNL     1       3.686   6.788  19.826  0.00  0.00    +0.000 HD
ENDROOT
BRANCH   1  12
ATOM      5  C   UNL     1       6.789   7.012  17.362  0.00  0.00    +0.000 C 
ATOM      6  N   UNL     1       6.016   5.852  17.778  0.00  0.00    +0.000 N 
ATOM      7  C   UNL     1       6.697   4.718  18.162  0.00  0.00    +0.000 C 
ATOM      8  O   UNL     1       7.920   4.605  18.166  0.00  0.00    +0.000 OA
ATOM      9  N   UNL     1       5.938   3.667  18.581  0.00  0.00    +0.000 N 
ATOM     10  C   UNL     1       4.586   3.654  18.751  0.00  0.00    +0.000 C 
ATOM     11  O   UNL     1       4.045   2.711  19.327  0.00  0.00    +0.000 OA
ATOM     12  C   UNL     1       3.814   4.767  18.129  0.00  0.00    +0.000 C 
ATOM     13  C   UNL     1       4.633   5.960  17.709  0.00  0.00    +0.000 C 
ATOM     14  O   UNL     1       4.084   6.960  17.241  0.00  0.00    +0.000 OA
ATOM     15  H   UNL     1       6.452   2.876  18.946  0.00  0.00    +0.000 HD
ENDBRANCH   1  12
BRANCH   3  16
ATOM     16  N   UNL     1       1.926   6.537  20.859  0.00  0.00    +0.000 N 
ATOM     17  C   UNL     1       1.439   7.816  20.629  0.00  0.00    +0.000 C 
ATOM     18  O   UNL     1       1.892   8.495  19.707  0.00  0.00    +0.000 OA
ATOM     19  N   UNL     1       0.513   8.215  21.571  0.00  0.00    +0.000 N 
ATOM     20  H   UNL     1       1.292   5.810  21.183  0.00  0.00    +0.000 HD
ATOM     21  H   UNL     1       0.490   7.668  22.420  0.00  0.00    +0.000 HD
BRANCH  19  22
ATOM     22  C   UNL     1      -0.145   9.469  21.601  0.00  0.00    +0.000 A 
ATOM     23  C   UNL     1      -0.445  10.199  20.446  0.00  0.00    +0.000 A 
ATOM     24  C   UNL     1      -1.070  11.447  20.528  0.00  0.00    +0.000 A 
ATOM     25  C   UNL     1      -1.409  11.979  21.768  0.00  0.00    +0.000 A 
ATOM     26  C   UNL     1      -1.135  11.254  22.926  0.00  0.00    +0.000 A 
ATOM     27  C   UNL     1      -0.516  10.001  22.843  0.00  0.00    +0.000 A 
ENDBRANCH  19  22
ENDBRANCH   3  16
TORSDOF 3
ENDMDL
MODEL 4
REMARK VINA RESULT:      -8.2      5.401      7.422
REMARK  Name = 
REMARK  4 active torsions:
REMARK  status: ('A' for Active; 'I' for Inactive)
REMARK    1  A    between atoms: C_1  and  N_2
REMARK    2  A    between atoms: C_8  and  C_9
REMARK    3  A    between atoms: N_11  and  N_12
REMARK    4  A    between atoms: N_15  and  C_16
REMARK                            x       y       z     vdW  Elec       q    Type
REMARK                         _______ _______ _______ _____ _____    ______ ____
ROOT
ATOM      1  C   UNL     1       2.626   5.152  19.065  0.00  0.00    +0.000 C 
ATOM      2  O   UNL     1       1.506   4.651  18.975  0.00  0.00    +0.000 OA
ATOM      3  N   UNL     1       2.931   6.135  19.991  0.00  0.00    +0.000 N 
ATOM      4  H   UNL     1       3.649   6.838  19.791  0.00  0.00    +0.000 HD
ENDROOT
BRANCH   1  12
ATOM      5  C   UNL     1       6.750   6.990  17.355  0.00  0.00    +0.000 C 
ATOM      6  N   UNL     1       5.989   5.831  17.797  0.00  0.00    +0.000 N 
ATOM      7  C   UNL     1       6.682   4.706  18.186  0.00  0.00    +0.000 C 
ATOM      8  O   UNL     1       7.906   4.600  18.174  0.00  0.00    +0.000 OA
ATOM      9  N   UNL     1       5.935   3.656  18.630  0.00  0.00    +0.000 N 
ATOM     10  C   UNL     1       4.586   3.638  18.819  0.00  0.00    +0.000 C 
ATOM     11  O   UNL     1       4.058   2.701  19.415  0.00  0.00    +0.000 OA
ATOM     12  C   UNL     1       3.799   4.740  18.194  0.00  0.00    +0.000 C 
ATOM     13  C   UNL     1       4.605   5.931  17.747  0.00  0.00    +0.000 C 
ATOM     14  O   UNL     1       4.044   6.922  17.274  0.00  0.00    +0.000 OA
ATOM     15  H   UNL     1       6.458   2.874  18.998  0.00  0.00    +0.000 HD
ENDBRANCH   1  12
BRANCH   3  16
ATOM     16  N   UNL     1       1.926   6.584  20.884  0.00  0.00    +0.000 N 
ATOM     17  C   UNL     1       1.451   7.868  20.656  0.00  0.00    +0.000 C 
ATOM     18  O   UNL     1       1.906   8.542  19.731  0.00  0.00    +0.000 OA
ATOM     19  N   UNL     1       0.535   8.278  21.603  0.00  0.00    +0.000 N 
ATOM     20  H   UNL     1       1.285   5.864  21.213  0.00  0.00    +0.000 HD
ATOM     21  H   UNL     1       0.510   7.732  22.452  0.00  0.00    +0.000 HD
BRANCH  19  22
ATOM     22  C   UNL     1      -0.109   9.539  21.636  0.00  0.00    +0.000 A 
ATOM     23  C   UNL     1      -0.437  10.195  22.826  0.00  0.00    +0.000 A 
ATOM     24  C   UNL     1      -1.099  11.427  22.808  0.00  0.00    +0.000 A 
ATOM     25  C   UNL     1      -1.436  12.022  21.597  0.00  0.00    +0.000 A 
ATOM     26  C   UNL     1      -1.097  11.390  20.402  0.00  0.00    +0.000 A 
ATOM     27  C   UNL     1      -0.427  10.161  20.420  0.00  0.00    +0.000 A 
ENDBRANCH  19  22
ENDBRANCH   3  16
TORSDOF 3
ENDMDL
MODEL 5
REMARK VINA RESULT:      -8.1      1.341      1.387
REMARK  Name = 
REMARK  4 active torsions:
REMARK  status: ('A' for Active; 'I' for Inactive)
REMARK    1  A    between atoms: C_1  and  N_2
REMARK    2  A    between atoms: C_8  and  C_9
REMARK    3  A    between atoms: N_11  and  N_12
REMARK    4  A    between atoms: N_15  and  C_16
REMARK                            x       y       z     vdW  Elec       q    Type
REMARK                         _______ _______ _______ _____ _____    ______ ____
ROOT
ATOM      1  C   UNL     1       5.389   6.484  17.476  0.00  0.00    +0.000 C 
ATOM      2  O   UNL     1       4.519   7.350  17.387  0.00  0.00    +0.000 OA
ATOM      3  N   UNL     1       6.740   6.771  17.374  0.00  0.00    +0.000 N 
ATOM      4  H   UNL     1       7.396   6.077  17.003  0.00  0.00    +0.000 HD
ENDROOT
BRANCH   1  12
ATOM      5  C   UNL     1       2.099   3.751  19.714  0.00  0.00    +0.000 C 
ATOM      6  N   UNL     1       3.062   3.911  18.635  0.00  0.00    +0.000 N 
ATOM      7  C   UNL     1       2.937   3.107  17.523  0.00  0.00    +0.000 C 
ATOM      8  O   UNL     1       2.074   2.244  17.378  0.00  0.00    +0.000 OA
ATOM      9  N   UNL     1       3.834   3.315  16.519  0.00  0.00    +0.000 N 
ATOM     10  C   UNL     1       4.777   4.297  16.459  0.00  0.00    +0.000 C 
ATOM     11  O   UNL     1       5.388   4.504  15.412  0.00  0.00    +0.000 OA
ATOM     12  C   UNL     1       5.086   5.018  17.727  0.00  0.00    +0.000 C 
ATOM     13  C   UNL     1       4.075   4.841  18.829  0.00  0.00    +0.000 C 
ATOM     14  O   UNL     1       4.204   5.444  19.898  0.00  0.00    +0.000 OA
ATOM     15  H   UNL     1       3.674   2.784  15.675  0.00  0.00    +0.000 HD
ENDBRANCH   1  12
BRANCH   3  16
ATOM     16  N   UNL     1       7.152   8.112  17.168  0.00  0.00    +0.000 N 
ATOM     17  C   UNL     1       8.152   8.568  18.016  0.00  0.00    +0.000 C 
ATOM     18  O   UNL     1       8.619   7.825  18.879  0.00  0.00    +0.000 OA
ATOM     19  N   UNL     1       8.454   9.900  17.821  0.00  0.00    +0.000 N 
ATOM     20  H   UNL     1       7.131   8.428  16.201  0.00  0.00    +0.000 HD
ATOM     21  H   UNL     1       7.772  10.431  17.298  0.00  0.00    +0.000 HD
BRANCH  19  22
ATOM     22  C   UNL     1       9.421  10.640  18.544  0.00  0.00    +0.000 A 
ATOM     23  C   UNL     1       9.353  10.833  19.928  0.00  0.00    +0.000 A 
ATOM     24  C   UNL     1      10.317  11.597  20.594  0.00  0.00    +0.000 A 
ATOM     25  C   UNL     1      11.366  12.173  19.885  0.00  0.00    +0.000 A 
ATOM     26  C   UNL     1      11.458  11.972  18.509  0.00  0.00    +0.000 A 
ATOM     27  C   UNL     1      10.497  11.201  17.843  0.00  0.00    +0.000 A 
ENDBRANCH  19  22
ENDBRANCH   3  16
TORSDOF 3
ENDMDL
MODEL 6
REMARK VINA RESULT:      -7.9      1.254      1.640
REMARK  Name = 
REMARK  4 active torsions:
REMARK  status: ('A' for Active; 'I' for Inactive)
REMARK    1  A    between atoms: C_1  and  N_2
REMARK    2  A    between atoms: C_8  and  C_9
REMARK    3  A    between atoms: N_11  and  N_12
REMARK    4  A    between atoms: N_15  and  C_16
REMARK                            x       y       z     vdW  Elec       q    Type
REMARK                         _______ _______ _______ _____ _____    ______ ____
ROOT
ATOM      1  C   UNL     1       5.626   6.328  17.554  0.00  0.00    +0.000 C 
ATOM      2  O   UNL     1       4.718   7.113  17.284  0.00  0.00    +0.000 OA
ATOM      3  N   UNL     1       6.957   6.708  17.578  0.00  0.00    +0.000 N 
ATOM      4  H   UNL     1       7.697   6.037  17.352  0.00  0.00    +0.000 HD
ENDROOT
BRANCH   1  12
ATOM      5  C   UNL     1       2.368   3.581  19.821  0.00  0.00    +0.000 C 
ATOM      6  N   UNL     1       3.384   3.715  18.789  0.00  0.00    +0.000 N 
ATOM      7  C   UNL     1       3.374   2.819  17.742  0.00  0.00    +0.000 C 
ATOM      8  O   UNL     1       2.573   1.895  17.621  0.00  0.00    +0.000 OA
ATOM      9  N   UNL     1       4.317   3.002  16.777  0.00  0.00    +0.000 N 
ATOM     10  C   UNL     1       5.205   4.033  16.690  0.00  0.00    +0.000 C 
ATOM     11  O   UNL     1       5.866   4.194  15.665  0.00  0.00    +0.000 OA
ATOM     12  C   UNL     1       5.393   4.871  17.909  0.00  0.00    +0.000 C 
ATOM     13  C   UNL     1       4.328   4.719  18.963  0.00  0.00    +0.000 C 
ATOM     14  O   UNL     1       4.356   5.412  19.983  0.00  0.00    +0.000 OA
ATOM     15  H   UNL     1       4.241   2.396  15.972  0.00  0.00    +0.000 HD
ENDBRANCH   1  12
BRANCH   3  16
ATOM     16  N   UNL     1       7.301   8.054  17.294  0.00  0.00    +0.000 N 
ATOM     17  C   UNL     1       8.285   8.605  18.102  0.00  0.00    +0.000 C 
ATOM     18  O   UNL     1       8.796   7.935  19.000  0.00  0.00    +0.000 OA
ATOM     19  N   UNL     1       8.519   9.937  17.830  0.00  0.00    +0.000 N 
ATOM     20  H   UNL     1       7.256   8.314  16.311  0.00  0.00    +0.000 HD
ATOM     21  H   UNL     1       7.808  10.404  17.287  0.00  0.00    +0.000 HD
BRANCH  19  22
ATOM     22  C   UNL     1       9.456  10.763  18.499  0.00  0.00    +0.000 A 
ATOM     23  C   UNL     1      10.489  11.434  17.836  0.00  0.00    +0.000 A 
ATOM     24  C   UNL     1      11.407  12.215  18.544  0.00  0.00    +0.000 A 
ATOM     25  C   UNL     1      11.300  12.342  19.926  0.00  0.00    +0.000 A 
ATOM     26  C   UNL     1      10.263  11.696  20.597  0.00  0.00    +0.000 A 
ATOM     27  C   UNL     1       9.339  10.919  19.887  0.00  0.00    +0.000 A 
ENDBRANCH  19  22
ENDBRANCH   3  16
TORSDOF 3
ENDMDL
MODEL 7
REMARK VINA RESULT:      -7.8      4.723      7.204
REMARK  Name = 
REMARK  4 active torsions:
REMARK  status: ('A' for Active; 'I' for Inactive)
REMARK    1  A    between atoms: C_1  and  N_2
REMARK    2  A    between atoms: C_8  and  C_9
REMARK    3  A    between atoms: N_11  and  N_12
REMARK    4  A    between atoms: N_15  and  C_16
REMARK                            x       y       z     vdW  Elec       q    Type
REMARK                         _______ _______ _______ _____ _____    ______ ____
ROOT
ATOM      1  C   UNL     1       4.137   4.396  19.511  0.00  0.00    +0.000 C 
ATOM      2  O   UNL     1       3.598   3.495  20.152  0.00  0.00    +0.000 OA
ATOM      3  N   UNL     1       3.741   5.720  19.606  0.00  0.00    +0.000 N 
ATOM      4  H   UNL     1       3.842   6.355  18.810  0.00  0.00    +0.000 HD
ENDROOT
BRANCH   1  12
ATOM      5  C   UNL     1       5.202   4.853  14.824  0.00  0.00    +0.000 C 
ATOM      6  N   UNL     1       5.643   4.864  16.211  0.00  0.00    +0.000 N 
ATOM      7  C   UNL     1       6.822   5.510  16.515  0.00  0.00    +0.000 C 
ATOM      8  O   UNL     1       7.544   6.070  15.694  0.00  0.00    +0.000 OA
ATOM      9  N   UNL     1       7.180   5.532  17.829  0.00  0.00    +0.000 N 
ATOM     10  C   UNL     1       6.449   5.067  18.881  0.00  0.00    +0.000 C 
ATOM     11  O   UNL     1       6.791   5.328  20.034  0.00  0.00    +0.000 OA
ATOM     12  C   UNL     1       5.302   4.167  18.566  0.00  0.00    +0.000 C 
ATOM     13  C   UNL     1       4.860   4.174  17.126  0.00  0.00    +0.000 C 
ATOM     14  O   UNL     1       3.880   3.512  16.772  0.00  0.00    +0.000 OA
ATOM     15  H   UNL     1       7.996   6.086  18.049  0.00  0.00    +0.000 HD
ENDBRANCH   1  12
BRANCH   3  16
ATOM     16  N   UNL     1       2.681   6.066  20.482  0.00  0.00    +0.000 N 
ATOM     17  C   UNL     1       2.130   7.325  20.287  0.00  0.00    +0.000 C 
ATOM     18  O   UNL     1       2.568   8.064  19.405  0.00  0.00    +0.000 OA
ATOM     19  N   UNL     1       1.160   7.635  21.217  0.00  0.00    +0.000 N 
ATOM     20  H   UNL     1       2.079   5.293  20.761  0.00  0.00    +0.000 HD
ATOM     21  H   UNL     1       1.145   7.055  22.044  0.00  0.00    +0.000 HD
BRANCH  19  22
ATOM     22  C   UNL     1       0.433   8.850  21.277  0.00  0.00    +0.000 A 
ATOM     23  C   UNL     1       0.034   9.555  20.137  0.00  0.00    +0.000 A 
ATOM     24  C   UNL     1      -0.657  10.765  20.247  0.00  0.00    +0.000 A 
ATOM     25  C   UNL     1      -0.963  11.285  21.500  0.00  0.00    +0.000 A 
ATOM     26  C   UNL     1      -0.589  10.584  22.645  0.00  0.00    +0.000 A 
ATOM     27  C   UNL     1       0.095   9.368  22.535  0.00  0.00    +0.000 A 
ENDBRANCH  19  22
ENDBRANCH   3  16
TORSDOF 3
ENDMDL
MODEL 8
REMARK VINA RESULT:      -7.8      5.031      6.857
REMARK  Name = 
REMARK  4 active torsions:
REMARK  status: ('A' for Active; 'I' for Inactive)
REMARK    1  A    between atoms: C_1  and  N_2
REMARK    2  A    between atoms: C_8  and  C_9
REMARK    3  A    between atoms: N_11  and  N_12
REMARK    4  A    between atoms: N_15  and  C_16
REMARK                            x       y       z     vdW  Elec       q    Type
REMARK                         _______ _______ _______ _____ _____    ______ ____
ROOT
ATOM      1  C   UNL     1       3.861   5.055  19.303  0.00  0.00    +0.000 C 
ATOM      2  O   UNL     1       3.281   4.544  20.261  0.00  0.00    +0.000 OA
ATOM      3  N   UNL     1       3.579   6.335  18.857  0.00  0.00    +0.000 N 
ATOM      4  H   UNL     1       3.694   6.582  17.870  0.00  0.00    +0.000 HD
ENDROOT
BRANCH   1  12
ATOM      5  C   UNL     1       5.176   4.285  14.723  0.00  0.00    +0.000 C 
ATOM      6  N   UNL     1       5.555   4.460  16.117  0.00  0.00    +0.000 N 
ATOM      7  C   UNL     1       6.851   4.835  16.398  0.00  0.00    +0.000 C 
ATOM      8  O   UNL     1       7.724   5.019  15.555  0.00  0.00    +0.000 OA
ATOM      9  N   UNL     1       7.154   5.026  17.713  0.00  0.00    +0.000 N 
ATOM     10  C   UNL     1       6.290   4.980  18.765  0.00  0.00    +0.000 C 
ATOM     11  O   UNL     1       6.646   5.370  19.876  0.00  0.00    +0.000 OA
ATOM     12  C   UNL     1       4.957   4.355  18.520  0.00  0.00    +0.000 C 
ATOM     13  C   UNL     1       4.584   4.187  17.071  0.00  0.00    +0.000 C 
ATOM     14  O   UNL     1       3.478   3.737  16.760  0.00  0.00    +0.000 OA
ATOM     15  H   UNL     1       8.079   5.389  17.898  0.00  0.00    +0.000 HD
ENDBRANCH   1  12
BRANCH   3  16
ATOM     16  N   UNL     1       2.594   7.103  19.527  0.00  0.00    +0.000 N 
ATOM     17  C   UNL     1       2.142   8.224  18.846  0.00  0.00    +0.000 C 
ATOM     18  O   UNL     1       2.600   8.501  17.737  0.00  0.00    +0.000 OA
ATOM     19  N   UNL     1       1.245   8.973  19.580  0.00  0.00    +0.000 N 
ATOM     20  H   UNL     1       1.943   6.568  20.099  0.00  0.00    +0.000 HD
ATOM     21  H   UNL     1       1.220   8.778  20.570  0.00  0.00    +0.000 HD
BRANCH  19  22
ATOM     22  C   UNL     1       0.628  10.173  19.150  0.00  0.00    +0.000 A 
ATOM     23  C   UNL     1       1.241  11.426  19.257  0.00  0.00    +0.000 A 
ATOM     24  C   UNL     1       0.579  12.586  18.845  0.00  0.00    +0.000 A 
ATOM     25  C   UNL     1      -0.705  12.509  18.315  0.00  0.00    +0.000 A 
ATOM     26  C   UNL     1      -1.320  11.266  18.182  0.00  0.00    +0.000 A 
ATOM     27  C   UNL     1      -0.654  10.102  18.587  0.00  0.00    +0.000 A 
ENDBRANCH  19  22
ENDBRANCH   3  16
TORSDOF 3
ENDMDL
MODEL 9
REMARK VINA RESULT:      -7.8      5.413      6.933
REMARK  Name = 
REMARK  4 active torsions:
REMARK  status: ('A' for Active; 'I' for Inactive)
REMARK    1  A    between atoms: C_1  and  N_2
REMARK    2  A    between atoms: C_8  and  C_9
REMARK    3  A    between atoms: N_11  and  N_12
REMARK    4  A    between atoms: N_15  and  C_16
REMARK                            x       y       z     vdW  Elec       q    Type
REMARK                         _______ _______ _______ _____ _____    ______ ____
ROOT
ATOM      1  C   UNL     1       2.856   5.648  18.127  0.00  0.00    +0.000 C 
ATOM      2  O   UNL     1       1.704   5.267  17.920  0.00  0.00    +0.000 OA
ATOM      3  N   UNL     1       3.146   6.765  18.891  0.00  0.00    +0.000 N 
ATOM      4  H   UNL     1       3.983   7.325  18.703  0.00  0.00    +0.000 HD
ENDROOT
BRANCH   1  12
ATOM      5  C   UNL     1       7.390   6.633  16.795  0.00  0.00    +0.000 C 
ATOM      6  N   UNL     1       6.429   5.691  17.348  0.00  0.00    +0.000 N 
ATOM      7  C   UNL     1       6.906   4.637  18.097  0.00  0.00    +0.000 C 
ATOM      8  O   UNL     1       8.094   4.421  18.324  0.00  0.00    +0.000 OA
ATOM      9  N   UNL     1       5.972   3.800  18.628  0.00  0.00    +0.000 N 
ATOM     10  C   UNL     1       4.618   3.950  18.577  0.00  0.00    +0.000 C 
ATOM     11  O   UNL     1       3.891   3.238  19.268  0.00  0.00    +0.000 OA
ATOM     12  C   UNL     1       4.082   4.931  17.591  0.00  0.00    +0.000 C 
ATOM     13  C   UNL     1       5.092   5.899  17.034  0.00  0.00    +0.000 C 
ATOM     14  O   UNL     1       4.741   6.791  16.258  0.00  0.00    +0.000 OA
ATOM     15  H   UNL     1       6.329   3.087  19.250  0.00  0.00    +0.000 HD
ENDBRANCH   1  12
BRANCH   3  16
ATOM     16  N   UNL     1       2.085   7.504  19.473  0.00  0.00    +0.000 N 
ATOM     17  C   UNL     1       1.762   8.693  18.835  0.00  0.00    +0.000 C 
ATOM     18  O   UNL     1       2.386   9.049  17.836  0.00  0.00    +0.000 OA
ATOM     19  N   UNL     1       0.778   9.404  19.492  0.00  0.00    +0.000 N 
ATOM     20  H   UNL     1       1.346   6.943  19.893  0.00  0.00    +0.000 HD
ATOM     21  H   UNL     1       0.601   9.125  20.446  0.00  0.00    +0.000 HD
BRANCH  19  22
ATOM     22  C   UNL     1       0.254  10.655  19.084  0.00  0.00    +0.000 A 
ATOM     23  C   UNL     1      -0.982  10.790  18.442  0.00  0.00    +0.000 A 
ATOM     24  C   UNL     1      -1.444  12.044  18.033  0.00  0.00    +0.000 A 
ATOM     25  C   UNL     1      -0.680  13.182  18.265  0.00  0.00    +0.000 A 
ATOM     26  C   UNL     1       0.544  13.066  18.923  0.00  0.00    +0.000 A 
ATOM     27  C   UNL     1       1.004  11.811  19.340  0.00  0.00    +0.000 A 
ENDBRANCH  19  22
ENDBRANCH   3  16
TORSDOF 3
ENDMDL
