MODEL 1
REMARK VINA RESULT:      -8.1      0.000      0.000
REMARK  Name = 
REMARK  6 active torsions:
REMARK  status: ('A' for Active; 'I' for Inactive)
REMARK    1  A    between atoms: C_1  and  C_2
REMARK    2  A    between atoms: C_2  and  C_3
REMARK    3  A    between atoms: C_6  and  C_7
REMARK    4  A    between atoms: C_7  and  C_9
REMARK    5  A    between atoms: C_13  and  C_15
REMARK    6  A    between atoms: C_19  and  O_20
REMARK                            x       y       z     vdW  Elec       q    Type
REMARK                         _______ _______ _______ _____ _____    ______ ____
ROOT
ATOM      1  C   UNL     1       7.207   5.767  18.243  0.00  0.00    +0.000 C 
ATOM      2  C   UNL     1       6.368   5.114  19.341  0.00  0.00    +0.000 C 
ATOM      3  C   UNL     1       4.968   4.729  18.896  0.00  0.00    +0.000 C 
ATOM      4  N   UNL     1       4.234   5.775  18.198  0.00  0.00    +0.000 N 
ATOM      5  C   UNL     1       2.822   5.813  18.120  0.00  0.00    +0.000 C 
ATOM      6  O   UNL     1       2.219   6.655  17.447  0.00  0.00    +0.000 OA
ATOM      7  C   UNL     1       4.979   6.498  17.167  0.00  0.00    +0.000 C 
ATOM      8  C   UNL     1       6.393   6.900  17.593  0.00  0.00    +0.000 C 
ENDROOT
BRANCH   5   9
ATOM      9  C   UNL     1       1.982   4.853  18.899  0.00  0.00    +0.000 A 
ATOM     10  C   UNL     1       1.821   5.057  20.277  0.00  0.00    +0.000 A 
ATOM     11  C   UNL     1       1.099   4.139  21.050  0.00  0.00    +0.000 A 
ATOM     12  C   UNL     1       0.555   2.999  20.458  0.00  0.00    +0.000 A 
ATOM     13  C   UNL     1       0.677   2.826  19.084  0.00  0.00    +0.000 A 
ATOM     14  C   UNL     1       1.327   3.773  18.301  0.00  0.00    +0.000 A 
BRANCH  13  15
ATOM     15  O   UNL     1       0.191   1.722  18.451  0.00  0.00    +0.000 OA
ATOM     16  H   UNL     1      -0.286   1.174  19.097  0.00  0.00    +0.000 HD
ENDBRANCH  13  15
ENDBRANCH   5   9
BRANCH   1  17
ATOM     17  C   UNL     1       7.781   4.770  17.222  0.00  0.00    +0.000 C 
ATOM     18  O   UNL     1       8.790   4.111  17.469  0.00  0.00    +0.000 OA
BRANCH  17  22
ATOM     19  C   UNL     1       5.883   3.937  13.412  0.00  0.00    +0.000 A 
ATOM     20  C   UNL     1       5.351   3.444  14.609  0.00  0.00    +0.000 A 
ATOM     21  C   UNL     1       5.953   3.752  15.837  0.00  0.00    +0.000 A 
ATOM     22  C   UNL     1       7.084   4.578  15.894  0.00  0.00    +0.000 A 
ATOM     23  C   UNL     1       7.544   5.156  14.704  0.00  0.00    +0.000 A 
ATOM     24  C   UNL     1       6.964   4.821  13.475  0.00  0.00    +0.000 A 
BRANCH  19  26
ATOM     25  C   UNL     1       5.858   2.187  11.593  0.00  0.00    +0.000 C 
ATOM     26  C   UNL     1       5.319   3.524  12.075  0.00  0.00    +0.000 C 
ENDBRANCH  19  26
ENDBRANCH  17  22
ENDBRANCH   1  17
TORSDOF 5
ENDMDL
MODEL 2
REMARK VINA RESULT:      -7.7      1.680      2.150
REMARK  Name = 
REMARK  6 active torsions:
REMARK  status: ('A' for Active; 'I' for Inactive)
REMARK    1  A    between atoms: C_1  and  C_2
REMARK    2  A    between atoms: C_2  and  C_3
REMARK    3  A    between atoms: C_6  and  C_7
REMARK    4  A    between atoms: C_7  and  C_9
REMARK    5  A    between atoms: C_13  and  C_15
REMARK    6  A    between atoms: C_19  and  O_20
REMARK                            x       y       z     vdW  Elec       q    Type
REMARK                         _______ _______ _______ _____ _____    ______ ____
ROOT
ATOM      1  C   UNL     1       6.228   5.968  16.545  0.00  0.00    +0.000 C 
ATOM      2  C   UNL     1       5.814   4.699  17.288  0.00  0.00    +0.000 C 
ATOM      3  C   UNL     1       4.379   4.717  17.782  0.00  0.00    +0.000 C 
ATOM      4  N   UNL     1       3.989   5.921  18.502  0.00  0.00    +0.000 N 
ATOM      5  C   UNL     1       2.916   5.964  19.421  0.00  0.00    +0.000 C 
ATOM      6  O   UNL     1       2.541   7.014  19.954  0.00  0.00    +0.000 OA
ATOM      7  C   UNL     1       4.397   7.188  17.893  0.00  0.00    +0.000 C 
ATOM      8  C   UNL     1       5.843   7.195  17.390  0.00  0.00    +0.000 C 
ENDROOT
BRANCH   5   9
ATOM      9  C   UNL     1       2.207   4.715  19.836  0.00  0.00    +0.000 A 
ATOM     10  C   UNL     1       2.298   4.296  21.171  0.00  0.00    +0.000 A 
ATOM     11  C   UNL     1       1.705   3.093  21.579  0.00  0.00    +0.000 A 
ATOM     12  C   UNL     1       1.041   2.290  20.652  0.00  0.00    +0.000 A 
ATOM     13  C   UNL     1       0.913   2.734  19.341  0.00  0.00    +0.000 A 
ATOM     14  C   UNL     1       1.433   3.962  18.949  0.00  0.00    +0.000 A 
BRANCH  13  15
ATOM     15  O   UNL     1       0.300   1.983  18.383  0.00  0.00    +0.000 OA
ATOM     16  H   UNL     1       0.290   1.055  18.670  0.00  0.00    +0.000 HD
ENDBRANCH  13  15
ENDBRANCH   5   9
BRANCH   1  17
ATOM     17  C   UNL     1       5.707   6.040  15.099  0.00  0.00    +0.000 C 
ATOM     18  O   UNL     1       5.006   6.977  14.719  0.00  0.00    +0.000 OA
BRANCH  17  22
ATOM     19  C   UNL     1       6.750   3.125  12.063  0.00  0.00    +0.000 A 
ATOM     20  C   UNL     1       7.675   4.082  12.494  0.00  0.00    +0.000 A 
ATOM     21  C   UNL     1       7.337   4.995  13.503  0.00  0.00    +0.000 A 
ATOM     22  C   UNL     1       6.077   4.952  14.117  0.00  0.00    +0.000 A 
ATOM     23  C   UNL     1       5.199   3.922  13.757  0.00  0.00    +0.000 A 
ATOM     24  C   UNL     1       5.523   3.033  12.726  0.00  0.00    +0.000 A 
BRANCH  19  26
ATOM     25  C   UNL     1       6.392   0.848  11.033  0.00  0.00    +0.000 C 
ATOM     26  C   UNL     1       7.053   2.210  10.902  0.00  0.00    +0.000 C 
ENDBRANCH  19  26
ENDBRANCH  17  22
ENDBRANCH   1  17
TORSDOF 5
ENDMDL
MODEL 3
REMARK VINA RESULT:      -7.5      1.852      2.454
REMARK  Name = 
REMARK  6 active torsions:
REMARK  status: ('A' for Active; 'I' for Inactive)
REMARK    1  A    between atoms: C_1  and  C_2
REMARK    2  A    between atoms: C_2  and  C_3
REMARK    3  A    between atoms: C_6  and  C_7
REMARK    4  A    between atoms: C_7  and  C_9
REMARK    5  A    between atoms: C_13  and  C_15
REMARK    6  A    between atoms: C_19  and  O_20
REMARK                            x       y       z     vdW  Elec       q    Type
REMARK                         _______ _______ _______ _____ _____    ______ ____
ROOT
ATOM      1  C   UNL     1       6.411   5.424  16.111  0.00  0.00    +0.000 C 
ATOM      2  C   UNL     1       5.848   4.163  16.765  0.00  0.00    +0.000 C 
ATOM      3  C   UNL     1       4.452   4.339  17.336  0.00  0.00    +0.000 C 
ATOM      4  N   UNL     1       4.273   5.514  18.175  0.00  0.00    +0.000 N 
ATOM      5  C   UNL     1       3.256   5.623  19.152  0.00  0.00    +0.000 C 
ATOM      6  O   UNL     1       3.061   6.662  19.792  0.00  0.00    +0.000 OA
ATOM      7  C   UNL     1       4.835   6.761  17.656  0.00  0.00    +0.000 C 
ATOM      8  C   UNL     1       6.244   6.610  17.078  0.00  0.00    +0.000 C 
ENDROOT
BRANCH   5   9
ATOM      9  C   UNL     1       2.390   4.455  19.497  0.00  0.00    +0.000 A 
ATOM     10  C   UNL     1       1.539   3.929  18.514  0.00  0.00    +0.000 A 
ATOM     11  C   UNL     1       0.663   2.880  18.822  0.00  0.00    +0.000 A 
ATOM     12  C   UNL     1       0.614   2.366  20.118  0.00  0.00    +0.000 A 
ATOM     13  C   UNL     1       1.493   2.859  21.075  0.00  0.00    +0.000 A 
ATOM     14  C   UNL     1       2.417   3.847  20.755  0.00  0.00    +0.000 A 
BRANCH  13  15
ATOM     15  O   UNL     1       1.476   2.417  22.365  0.00  0.00    +0.000 OA
ATOM     16  H   UNL     1       0.622   1.986  22.537  0.00  0.00    +0.000 HD
ENDBRANCH  13  15
ENDBRANCH   5   9
BRANCH   1  17
ATOM     17  C   UNL     1       5.847   5.703  14.707  0.00  0.00    +0.000 C 
ATOM     18  O   UNL     1       5.207   6.726  14.468  0.00  0.00    +0.000 OA
BRANCH  17  22
ATOM     19  C   UNL     1       6.538   2.644  11.711  0.00  0.00    +0.000 A 
ATOM     20  C   UNL     1       5.258   2.878  12.225  0.00  0.00    +0.000 A 
ATOM     21  C   UNL     1       5.042   3.895  13.166  0.00  0.00    +0.000 A 
ATOM     22  C   UNL     1       6.097   4.713  13.592  0.00  0.00    +0.000 A 
ATOM     23  C   UNL     1       7.351   4.545  12.991  0.00  0.00    +0.000 A 
ATOM     24  C   UNL     1       7.574   3.508  12.078  0.00  0.00    +0.000 A 
BRANCH  19  26
ATOM     25  C   UNL     1       6.208   0.179  11.280  0.00  0.00    +0.000 C 
ATOM     26  C   UNL     1       6.812   1.484  10.787  0.00  0.00    +0.000 C 
ENDBRANCH  19  26
ENDBRANCH  17  22
ENDBRANCH   1  17
TORSDOF 5
ENDMDL
MODEL 4
REMARK VINA RESULT:      -7.4      1.857      2.476
REMARK  Name = 
REMARK  6 active torsions:
REMARK  status: ('A' for Active; 'I' for Inactive)
REMARK    1  A    between atoms: C_1  and  C_2
REMARK    2  A    between atoms: C_2  and  C_3
REMARK    3  A    between atoms: C_6  and  C_7
REMARK    4  A    between atoms: C_7  and  C_9
REMARK    5  A    between atoms: C_13  and  C_15
REMARK    6  A    between atoms: C_19  and  O_20
REMARK                            x       y       z     vdW  Elec       q    Type
REMARK                         _______ _______ _______ _____ _____    ______ ____
ROOT
ATOM      1  C   UNL     1       6.279   5.914  16.506  0.00  0.00    +0.000 C 
ATOM      2  C   UNL     1       5.846   4.620  17.195  0.00  0.00    +0.000 C 
ATOM      3  C   UNL     1       4.391   4.612  17.628  0.00  0.00    +0.000 C 
ATOM      4  N   UNL     1       3.961   5.792  18.366  0.00  0.00    +0.000 N 
ATOM      5  C   UNL     1       2.850   5.799  19.241  0.00  0.00    +0.000 C 
ATOM      6  O   UNL     1       2.444   6.830  19.787  0.00  0.00    +0.000 OA
ATOM      7  C   UNL     1       4.382   7.079  17.811  0.00  0.00    +0.000 C 
ATOM      8  C   UNL     1       5.847   7.113  17.369  0.00  0.00    +0.000 C 
ENDROOT
BRANCH   5   9
ATOM      9  C   UNL     1       2.136   4.533  19.589  0.00  0.00    +0.000 A 
ATOM     10  C   UNL     1       1.398   3.875  18.594  0.00  0.00    +0.000 A 
ATOM     11  C   UNL     1       0.659   2.725  18.904  0.00  0.00    +0.000 A 
ATOM     12  C   UNL     1       0.633   2.240  20.211  0.00  0.00    +0.000 A 
ATOM     13  C   UNL     1       1.405   2.868  21.182  0.00  0.00    +0.000 A 
ATOM     14  C   UNL     1       2.199   3.963  20.863  0.00  0.00    +0.000 A 
BRANCH  13  15
ATOM     15  O   UNL     1       1.401   2.457  22.481  0.00  0.00    +0.000 OA
ATOM     16  H   UNL     1       1.364   1.487  22.504  0.00  0.00    +0.000 HD
ENDBRANCH  13  15
ENDBRANCH   5   9
BRANCH   1  17
ATOM     17  C   UNL     1       5.818   6.024  15.043  0.00  0.00    +0.000 C 
ATOM     18  O   UNL     1       5.158   6.987  14.652  0.00  0.00    +0.000 OA
BRANCH  17  22
ATOM     19  C   UNL     1       6.835   3.111  11.995  0.00  0.00    +0.000 A 
ATOM     20  C   UNL     1       7.685   4.184  12.283  0.00  0.00    +0.000 A 
ATOM     21  C   UNL     1       7.362   5.098  13.296  0.00  0.00    +0.000 A 
ATOM     22  C   UNL     1       6.196   4.942  14.057  0.00  0.00    +0.000 A 
ATOM     23  C   UNL     1       5.408   3.805  13.838  0.00  0.00    +0.000 A 
ATOM     24  C   UNL     1       5.711   2.912  12.803  0.00  0.00    +0.000 A 
BRANCH  19  26
ATOM     25  C   UNL     1       6.356   0.868  10.941  0.00  0.00    +0.000 C 
ATOM     26  C   UNL     1       7.106   2.185  10.835  0.00  0.00    +0.000 C 
ENDBRANCH  19  26
ENDBRANCH  17  22
ENDBRANCH   1  17
TORSDOF 5
ENDMDL
MODEL 5
REMARK VINA RESULT:      -7.4      2.720      5.472
REMARK  Name = 
REMARK  6 active torsions:
REMARK  status: ('A' for Active; 'I' for Inactive)
REMARK    1  A    between atoms: C_1  and  C_2
REMARK    2  A    between atoms: C_2  and  C_3
REMARK    3  A    between atoms: C_6  and  C_7
REMARK    4  A    between atoms: C_7  and  C_9
REMARK    5  A    between atoms: C_13  and  C_15
REMARK    6  A    between atoms: C_19  and  O_20
REMARK                            x       y       z     vdW  Elec       q    Type
REMARK                         _______ _______ _______ _____ _____    ______ ____
ROOT
ATOM      1  C   UNL     1       1.917   2.724  18.749  0.00  0.00    +0.000 C 
ATOM      2  C   UNL     1       1.445   3.915  17.914  0.00  0.00    +0.000 C 
ATOM      3  C   UNL     1       1.952   5.255  18.415  0.00  0.00    +0.000 C 
ATOM      4  N   UNL     1       1.776   5.487  19.842  0.00  0.00    +0.000 N 
ATOM      5  C   UNL     1       1.731   6.777  20.419  0.00  0.00    +0.000 C 
ATOM      6  O   UNL     1       1.674   6.954  21.641  0.00  0.00    +0.000 OA
ATOM      7  C   UNL     1       2.147   4.376  20.719  0.00  0.00    +0.000 C 
ATOM      8  C   UNL     1       1.645   3.013  20.236  0.00  0.00    +0.000 C 
ENDROOT
BRANCH   5   9
ATOM      9  C   UNL     1       1.699   8.002  19.565  0.00  0.00    +0.000 A 
ATOM     10  C   UNL     1       2.447   8.021  18.378  0.00  0.00    +0.000 A 
ATOM     11  C   UNL     1       2.496   9.178  17.590  0.00  0.00    +0.000 A 
ATOM     12  C   UNL     1       1.821  10.330  17.993  0.00  0.00    +0.000 A 
ATOM     13  C   UNL     1       1.044  10.291  19.145  0.00  0.00    +0.000 A 
ATOM     14  C   UNL     1       0.930   9.123  19.890  0.00  0.00    +0.000 A 
BRANCH  13  15
ATOM     15  O   UNL     1       0.383  11.391  19.605  0.00  0.00    +0.000 OA
ATOM     16  H   UNL     1      -0.415  11.525  19.067  0.00  0.00    +0.000 HD
ENDBRANCH  13  15
ENDBRANCH   5   9
BRANCH   1  17
ATOM     17  C   UNL     1       3.370   2.306  18.469  0.00  0.00    +0.000 C 
ATOM     18  O   UNL     1       3.722   1.129  18.546  0.00  0.00    +0.000 OA
BRANCH  17  22
ATOM     19  C   UNL     1       6.105   5.516  17.455  0.00  0.00    +0.000 A 
ATOM     20  C   UNL     1       5.990   5.051  18.770  0.00  0.00    +0.000 A 
ATOM     21  C   UNL     1       5.130   3.988  19.078  0.00  0.00    +0.000 A 
ATOM     22  C   UNL     1       4.386   3.353  18.073  0.00  0.00    +0.000 A 
ATOM     23  C   UNL     1       4.590   3.751  16.746  0.00  0.00    +0.000 A 
ATOM     24  C   UNL     1       5.422   4.835  16.443  0.00  0.00    +0.000 A 
BRANCH  19  26
ATOM     25  C   UNL     1       7.891   7.118  18.239  0.00  0.00    +0.000 C 
ATOM     26  C   UNL     1       6.935   6.730  17.123  0.00  0.00    +0.000 C 
ENDBRANCH  19  26
ENDBRANCH  17  22
ENDBRANCH   1  17
TORSDOF 5
ENDMDL
MODEL 6
REMARK VINA RESULT:      -7.4      3.318      5.647
REMARK  Name = 
REMARK  6 active torsions:
REMARK  status: ('A' for Active; 'I' for Inactive)
REMARK    1  A    between atoms: C_1  and  C_2
REMARK    2  A    between atoms: C_2  and  C_3
REMARK    3  A    between atoms: C_6  and  C_7
REMARK    4  A    between atoms: C_7  and  C_9
REMARK    5  A    between atoms: C_13  and  C_15
REMARK    6  A    between atoms: C_19  and  O_20
REMARK                            x       y       z     vdW  Elec       q    Type
REMARK                         _______ _______ _______ _____ _____    ______ ____
ROOT
ATOM      1  C   UNL     1       6.323   7.025  16.949  0.00  0.00    +0.000 C 
ATOM      2  C   UNL     1       4.945   7.011  17.610  0.00  0.00    +0.000 C 
ATOM      3  C   UNL     1       4.603   5.696  18.288  0.00  0.00    +0.000 C 
ATOM      4  N   UNL     1       4.830   4.508  17.478  0.00  0.00    +0.000 N 
ATOM      5  C   UNL     1       4.171   3.277  17.703  0.00  0.00    +0.000 C 
ATOM      6  O   UNL     1       4.442   2.254  17.065  0.00  0.00    +0.000 OA
ATOM      7  C   UNL     1       6.103   4.461  16.757  0.00  0.00    +0.000 C 
ATOM      8  C   UNL     1       6.469   5.775  16.063  0.00  0.00    +0.000 C 
ENDROOT
BRANCH   5   9
ATOM      9  C   UNL     1       3.064   3.167  18.700  0.00  0.00    +0.000 A 
ATOM     10  C   UNL     1       1.744   3.377  18.274  0.00  0.00    +0.000 A 
ATOM     11  C   UNL     1       0.689   3.352  19.196  0.00  0.00    +0.000 A 
ATOM     12  C   UNL     1       0.947   3.143  20.550  0.00  0.00    +0.000 A 
ATOM     13  C   UNL     1       2.251   2.888  20.960  0.00  0.00    +0.000 A 
ATOM     14  C   UNL     1       3.291   2.836  20.039  0.00  0.00    +0.000 A 
BRANCH  13  15
ATOM     15  O   UNL     1       2.571   2.703  22.272  0.00  0.00    +0.000 OA
ATOM     16  H   UNL     1       2.419   3.534  22.752  0.00  0.00    +0.000 HD
ENDBRANCH  13  15
ENDBRANCH   5   9
BRANCH   1  17
ATOM     17  C   UNL     1       7.487   7.205  17.938  0.00  0.00    +0.000 C 
ATOM     18  O   UNL     1       7.941   6.252  18.571  0.00  0.00    +0.000 OA
BRANCH  17  22
ATOM     19  C   UNL     1       9.077  11.163  18.724  0.00  0.00    +0.000 A 
ATOM     20  C   UNL     1       9.457  10.063  19.500  0.00  0.00    +0.000 A 
ATOM     21  C   UNL     1       8.964   8.782  19.212  0.00  0.00    +0.000 A 
ATOM     22  C   UNL     1       8.101   8.573  18.128  0.00  0.00    +0.000 A 
ATOM     23  C   UNL     1       7.814   9.658  17.290  0.00  0.00    +0.000 A 
ATOM     24  C   UNL     1       8.278  10.942  17.598  0.00  0.00    +0.000 A 
BRANCH  19  26
ATOM     25  C   UNL     1      10.857  12.610  19.776  0.00  0.00    +0.000 C 
ATOM     26  C   UNL     1       9.504  12.563  19.087  0.00  0.00    +0.000 C 
ENDBRANCH  19  26
ENDBRANCH  17  22
ENDBRANCH   1  17
TORSDOF 5
ENDMDL
MODEL 7
REMARK VINA RESULT:      -7.4      1.207      1.534
REMARK  Name = 
REMARK  6 active torsions:
REMARK  status: ('A' for Active; 'I' for Inactive)
REMARK    1  A    between atoms: C_1  and  C_2
REMARK    2  A    between atoms: C_2  and  C_3
REMARK    3  A    between atoms: C_6  and  C_7
REMARK    4  A    between atoms: C_7  and  C_9
REMARK    5  A    between atoms: C_13  and  C_15
REMARK    6  A    between atoms: C_19  and  O_20
REMARK                            x       y       z     vdW  Elec       q    Type
REMARK                         _______ _______ _______ _____ _____    ______ ____
ROOT
ATOM      1  C   UNL     1       7.003   5.907  17.834  0.00  0.00    +0.000 C 
ATOM      2  C   UNL     1       6.382   5.336  19.107  0.00  0.00    +0.000 C 
ATOM      3  C   UNL     1       5.036   4.668  18.888  0.00  0.00    +0.000 C 
ATOM      4  N   UNL     1       4.079   5.450  18.119  0.00  0.00    +0.000 N 
ATOM      5  C   UNL     1       2.680   5.256  18.193  0.00  0.00    +0.000 C 
ATOM      6  O   UNL     1       1.887   5.865  17.466  0.00  0.00    +0.000 OA
ATOM      7  C   UNL     1       4.601   6.087  16.909  0.00  0.00    +0.000 C 
ATOM      8  C   UNL     1       5.957   6.770  17.106  0.00  0.00    +0.000 C 
ENDROOT
BRANCH   5   9
ATOM      9  C   UNL     1       2.083   4.330  19.203  0.00  0.00    +0.000 A 
ATOM     10  C   UNL     1       1.007   3.515  18.823  0.00  0.00    +0.000 A 
ATOM     11  C   UNL     1       0.378   2.688  19.762  0.00  0.00    +0.000 A 
ATOM     12  C   UNL     1       0.803   2.688  21.091  0.00  0.00    +0.000 A 
ATOM     13  C   UNL     1       1.899   3.462  21.451  0.00  0.00    +0.000 A 
ATOM     14  C   UNL     1       2.574   4.226  20.507  0.00  0.00    +0.000 A 
BRANCH  13  15
ATOM     15  O   UNL     1       2.345   3.525  22.738  0.00  0.00    +0.000 OA
ATOM     16  H   UNL     1       1.843   2.890  23.275  0.00  0.00    +0.000 HD
ENDBRANCH  13  15
ENDBRANCH   5   9
BRANCH   1  17
ATOM     17  C   UNL     1       7.651   4.847  16.927  0.00  0.00    +0.000 C 
ATOM     18  O   UNL     1       8.625   4.195  17.301  0.00  0.00    +0.000 OA
BRANCH  17  22
ATOM     19  C   UNL     1       6.108   3.813  13.008  0.00  0.00    +0.000 A 
ATOM     20  C   UNL     1       5.525   3.302  14.172  0.00  0.00    +0.000 A 
ATOM     21  C   UNL     1       6.011   3.673  15.434  0.00  0.00    +0.000 A 
ATOM     22  C   UNL     1       7.071   4.582  15.556  0.00  0.00    +0.000 A 
ATOM     23  C   UNL     1       7.574   5.173  14.390  0.00  0.00    +0.000 A 
ATOM     24  C   UNL     1       7.114   4.776  13.130  0.00  0.00    +0.000 A 
BRANCH  19  26
ATOM     25  C   UNL     1       4.167   3.338  11.465  0.00  0.00    +0.000 C 
ATOM     26  C   UNL     1       5.677   3.338  11.642  0.00  0.00    +0.000 C 
ENDBRANCH  19  26
ENDBRANCH  17  22
ENDBRANCH   1  17
TORSDOF 5
ENDMDL
MODEL 8
REMARK VINA RESULT:      -7.4      3.338      5.639
REMARK  Name = 
REMARK  6 active torsions:
REMARK  status: ('A' for Active; 'I' for Inactive)
REMARK    1  A    between atoms: C_1  and  C_2
REMARK    2  A    between atoms: C_2  and  C_3
REMARK    3  A    between atoms: C_6  and  C_7
REMARK    4  A    between atoms: C_7  and  C_9
REMARK    5  A    between atoms: C_13  and  C_15
REMARK    6  A    between atoms: C_19  and  O_20
REMARK                            x       y       z     vdW  Elec       q    Type
REMARK                         _______ _______ _______ _____ _____    ______ ____
ROOT
ATOM      1  C   UNL     1       6.473   7.040  16.934  0.00  0.00    +0.000 C 
ATOM      2  C   UNL     1       5.063   7.067  17.521  0.00  0.00    +0.000 C 
ATOM      3  C   UNL     1       4.684   5.800  18.267  0.00  0.00    +0.000 C 
ATOM      4  N   UNL     1       4.953   4.560  17.552  0.00  0.00    +0.000 N 
ATOM      5  C   UNL     1       4.281   3.346  17.824  0.00  0.00    +0.000 C 
ATOM      6  O   UNL     1       4.586   2.283  17.272  0.00  0.00    +0.000 OA
ATOM      7  C   UNL     1       6.262   4.468  16.905  0.00  0.00    +0.000 C 
ATOM      8  C   UNL     1       6.666   5.734  16.144  0.00  0.00    +0.000 C 
ENDROOT
BRANCH   5   9
ATOM      9  C   UNL     1       3.123   3.301  18.766  0.00  0.00    +0.000 A 
ATOM     10  C   UNL     1       1.827   3.464  18.255  0.00  0.00    +0.000 A 
ATOM     11  C   UNL     1       0.724   3.498  19.118  0.00  0.00    +0.000 A 
ATOM     12  C   UNL     1       0.909   3.394  20.497  0.00  0.00    +0.000 A 
ATOM     13  C   UNL     1       2.190   3.185  20.994  0.00  0.00    +0.000 A 
ATOM     14  C   UNL     1       3.278   3.074  20.137  0.00  0.00    +0.000 A 
BRANCH  13  15
ATOM     15  O   UNL     1       2.439   3.103  22.331  0.00  0.00    +0.000 OA
ATOM     16  H   UNL     1       1.594   3.126  22.810  0.00  0.00    +0.000 HD
ENDBRANCH  13  15
ENDBRANCH   5   9
BRANCH   1  17
ATOM     17  C   UNL     1       7.583   7.290  17.970  0.00  0.00    +0.000 C 
ATOM     18  O   UNL     1       8.089   6.362  18.600  0.00  0.00    +0.000 OA
BRANCH  17  22
ATOM     19  C   UNL     1       9.163  11.306  18.401  0.00  0.00    +0.000 A 
ATOM     20  C   UNL     1       8.162  11.019  17.467  0.00  0.00    +0.000 A 
ATOM     21  C   UNL     1       7.634   9.724  17.364  0.00  0.00    +0.000 A 
ATOM     22  C   UNL     1       8.079   8.698  18.209  0.00  0.00    +0.000 A 
ATOM     23  C   UNL     1       9.000   9.020  19.214  0.00  0.00    +0.000 A 
ATOM     24  C   UNL     1       9.553  10.303  19.294  0.00  0.00    +0.000 A 
BRANCH  19  26
ATOM     25  C   UNL     1       8.826  13.806  18.485  0.00  0.00    +0.000 C 
ATOM     26  C   UNL     1       9.825  12.661  18.450  0.00  0.00    +0.000 C 
ENDBRANCH  19  26
ENDBRANCH  17  22
ENDBRANCH   1  17
TORSDOF 5
ENDMDL
MODEL 9
REMARK VINA RESULT:      -7.3      4.162      5.718
REMARK  Name = 
REMARK  6 active torsions:
REMARK  status: ('A' for Active; 'I' for Inactive)
REMARK    1  A    between atoms: C_1  and  C_2
REMARK    2  A    between atoms: C_2  and  C_3
REMARK    3  A    between atoms: C_6  and  C_7
REMARK    4  A    between atoms: C_7  and  C_9
REMARK    5  A    between atoms: C_13  and  C_15
REMARK    6  A    between atoms: C_19  and  O_20
REMARK                            x       y       z     vdW  Elec       q    Type
REMARK                         _______ _______ _______ _____ _____    ______ ____
ROOT
ATOM      1  C   UNL     1       2.355   5.757  18.763  0.00  0.00    +0.000 C 
ATOM      2  C   UNL     1       1.687   6.839  17.915  0.00  0.00    +0.000 C 
ATOM      3  C   UNL     1       1.778   8.231  18.512  0.00  0.00    +0.000 C 
ATOM      4  N   UNL     1       1.398   8.326  19.914  0.00  0.00    +0.000 N 
ATOM      5  C   UNL     1       0.963   9.527  20.522  0.00  0.00    +0.000 C 
ATOM      6  O   UNL     1       0.732   9.611  21.733  0.00  0.00    +0.000 OA
ATOM      7  C   UNL     1       1.945   7.293  20.795  0.00  0.00    +0.000 C 
ATOM      8  C   UNL     1       1.862   5.879  20.215  0.00  0.00    +0.000 C 
ENDROOT
BRANCH   5   9
ATOM      9  C   UNL     1       0.710  10.754  19.707  0.00  0.00    +0.000 A 
ATOM     10  C   UNL     1       1.715  11.729  19.621  0.00  0.00    +0.000 A 
ATOM     11  C   UNL     1       1.486  12.923  18.924  0.00  0.00    +0.000 A 
ATOM     12  C   UNL     1       0.246  13.162  18.332  0.00  0.00    +0.000 A 
ATOM     13  C   UNL     1      -0.730  12.173  18.381  0.00  0.00    +0.000 A 
ATOM     14  C   UNL     1      -0.481  10.956  19.005  0.00  0.00    +0.000 A 
BRANCH  13  15
ATOM     15  O   UNL     1      -1.969  12.357  17.846  0.00  0.00    +0.000 OA
ATOM     16  H   UNL     1      -1.888  12.412  16.879  0.00  0.00    +0.000 HD
ENDBRANCH  13  15
ENDBRANCH   5   9
BRANCH   1  17
ATOM     17  C   UNL     1       3.889   5.733  18.644  0.00  0.00    +0.000 C 
ATOM     18  O   UNL     1       4.608   5.955  19.618  0.00  0.00    +0.000 OA
BRANCH  17  22
ATOM     19  C   UNL     1       5.981   4.749  14.975  0.00  0.00    +0.000 A 
ATOM     20  C   UNL     1       5.540   3.748  15.848  0.00  0.00    +0.000 A 
ATOM     21  C   UNL     1       4.833   4.078  17.012  0.00  0.00    +0.000 A 
ATOM     22  C   UNL     1       4.530   5.413  17.313  0.00  0.00    +0.000 A 
ATOM     23  C   UNL     1       4.877   6.399  16.380  0.00  0.00    +0.000 A 
ATOM     24  C   UNL     1       5.614   6.073  15.236  0.00  0.00    +0.000 A 
BRANCH  19  26
ATOM     25  C   UNL     1       6.121   3.574  12.746  0.00  0.00    +0.000 C 
ATOM     26  C   UNL     1       6.842   4.424  13.780  0.00  0.00    +0.000 C 
ENDBRANCH  19  26
ENDBRANCH  17  22
ENDBRANCH   1  17
TORSDOF 5
ENDMDL
