MODEL 1
REMARK VINA RESULT:      -7.6      0.000      0.000
REMARK  Name = 
REMARK  3 active torsions:
REMARK  status: ('A' for Active; 'I' for Inactive)
REMARK    1  A    between atoms: C_2  and  C_12
REMARK    2  A    between atoms: N_3  and  C_4
REMARK    3  A    between atoms: C_18  and  O_19
REMARK                            x       y       z     vdW  Elec       q    Type
REMARK                         _______ _______ _______ _____ _____    ______ ____
ROOT
ATOM      1  O   UNL     1       4.783   5.633  16.449  0.00  0.00    +0.000 OA
ATOM      2  C   UNL     1       5.106   4.507  16.073  0.00  0.00    +0.000 C 
ATOM      3  N   UNL     1       4.821   3.331  16.734  0.00  0.00    +0.000 N 
ATOM      4  H   UNL     1       5.271   2.486  16.384  0.00  0.00    +0.000 HD
ENDROOT
BRANCH   3   5
ATOM      5  C   UNL     1       4.083   3.204  17.932  0.00  0.00    +0.000 A 
ATOM      6  C   UNL     1       4.673   3.015  19.187  0.00  0.00    +0.000 A 
ATOM      7  C   UNL     1       3.887   2.858  20.331  0.00  0.00    +0.000 A 
ATOM      8  C   UNL     1       2.500   2.897  20.230  0.00  0.00    +0.000 A 
ATOM      9 BR   UNL     1       1.448   2.653  21.781  0.00  0.00    +0.000 Br
ATOM     10  C   UNL     1       1.889   3.108  18.999  0.00  0.00    +0.000 A 
ATOM     11  C   UNL     1       2.684   3.267  17.864  0.00  0.00    +0.000 A 
ATOM     12  F   UNL     1       2.084   3.465  16.679  0.00  0.00    +0.000 F 
ENDBRANCH   3   5
BRANCH   2  13
ATOM     13  C   UNL     1       5.884   4.412  14.805  0.00  0.00    +0.000 A 
ATOM     14  C   UNL     1       5.357   3.565  13.812  0.00  0.00    +0.000 A 
ATOM     15  C   UNL     1       5.983   3.456  12.577  0.00  0.00    +0.000 A 
ATOM     16 CL   UNL     1       5.325   2.418  11.375  0.00  0.00    +0.000 Cl
ATOM     17  C   UNL     1       7.135   4.189  12.306  0.00  0.00    +0.000 A 
ATOM     18  C   UNL     1       7.677   5.025  13.286  0.00  0.00    +0.000 A 
ATOM     19  C   UNL     1       7.056   5.132  14.534  0.00  0.00    +0.000 A 
BRANCH  19  20
ATOM     20  O   UNL     1       7.600   5.955  15.482  0.00  0.00    +0.000 OA
ATOM     21  H   UNL     1       7.938   5.416  16.219  0.00  0.00    +0.000 HD
ENDBRANCH  19  20
ENDBRANCH   2  13
TORSDOF 3
ENDMDL
MODEL 2
REMARK VINA RESULT:      -7.5      1.048      1.477
REMARK  Name = 
REMARK  3 active torsions:
REMARK  status: ('A' for Active; 'I' for Inactive)
REMARK    1  A    between atoms: C_2  and  C_12
REMARK    2  A    between atoms: N_3  and  C_4
REMARK    3  A    between atoms: C_18  and  O_19
REMARK                            x       y       z     vdW  Elec       q    Type
REMARK                         _______ _______ _______ _____ _____    ______ ____
ROOT
ATOM      1  O   UNL     1       4.782   5.524  16.348  0.00  0.00    +0.000 OA
ATOM      2  C   UNL     1       5.071   4.405  15.928  0.00  0.00    +0.000 C 
ATOM      3  N   UNL     1       4.718   3.211  16.521  0.00  0.00    +0.000 N 
ATOM      4  H   UNL     1       5.144   2.366  16.144  0.00  0.00    +0.000 HD
ENDROOT
BRANCH   3   5
ATOM      5  C   UNL     1       3.937   3.058  17.688  0.00  0.00    +0.000 A 
ATOM      6  C   UNL     1       2.630   2.559  17.683  0.00  0.00    +0.000 A 
ATOM      7  C   UNL     1       1.894   2.468  18.867  0.00  0.00    +0.000 A 
ATOM      8  C   UNL     1       2.464   2.870  20.070  0.00  0.00    +0.000 A 
ATOM      9 BR   UNL     1       1.448   2.769  21.661  0.00  0.00    +0.000 Br
ATOM     10  C   UNL     1       3.771   3.346  20.107  0.00  0.00    +0.000 A 
ATOM     11  C   UNL     1       4.497   3.429  18.919  0.00  0.00    +0.000 A 
ATOM     12  F   UNL     1       5.754   3.896  18.964  0.00  0.00    +0.000 F 
ENDBRANCH   3   5
BRANCH   2  13
ATOM     13  C   UNL     1       5.886   4.338  14.681  0.00  0.00    +0.000 A 
ATOM     14  C   UNL     1       5.403   3.494  13.665  0.00  0.00    +0.000 A 
ATOM     15  C   UNL     1       6.065   3.410  12.446  0.00  0.00    +0.000 A 
ATOM     16 CL   UNL     1       5.460   2.373  11.215  0.00  0.00    +0.000 Cl
ATOM     17  C   UNL     1       7.210   4.167  12.216  0.00  0.00    +0.000 A 
ATOM     18  C   UNL     1       7.708   5.002  13.220  0.00  0.00    +0.000 A 
ATOM     19  C   UNL     1       7.051   5.083  14.451  0.00  0.00    +0.000 A 
BRANCH  19  20
ATOM     20  O   UNL     1       7.553   5.906  15.423  0.00  0.00    +0.000 OA
ATOM     21  H   UNL     1       6.868   6.058  16.098  0.00  0.00    +0.000 HD
ENDBRANCH  19  20
ENDBRANCH   2  13
TORSDOF 3
ENDMDL
MODEL 3
REMARK VINA RESULT:      -7.4      1.137      1.315
REMARK  Name = 
REMARK  3 active torsions:
REMARK  status: ('A' for Active; 'I' for Inactive)
REMARK    1  A    between atoms: C_2  and  C_12
REMARK    2  A    between atoms: N_3  and  C_4
REMARK    3  A    between atoms: C_18  and  O_19
REMARK                            x       y       z     vdW  Elec       q    Type
REMARK                         _______ _______ _______ _____ _____    ______ ____
ROOT
ATOM      1  O   UNL     1       6.373   4.289  17.122  0.00  0.00    +0.000 OA
ATOM      2  C   UNL     1       5.603   4.058  16.190  0.00  0.00    +0.000 C 
ATOM      3  N   UNL     1       4.278   3.700  16.317  0.00  0.00    +0.000 N 
ATOM      4  H   UNL     1       3.799   3.402  15.469  0.00  0.00    +0.000 HD
ENDROOT
BRANCH   3   5
ATOM      5  C   UNL     1       3.561   3.569  17.527  0.00  0.00    +0.000 A 
ATOM      6  C   UNL     1       2.945   4.642  18.180  0.00  0.00    +0.000 A 
ATOM      7  C   UNL     1       2.282   4.455  19.395  0.00  0.00    +0.000 A 
ATOM      8  C   UNL     1       2.224   3.188  19.966  0.00  0.00    +0.000 A 
ATOM      9 BR   UNL     1       1.350   2.954  21.626  0.00  0.00    +0.000 Br
ATOM     10  C   UNL     1       2.807   2.099  19.325  0.00  0.00    +0.000 A 
ATOM     11  C   UNL     1       3.463   2.298  18.110  0.00  0.00    +0.000 A 
ATOM     12  F   UNL     1       4.027   1.242  17.503  0.00  0.00    +0.000 F 
ENDBRANCH   3   5
BRANCH   2  13
ATOM     13  C   UNL     1       6.160   4.160  14.810  0.00  0.00    +0.000 A 
ATOM     14  C   UNL     1       5.586   3.315  13.843  0.00  0.00    +0.000 A 
ATOM     15  C   UNL     1       6.002   3.379  12.519  0.00  0.00    +0.000 A 
ATOM     16 CL   UNL     1       5.290   2.339  11.350  0.00  0.00    +0.000 Cl
ATOM     17  C   UNL     1       6.985   4.285  12.134  0.00  0.00    +0.000 A 
ATOM     18  C   UNL     1       7.572   5.124  13.087  0.00  0.00    +0.000 A 
ATOM     19  C   UNL     1       7.164   5.057  14.422  0.00  0.00    +0.000 A 
BRANCH  19  20
ATOM     20  O   UNL     1       7.750   5.886  15.341  0.00  0.00    +0.000 OA
ATOM     21  H   UNL     1       7.059   6.407  15.788  0.00  0.00    +0.000 HD
ENDBRANCH  19  20
ENDBRANCH   2  13
TORSDOF 3
ENDMDL
MODEL 4
REMARK VINA RESULT:      -7.2      1.102      1.140
REMARK  Name = 
REMARK  3 active torsions:
REMARK  status: ('A' for Active; 'I' for Inactive)
REMARK    1  A    between atoms: C_2  and  C_12
REMARK    2  A    between atoms: N_3  and  C_4
REMARK    3  A    between atoms: C_18  and  O_19
REMARK                            x       y       z     vdW  Elec       q    Type
REMARK                         _______ _______ _______ _____ _____    ______ ____
ROOT
ATOM      1  O   UNL     1       6.525   4.200  16.997  0.00  0.00    +0.000 OA
ATOM      2  C   UNL     1       5.733   3.958  16.086  0.00  0.00    +0.000 C 
ATOM      3  N   UNL     1       4.424   3.559  16.250  0.00  0.00    +0.000 N 
ATOM      4  H   UNL     1       3.926   3.257  15.414  0.00  0.00    +0.000 HD
ENDROOT
BRANCH   3   5
ATOM      5  C   UNL     1       3.750   3.390  17.481  0.00  0.00    +0.000 A 
ATOM      6  C   UNL     1       3.643   2.162  18.142  0.00  0.00    +0.000 A 
ATOM      7  C   UNL     1       2.930   2.052  19.338  0.00  0.00    +0.000 A 
ATOM      8  C   UNL     1       2.323   3.175  19.888  0.00  0.00    +0.000 A 
ATOM      9 BR   UNL     1       1.335   3.007  21.492  0.00  0.00    +0.000 Br
ATOM     10  C   UNL     1       2.434   4.414  19.265  0.00  0.00    +0.000 A 
ATOM     11  C   UNL     1       3.152   4.512  18.073  0.00  0.00    +0.000 A 
ATOM     12  F   UNL     1       3.248   5.710  17.476  0.00  0.00    +0.000 F 
ENDBRANCH   3   5
BRANCH   2  13
ATOM     13  C   UNL     1       6.241   4.096  14.692  0.00  0.00    +0.000 A 
ATOM     14  C   UNL     1       5.649   3.260  13.728  0.00  0.00    +0.000 A 
ATOM     15  C   UNL     1       6.018   3.356  12.392  0.00  0.00    +0.000 A 
ATOM     16 CL   UNL     1       5.284   2.327  11.227  0.00  0.00    +0.000 Cl
ATOM     17  C   UNL     1       6.974   4.285  11.992  0.00  0.00    +0.000 A 
ATOM     18  C   UNL     1       7.580   5.114  12.941  0.00  0.00    +0.000 A 
ATOM     19  C   UNL     1       7.218   5.016  14.287  0.00  0.00    +0.000 A 
BRANCH  19  20
ATOM     20  O   UNL     1       7.821   5.836  15.202  0.00  0.00    +0.000 OA
ATOM     21  H   UNL     1       8.769   5.618  15.252  0.00  0.00    +0.000 HD
ENDBRANCH  19  20
ENDBRANCH   2  13
TORSDOF 3
ENDMDL
MODEL 5
REMARK VINA RESULT:      -6.7      6.474      8.373
REMARK  Name = 
REMARK  3 active torsions:
REMARK  status: ('A' for Active; 'I' for Inactive)
REMARK    1  A    between atoms: C_2  and  C_12
REMARK    2  A    between atoms: N_3  and  C_4
REMARK    3  A    between atoms: C_18  and  O_19
REMARK                            x       y       z     vdW  Elec       q    Type
REMARK                         _______ _______ _______ _____ _____    ______ ____
ROOT
ATOM      1  O   UNL     1       2.059   9.413  17.437  0.00  0.00    +0.000 OA
ATOM      2  C   UNL     1       1.757   8.816  18.470  0.00  0.00    +0.000 C 
ATOM      3  N   UNL     1       2.201   7.561  18.828  0.00  0.00    +0.000 N 
ATOM      4  H   UNL     1       1.761   7.130  19.640  0.00  0.00    +0.000 HD
ENDROOT
BRANCH   3   5
ATOM      5  C   UNL     1       3.104   6.755  18.097  0.00  0.00    +0.000 A 
ATOM      6  C   UNL     1       4.247   7.254  17.464  0.00  0.00    +0.000 A 
ATOM      7  C   UNL     1       5.081   6.413  16.724  0.00  0.00    +0.000 A 
ATOM      8  C   UNL     1       4.780   5.059  16.617  0.00  0.00    +0.000 A 
ATOM      9 BR   UNL     1       5.900   3.936  15.588  0.00  0.00    +0.000 Br
ATOM     10  C   UNL     1       3.664   4.532  17.257  0.00  0.00    +0.000 A 
ATOM     11  C   UNL     1       2.841   5.382  17.997  0.00  0.00    +0.000 A 
ATOM     12  F   UNL     1       1.762   4.864  18.606  0.00  0.00    +0.000 F 
ENDBRANCH   3   5
BRANCH   2  13
ATOM     13  C   UNL     1       0.819   9.505  19.402  0.00  0.00    +0.000 A 
ATOM     14  C   UNL     1       0.951   9.188  20.766  0.00  0.00    +0.000 A 
ATOM     15  C   UNL     1       0.158   9.822  21.714  0.00  0.00    +0.000 A 
ATOM     16 CL   UNL     1       0.333   9.424  23.378  0.00  0.00    +0.000 Cl
ATOM     17  C   UNL     1      -0.772  10.782  21.325  0.00  0.00    +0.000 A 
ATOM     18  C   UNL     1      -0.923  11.098  19.971  0.00  0.00    +0.000 A 
ATOM     19  C   UNL     1      -0.133  10.457  19.012  0.00  0.00    +0.000 A 
BRANCH  19  20
ATOM     20  O   UNL     1      -0.294  10.779  17.692  0.00  0.00    +0.000 OA
ATOM     21  H   UNL     1      -0.991  10.218  17.308  0.00  0.00    +0.000 HD
ENDBRANCH  19  20
ENDBRANCH   2  13
TORSDOF 3
ENDMDL
MODEL 6
REMARK VINA RESULT:      -6.6      5.474      6.525
REMARK  Name = 
REMARK  3 active torsions:
REMARK  status: ('A' for Active; 'I' for Inactive)
REMARK    1  A    between atoms: C_2  and  C_12
REMARK    2  A    between atoms: N_3  and  C_4
REMARK    3  A    between atoms: C_18  and  O_19
REMARK                            x       y       z     vdW  Elec       q    Type
REMARK                         _______ _______ _______ _____ _____    ______ ____
ROOT
ATOM      1  O   UNL     1       1.510   5.521  20.475  0.00  0.00    +0.000 OA
ATOM      2  C   UNL     1       2.197   6.170  19.687  0.00  0.00    +0.000 C 
ATOM      3  N   UNL     1       2.201   7.544  19.573  0.00  0.00    +0.000 N 
ATOM      4  H   UNL     1       2.712   7.939  18.784  0.00  0.00    +0.000 HD
ENDROOT
BRANCH   3   5
ATOM      5  C   UNL     1       1.452   8.449  20.357  0.00  0.00    +0.000 A 
ATOM      6  C   UNL     1       1.441   8.434  21.756  0.00  0.00    +0.000 A 
ATOM      7  C   UNL     1       0.648   9.332  22.475  0.00  0.00    +0.000 A 
ATOM      8  C   UNL     1      -0.137  10.259  21.798  0.00  0.00    +0.000 A 
ATOM      9 BR   UNL     1      -1.229  11.448  22.783  0.00  0.00    +0.000 Br
ATOM     10  C   UNL     1      -0.126  10.312  20.409  0.00  0.00    +0.000 A 
ATOM     11  C   UNL     1       0.672   9.412  19.701  0.00  0.00    +0.000 A 
ATOM     12  F   UNL     1       0.671   9.467  18.360  0.00  0.00    +0.000 F 
ENDBRANCH   3   5
BRANCH   2  13
ATOM     13  C   UNL     1       3.086   5.401  18.770  0.00  0.00    +0.000 A 
ATOM     14  C   UNL     1       4.470   5.589  18.939  0.00  0.00    +0.000 A 
ATOM     15  C   UNL     1       5.376   4.873  18.168  0.00  0.00    +0.000 A 
ATOM     16 CL   UNL     1       7.064   5.116  18.389  0.00  0.00    +0.000 Cl
ATOM     17  C   UNL     1       4.925   3.956  17.223  0.00  0.00    +0.000 A 
ATOM     18  C   UNL     1       3.553   3.767  17.035  0.00  0.00    +0.000 A 
ATOM     19  C   UNL     1       2.636   4.491  17.803  0.00  0.00    +0.000 A 
BRANCH  19  20
ATOM     20  O   UNL     1       1.296   4.293  17.606  0.00  0.00    +0.000 OA
ATOM     21  H   UNL     1       1.169   3.711  16.835  0.00  0.00    +0.000 HD
ENDBRANCH  19  20
ENDBRANCH   2  13
TORSDOF 3
ENDMDL
MODEL 7
REMARK VINA RESULT:      -6.6      6.048      8.070
REMARK  Name = 
REMARK  3 active torsions:
REMARK  status: ('A' for Active; 'I' for Inactive)
REMARK    1  A    between atoms: C_2  and  C_12
REMARK    2  A    between atoms: N_3  and  C_4
REMARK    3  A    between atoms: C_18  and  O_19
REMARK                            x       y       z     vdW  Elec       q    Type
REMARK                         _______ _______ _______ _____ _____    ______ ____
ROOT
ATOM      1  O   UNL     1       1.997   8.817  17.371  0.00  0.00    +0.000 OA
ATOM      2  C   UNL     1       2.092   8.290  18.479  0.00  0.00    +0.000 C 
ATOM      3  N   UNL     1       2.842   7.171  18.771  0.00  0.00    +0.000 N 
ATOM      4  H   UNL     1       2.717   6.762  19.696  0.00  0.00    +0.000 HD
ENDROOT
BRANCH   3   5
ATOM      5  C   UNL     1       3.659   6.454  17.868  0.00  0.00    +0.000 A 
ATOM      6  C   UNL     1       4.741   7.022  17.187  0.00  0.00    +0.000 A 
ATOM      7  C   UNL     1       5.488   6.270  16.277  0.00  0.00    +0.000 A 
ATOM      8  C   UNL     1       5.162   4.939  16.046  0.00  0.00    +0.000 A 
ATOM      9 BR   UNL     1       6.162   3.941  14.789  0.00  0.00    +0.000 Br
ATOM     10  C   UNL     1       4.107   4.342  16.728  0.00  0.00    +0.000 A 
ATOM     11  C   UNL     1       3.370   5.102  17.637  0.00  0.00    +0.000 A 
ATOM     12  F   UNL     1       2.350   4.519  18.285  0.00  0.00    +0.000 F 
ENDBRANCH   3   5
BRANCH   2  13
ATOM     13  C   UNL     1       1.316   8.908  19.592  0.00  0.00    +0.000 A 
ATOM     14  C   UNL     1       0.610  10.085  19.281  0.00  0.00    +0.000 A 
ATOM     15  C   UNL     1      -0.185  10.701  20.239  0.00  0.00    +0.000 A 
ATOM     16 CL   UNL     1      -1.042  12.138  19.843  0.00  0.00    +0.000 Cl
ATOM     17  C   UNL     1      -0.298  10.156  21.515  0.00  0.00    +0.000 A 
ATOM     18  C   UNL     1       0.407   8.993  21.842  0.00  0.00    +0.000 A 
ATOM     19  C   UNL     1       1.216   8.375  20.884  0.00  0.00    +0.000 A 
BRANCH  19  20
ATOM     20  O   UNL     1       1.898   7.237  21.221  0.00  0.00    +0.000 OA
ATOM     21  H   UNL     1       2.535   7.443  21.928  0.00  0.00    +0.000 HD
ENDBRANCH  19  20
ENDBRANCH   2  13
TORSDOF 3
ENDMDL
MODEL 8
REMARK VINA RESULT:      -6.5      5.512      6.562
REMARK  Name = 
REMARK  3 active torsions:
REMARK  status: ('A' for Active; 'I' for Inactive)
REMARK    1  A    between atoms: C_2  and  C_12
REMARK    2  A    between atoms: N_3  and  C_4
REMARK    3  A    between atoms: C_18  and  O_19
REMARK                            x       y       z     vdW  Elec       q    Type
REMARK                         _______ _______ _______ _____ _____    ______ ____
ROOT
ATOM      1  O   UNL     1       1.416   5.635  20.630  0.00  0.00    +0.000 OA
ATOM      2  C   UNL     1       2.150   6.298  19.898  0.00  0.00    +0.000 C 
ATOM      3  N   UNL     1       2.157   7.673  19.806  0.00  0.00    +0.000 N 
ATOM      4  H   UNL     1       2.716   8.082  19.059  0.00  0.00    +0.000 HD
ENDROOT
BRANCH   3   5
ATOM      5  C   UNL     1       1.355   8.564  20.555  0.00  0.00    +0.000 A 
ATOM      6  C   UNL     1       1.308   8.574  21.953  0.00  0.00    +0.000 A 
ATOM      7  C   UNL     1       0.464   9.454  22.634  0.00  0.00    +0.000 A 
ATOM      8  C   UNL     1      -0.336  10.339  21.921  0.00  0.00    +0.000 A 
ATOM      9 BR   UNL     1      -1.495  11.505  22.856  0.00  0.00    +0.000 Br
ATOM     10  C   UNL     1      -0.291  10.368  20.531  0.00  0.00    +0.000 A 
ATOM     11  C   UNL     1       0.558   9.487  19.862  0.00  0.00    +0.000 A 
ATOM     12  F   UNL     1       0.590   9.518  18.520  0.00  0.00    +0.000 F 
ENDBRANCH   3   5
BRANCH   2  13
ATOM     13  C   UNL     1       3.099   5.546  19.029  0.00  0.00    +0.000 A 
ATOM     14  C   UNL     1       3.589   6.230  17.902  0.00  0.00    +0.000 A 
ATOM     15  C   UNL     1       4.520   5.630  17.064  0.00  0.00    +0.000 A 
ATOM     16 CL   UNL     1       5.109   6.482  15.692  0.00  0.00    +0.000 Cl
ATOM     17  C   UNL     1       4.984   4.346  17.335  0.00  0.00    +0.000 A 
ATOM     18  C   UNL     1       4.498   3.649  18.445  0.00  0.00    +0.000 A 
ATOM     19  C   UNL     1       3.554   4.245  19.286  0.00  0.00    +0.000 A 
BRANCH  19  20
ATOM     20  O   UNL     1       3.089   3.547  20.368  0.00  0.00    +0.000 OA
ATOM     21  H   UNL     1       2.999   4.153  21.125  0.00  0.00    +0.000 HD
ENDBRANCH  19  20
ENDBRANCH   2  13
TORSDOF 3
ENDMDL
MODEL 9
REMARK VINA RESULT:      -6.3      4.523      5.097
REMARK  Name = 
REMARK  3 active torsions:
REMARK  status: ('A' for Active; 'I' for Inactive)
REMARK    1  A    between atoms: C_2  and  C_12
REMARK    2  A    between atoms: N_3  and  C_4
REMARK    3  A    between atoms: C_18  and  O_19
REMARK                            x       y       z     vdW  Elec       q    Type
REMARK                         _______ _______ _______ _____ _____    ______ ____
ROOT
ATOM      1  O   UNL     1       2.523   5.323  17.803  0.00  0.00    +0.000 OA
ATOM      2  C   UNL     1       3.534   6.024  17.774  0.00  0.00    +0.000 C 
ATOM      3  N   UNL     1       3.584   7.368  18.076  0.00  0.00    +0.000 N 
ATOM      4  H   UNL     1       4.458   7.853  17.873  0.00  0.00    +0.000 HD
ENDROOT
BRANCH   3   5
ATOM      5  C   UNL     1       2.502   8.169  18.503  0.00  0.00    +0.000 A 
ATOM      6  C   UNL     1       1.921   9.169  17.716  0.00  0.00    +0.000 A 
ATOM      7  C   UNL     1       0.877   9.954  18.210  0.00  0.00    +0.000 A 
ATOM      8  C   UNL     1       0.399   9.740  19.498  0.00  0.00    +0.000 A 
ATOM      9 BR   UNL     1      -0.995  10.829  20.166  0.00  0.00    +0.000 Br
ATOM     10  C   UNL     1       0.941   8.736  20.294  0.00  0.00    +0.000 A 
ATOM     11  C   UNL     1       1.981   7.956  19.787  0.00  0.00    +0.000 A 
ATOM     12  F   UNL     1       2.501   6.994  20.566  0.00  0.00    +0.000 F 
ENDBRANCH   3   5
BRANCH   2  13
ATOM     13  C   UNL     1       4.806   5.363  17.363  0.00  0.00    +0.000 A 
ATOM     14  C   UNL     1       4.886   4.948  16.021  0.00  0.00    +0.000 A 
ATOM     15  C   UNL     1       6.053   4.373  15.532  0.00  0.00    +0.000 A 
ATOM     16 CL   UNL     1       6.135   3.873  13.889  0.00  0.00    +0.000 Cl
ATOM     17  C   UNL     1       7.157   4.208  16.364  0.00  0.00    +0.000 A 
ATOM     18  C   UNL     1       7.087   4.605  17.702  0.00  0.00    +0.000 A 
ATOM     19  C   UNL     1       5.913   5.176  18.202  0.00  0.00    +0.000 A 
BRANCH  19  20
ATOM     20  O   UNL     1       5.862   5.558  19.515  0.00  0.00    +0.000 OA
ATOM     21  H   UNL     1       5.218   5.001  19.986  0.00  0.00    +0.000 HD
ENDBRANCH  19  20
ENDBRANCH   2  13
TORSDOF 3
ENDMDL
