MODEL 1
REMARK VINA RESULT:      -7.5      0.000      0.000
REMARK  Name = 
REMARK  8 active torsions:
REMARK  status: ('A' for Active; 'I' for Inactive)
REMARK    1  A    between atoms: C_1  and  C_2
REMARK    2  A    between atoms: C_2  and  O_3
REMARK    3  A    between atoms: O_3  and  C_4
REMARK    4  A    between atoms: C_6  and  C_7
REMARK    5  A    between atoms: N_8  and  N_9
REMARK    6  A    between atoms: C_15  and  N_16
REMARK    7  A    between atoms: C_25  and  O_26
REMARK    8  A    between atoms: O_26  and  C_27
REMARK                            x       y       z     vdW  Elec       q    Type
REMARK                         _______ _______ _______ _____ _____    ______ ____
ROOT
ATOM      1  C   UNL     1       0.940   8.675  20.317  0.00  0.00    +0.000 A 
ATOM      2  C   UNL     1      -0.132   9.470  19.887  0.00  0.00    +0.000 A 
ATOM      3  C   UNL     1      -0.235   9.883  18.554  0.00  0.00    +0.000 A 
ATOM      4  C   UNL     1       0.759   9.535  17.646  0.00  0.00    +0.000 A 
ATOM      5  C   UNL     1       1.824   8.742  18.066  0.00  0.00    +0.000 A 
ATOM      6  C   UNL     1       1.871   8.225  19.374  0.00  0.00    +0.000 A 
ENDROOT
BRANCH   3   7
ATOM      7  C   UNL     1      -1.417  10.603  18.026  0.00  0.00    +0.000 C 
ATOM      8  N   UNL     1      -1.574  11.876  17.812  0.00  0.00    +0.000 NA
BRANCH   8   9
ATOM      9  N   UNL     1      -0.473  12.650  17.975  0.00  0.00    +0.000 N 
ATOM     10  C   UNL     1      -0.464  13.663  18.949  0.00  0.00    +0.000 A 
ATOM     11  N   UNL     1      -1.192  13.556  20.070  0.00  0.00    +0.000 NA
ATOM     12  C   UNL     1      -1.018  14.517  20.989  0.00  0.00    +0.000 A 
ATOM     13  C   UNL     1      -0.136  15.555  20.837  0.00  0.00    +0.000 A 
ATOM     14  F   UNL     1      -0.009  16.481  21.798  0.00  0.00    +0.000 F 
ATOM     15  C   UNL     1       0.570  15.618  19.641  0.00  0.00    +0.000 A 
ATOM     16  N   UNL     1       0.394  14.674  18.694  0.00  0.00    +0.000 NA
ATOM     17  H   UNL     1      -0.054  13.051  17.137  0.00  0.00    +0.000 HD
BRANCH  15  18
ATOM     18  N   UNL     1       1.434  16.677  19.378  0.00  0.00    +0.000 N 
ATOM     19  C   UNL     1       0.912  17.871  18.697  0.00  0.00    +0.000 C 
ATOM     20  C   UNL     1       1.336  17.944  17.224  0.00  0.00    +0.000 C 
ATOM     21  O   UNL     1       2.752  17.764  17.068  0.00  0.00    +0.000 OA
ATOM     22  C   UNL     1       3.135  16.477  17.575  0.00  0.00    +0.000 C 
ATOM     23  C   UNL     1       2.840  16.352  19.079  0.00  0.00    +0.000 C 
ENDBRANCH  15  18
ENDBRANCH   8   9
ENDBRANCH   3   7
BRANCH   1  24
ATOM     24  O   UNL     1       0.890   8.367  21.648  0.00  0.00    +0.000 OA
BRANCH  24  26
ATOM     25  C   UNL     1      -0.158   9.619  23.400  0.00  0.00    +0.000 C 
ATOM     26  C   UNL     1       1.108   9.436  22.571  0.00  0.00    +0.000 C 
ENDBRANCH  24  26
ENDBRANCH   1  24
BRANCH   6  27
ATOM     27  O   UNL     1       2.799   7.257  19.717  0.00  0.00    +0.000 OA
BRANCH  27  28
ATOM     28  C   UNL     1       2.684   6.029  19.059  0.00  0.00    +0.000 A 
ATOM     29  N   UNL     1       3.455   5.791  17.973  0.00  0.00    +0.000 NA
ATOM     30  C   UNL     1       3.438   4.533  17.521  0.00  0.00    +0.000 A 
ATOM     31 CL   UNL     1       4.585   4.150  16.318  0.00  0.00    +0.000 Cl
ATOM     32  N   UNL     1       2.719   3.514  18.015  0.00  0.00    +0.000 NA
ATOM     33  C   UNL     1       1.917   3.827  19.056  0.00  0.00    +0.000 A 
ATOM     34  C   UNL     1       1.857   5.079  19.621  0.00  0.00    +0.000 A 
ATOM     35  F   UNL     1       1.093   5.326  20.691  0.00  0.00    +0.000 F 
ENDBRANCH  27  28
ENDBRANCH   6  27
TORSDOF 7
ENDMDL
MODEL 2
REMARK VINA RESULT:      -7.5      1.504      1.999
REMARK  Name = 
REMARK  8 active torsions:
REMARK  status: ('A' for Active; 'I' for Inactive)
REMARK    1  A    between atoms: C_1  and  C_2
REMARK    2  A    between atoms: C_2  and  O_3
REMARK    3  A    between atoms: O_3  and  C_4
REMARK    4  A    between atoms: C_6  and  C_7
REMARK    5  A    between atoms: N_8  and  N_9
REMARK    6  A    between atoms: C_15  and  N_16
REMARK    7  A    between atoms: C_25  and  O_26
REMARK    8  A    between atoms: O_26  and  C_27
REMARK                            x       y       z     vdW  Elec       q    Type
REMARK                         _______ _______ _______ _____ _____    ______ ____
ROOT
ATOM      1  C   UNL     1       1.302   8.462  20.479  0.00  0.00    +0.000 A 
ATOM      2  C   UNL     1       0.411   9.465  20.069  0.00  0.00    +0.000 A 
ATOM      3  C   UNL     1       0.351   9.873  18.731  0.00  0.00    +0.000 A 
ATOM      4  C   UNL     1       1.213   9.306  17.798  0.00  0.00    +0.000 A 
ATOM      5  C   UNL     1       2.096   8.306  18.198  0.00  0.00    +0.000 A 
ATOM      6  C   UNL     1       2.077   7.808  19.515  0.00  0.00    +0.000 A 
ENDROOT
BRANCH   3   7
ATOM      7  C   UNL     1      -0.665  10.826  18.228  0.00  0.00    +0.000 C 
ATOM      8  N   UNL     1      -0.673  12.125  18.289  0.00  0.00    +0.000 NA
BRANCH   8   9
ATOM      9  N   UNL     1       0.454  12.709  18.767  0.00  0.00    +0.000 N 
ATOM     10  C   UNL     1       0.617  14.102  18.675  0.00  0.00    +0.000 A 
ATOM     11  N   UNL     1      -0.440  14.927  18.688  0.00  0.00    +0.000 NA
ATOM     12  C   UNL     1      -0.170  16.241  18.720  0.00  0.00    +0.000 A 
ATOM     13  C   UNL     1       1.102  16.749  18.761  0.00  0.00    +0.000 A 
ATOM     14  F   UNL     1       1.300  18.075  18.795  0.00  0.00    +0.000 F 
ATOM     15  C   UNL     1       2.152  15.837  18.722  0.00  0.00    +0.000 A 
ATOM     16  N   UNL     1       1.902  14.513  18.668  0.00  0.00    +0.000 NA
ATOM     17  H   UNL     1       1.345  12.295  18.499  0.00  0.00    +0.000 HD
BRANCH  15  18
ATOM     18  N   UNL     1       3.473  16.272  18.692  0.00  0.00    +0.000 N 
ATOM     19  C   UNL     1       4.355  15.796  17.616  0.00  0.00    +0.000 C 
ATOM     20  C   UNL     1       5.347  14.727  18.095  0.00  0.00    +0.000 C 
ATOM     21  O   UNL     1       6.050  15.144  19.275  0.00  0.00    +0.000 OA
ATOM     22  C   UNL     1       5.113  15.386  20.336  0.00  0.00    +0.000 C 
ATOM     23  C   UNL     1       4.139  16.522  19.981  0.00  0.00    +0.000 C 
ENDBRANCH  15  18
ENDBRANCH   8   9
ENDBRANCH   3   7
BRANCH   1  24
ATOM     24  O   UNL     1       1.235   8.189  21.817  0.00  0.00    +0.000 OA
BRANCH  24  26
ATOM     25  C   UNL     1      -0.066   9.445  23.387  0.00  0.00    +0.000 C 
ATOM     26  C   UNL     1       1.293   9.302  22.711  0.00  0.00    +0.000 C 
ENDBRANCH  24  26
ENDBRANCH   1  24
BRANCH   6  27
ATOM     27  O   UNL     1       2.785   6.666  19.847  0.00  0.00    +0.000 OA
BRANCH  27  28
ATOM     28  C   UNL     1       2.667   5.586  18.966  0.00  0.00    +0.000 A 
ATOM     29  N   UNL     1       3.550   5.470  17.948  0.00  0.00    +0.000 NA
ATOM     30  C   UNL     1       3.500   4.317  17.274  0.00  0.00    +0.000 A 
ATOM     31 CL   UNL     1       4.758   4.043  16.156  0.00  0.00    +0.000 Cl
ATOM     32  N   UNL     1       2.653   3.299  17.489  0.00  0.00    +0.000 NA
ATOM     33  C   UNL     1       1.751   3.500  18.474  0.00  0.00    +0.000 A 
ATOM     34  C   UNL     1       1.710   4.635  19.249  0.00  0.00    +0.000 A 
ATOM     35  F   UNL     1       0.836   4.763  20.255  0.00  0.00    +0.000 F 
ENDBRANCH  27  28
ENDBRANCH   6  27
TORSDOF 7
ENDMDL
MODEL 3
REMARK VINA RESULT:      -7.4      3.465      9.676
REMARK  Name = 
REMARK  8 active torsions:
REMARK  status: ('A' for Active; 'I' for Inactive)
REMARK    1  A    between atoms: C_1  and  C_2
REMARK    2  A    between atoms: C_2  and  O_3
REMARK    3  A    between atoms: O_3  and  C_4
REMARK    4  A    between atoms: C_6  and  C_7
REMARK    5  A    between atoms: N_8  and  N_9
REMARK    6  A    between atoms: C_15  and  N_16
REMARK    7  A    between atoms: C_25  and  O_26
REMARK    8  A    between atoms: O_26  and  C_27
REMARK                            x       y       z     vdW  Elec       q    Type
REMARK                         _______ _______ _______ _____ _____    ______ ____
ROOT
ATOM      1  C   UNL     1      -0.797  11.376  18.734  0.00  0.00    +0.000 A 
ATOM      2  C   UNL     1      -0.566  10.163  19.399  0.00  0.00    +0.000 A 
ATOM      3  C   UNL     1       0.332  10.087  20.470  0.00  0.00    +0.000 A 
ATOM      4  C   UNL     1       1.038  11.220  20.860  0.00  0.00    +0.000 A 
ATOM      5  C   UNL     1       0.809  12.429  20.207  0.00  0.00    +0.000 A 
ATOM      6  C   UNL     1      -0.179  12.538  19.210  0.00  0.00    +0.000 A 
ENDROOT
BRANCH   3   7
ATOM      7  C   UNL     1       0.505   8.864  21.287  0.00  0.00    +0.000 C 
ATOM      8  N   UNL     1       1.155   7.773  21.006  0.00  0.00    +0.000 NA
BRANCH   8   9
ATOM      9  N   UNL     1       1.884   7.790  19.862  0.00  0.00    +0.000 N 
ATOM     10  C   UNL     1       2.609   6.650  19.474  0.00  0.00    +0.000 A 
ATOM     11  N   UNL     1       2.198   5.418  19.809  0.00  0.00    +0.000 NA
ATOM     12  C   UNL     1       2.891   4.395  19.287  0.00  0.00    +0.000 A 
ATOM     13  C   UNL     1       3.952   4.560  18.435  0.00  0.00    +0.000 A 
ATOM     14  F   UNL     1       4.598   3.492  17.945  0.00  0.00    +0.000 F 
ATOM     15  C   UNL     1       4.339   5.865  18.147  0.00  0.00    +0.000 A 
ATOM     16  N   UNL     1       3.669   6.907  18.680  0.00  0.00    +0.000 NA
ATOM     17  H   UNL     1       2.498   8.589  19.710  0.00  0.00    +0.000 HD
BRANCH  15  18
ATOM     18  N   UNL     1       5.448   6.119  17.347  0.00  0.00    +0.000 N 
ATOM     19  C   UNL     1       5.391   5.772  15.919  0.00  0.00    +0.000 C 
ATOM     20  C   UNL     1       6.190   4.505  15.587  0.00  0.00    +0.000 C 
ATOM     21  O   UNL     1       7.525   4.565  16.112  0.00  0.00    +0.000 OA
ATOM     22  C   UNL     1       7.477   4.696  17.541  0.00  0.00    +0.000 C 
ATOM     23  C   UNL     1       6.778   5.999  17.966  0.00  0.00    +0.000 C 
ENDBRANCH  15  18
ENDBRANCH   8   9
ENDBRANCH   3   7
BRANCH   1  24
ATOM     24  O   UNL     1      -1.697  11.273  17.710  0.00  0.00    +0.000 OA
BRANCH  24  26
ATOM     25  C   UNL     1      -2.622  10.015  15.894  0.00  0.00    +0.000 C 
ATOM     26  C   UNL     1      -2.092   9.956  17.322  0.00  0.00    +0.000 C 
ENDBRANCH  24  26
ENDBRANCH   1  24
BRANCH   6  27
ATOM     27  O   UNL     1      -0.564  13.779  18.731  0.00  0.00    +0.000 OA
BRANCH  27  28
ATOM     28  C   UNL     1       0.264  14.855  19.065  0.00  0.00    +0.000 A 
ATOM     29  N   UNL     1       1.466  14.971  18.458  0.00  0.00    +0.000 NA
ATOM     30  C   UNL     1       2.110  16.122  18.676  0.00  0.00    +0.000 A 
ATOM     31 CL   UNL     1       3.502  16.398  17.729  0.00  0.00    +0.000 Cl
ATOM     32  N   UNL     1       1.697  17.138  19.448  0.00  0.00    +0.000 NA
ATOM     33  C   UNL     1       0.522  16.937  20.083  0.00  0.00    +0.000 A 
ATOM     34  C   UNL     1      -0.242  15.803  19.929  0.00  0.00    +0.000 A 
ATOM     35  F   UNL     1      -1.431  15.676  20.530  0.00  0.00    +0.000 F 
ENDBRANCH  27  28
ENDBRANCH   6  27
TORSDOF 7
ENDMDL
MODEL 4
REMARK VINA RESULT:      -7.4      3.780      9.870
REMARK  Name = 
REMARK  8 active torsions:
REMARK  status: ('A' for Active; 'I' for Inactive)
REMARK    1  A    between atoms: C_1  and  C_2
REMARK    2  A    between atoms: C_2  and  O_3
REMARK    3  A    between atoms: O_3  and  C_4
REMARK    4  A    between atoms: C_6  and  C_7
REMARK    5  A    between atoms: N_8  and  N_9
REMARK    6  A    between atoms: C_15  and  N_16
REMARK    7  A    between atoms: C_25  and  O_26
REMARK    8  A    between atoms: O_26  and  C_27
REMARK                            x       y       z     vdW  Elec       q    Type
REMARK                         _______ _______ _______ _____ _____    ______ ____
ROOT
ATOM      1  C   UNL     1      -0.877  11.500  18.652  0.00  0.00    +0.000 A 
ATOM      2  C   UNL     1      -0.691  10.319  19.384  0.00  0.00    +0.000 A 
ATOM      3  C   UNL     1       0.373  10.189  20.285  0.00  0.00    +0.000 A 
ATOM      4  C   UNL     1       1.283  11.230  20.432  0.00  0.00    +0.000 A 
ATOM      5  C   UNL     1       1.100  12.408  19.710  0.00  0.00    +0.000 A 
ATOM      6  C   UNL     1      -0.032  12.589  18.894  0.00  0.00    +0.000 A 
ENDROOT
BRANCH   3   7
ATOM      7  C   UNL     1       0.529   9.019  21.179  0.00  0.00    +0.000 C 
ATOM      8  N   UNL     1       1.136   7.890  20.956  0.00  0.00    +0.000 NA
BRANCH   8   9
ATOM      9  N   UNL     1       1.833   7.806  19.795  0.00  0.00    +0.000 N 
ATOM     10  C   UNL     1       2.610   6.667  19.523  0.00  0.00    +0.000 A 
ATOM     11  N   UNL     1       2.278   5.465  20.017  0.00  0.00    +0.000 NA
ATOM     12  C   UNL     1       3.014   4.424  19.599  0.00  0.00    +0.000 A 
ATOM     13  C   UNL     1       4.041   4.540  18.699  0.00  0.00    +0.000 A 
ATOM     14  F   UNL     1       4.734   3.456  18.320  0.00  0.00    +0.000 F 
ATOM     15  C   UNL     1       4.346   5.819  18.244  0.00  0.00    +0.000 A 
ATOM     16  N   UNL     1       3.633   6.881  18.669  0.00  0.00    +0.000 NA
ATOM     17  H   UNL     1       2.396   8.612  19.527  0.00  0.00    +0.000 HD
BRANCH  15  18
ATOM     18  N   UNL     1       5.417   6.032  17.382  0.00  0.00    +0.000 N 
ATOM     19  C   UNL     1       5.349   5.498  16.014  0.00  0.00    +0.000 C 
ATOM     20  C   UNL     1       6.219   4.249  15.823  0.00  0.00    +0.000 C 
ATOM     21  O   UNL     1       7.559   4.457  16.294  0.00  0.00    +0.000 OA
ATOM     22  C   UNL     1       7.536   4.770  17.694  0.00  0.00    +0.000 C 
ATOM     23  C   UNL     1       6.767   6.073  17.969  0.00  0.00    +0.000 C 
ENDBRANCH  15  18
ENDBRANCH   8   9
ENDBRANCH   3   7
BRANCH   1  24
ATOM     24  O   UNL     1      -1.958  11.457  17.815  0.00  0.00    +0.000 OA
BRANCH  24  26
ATOM     25  C   UNL     1      -2.619   9.843  16.174  0.00  0.00    +0.000 C 
ATOM     26  C   UNL     1      -2.608  10.195  17.657  0.00  0.00    +0.000 C 
ENDBRANCH  24  26
ENDBRANCH   1  24
BRANCH   6  27
ATOM     27  O   UNL     1      -0.330  13.834  18.368  0.00  0.00    +0.000 OA
BRANCH  27  28
ATOM     28  C   UNL     1      -0.497  14.872  19.289  0.00  0.00    +0.000 A 
ATOM     29  N   UNL     1      -1.434  14.747  20.256  0.00  0.00    +0.000 NA
ATOM     30  C   UNL     1      -1.399  15.681  21.212  0.00  0.00    +0.000 A 
ATOM     31 CL   UNL     1      -2.398  15.408  22.568  0.00  0.00    +0.000 Cl
ATOM     32  N   UNL     1      -0.560  16.724  21.283  0.00  0.00    +0.000 NA
ATOM     33  C   UNL     1       0.308  16.836  20.254  0.00  0.00    +0.000 A 
ATOM     34  C   UNL     1       0.382  15.932  19.220  0.00  0.00    +0.000 A 
ATOM     35  F   UNL     1       1.302  16.051  18.255  0.00  0.00    +0.000 F 
ENDBRANCH  27  28
ENDBRANCH   6  27
TORSDOF 7
ENDMDL
MODEL 5
REMARK VINA RESULT:      -7.4      2.628      3.546
REMARK  Name = 
REMARK  8 active torsions:
REMARK  status: ('A' for Active; 'I' for Inactive)
REMARK    1  A    between atoms: C_1  and  C_2
REMARK    2  A    between atoms: C_2  and  O_3
REMARK    3  A    between atoms: O_3  and  C_4
REMARK    4  A    between atoms: C_6  and  C_7
REMARK    5  A    between atoms: N_8  and  N_9
REMARK    6  A    between atoms: C_15  and  N_16
REMARK    7  A    between atoms: C_25  and  O_26
REMARK    8  A    between atoms: O_26  and  C_27
REMARK                            x       y       z     vdW  Elec       q    Type
REMARK                         _______ _______ _______ _____ _____    ______ ____
ROOT
ATOM      1  C   UNL     1       2.617   6.445  19.546  0.00  0.00    +0.000 A 
ATOM      2  C   UNL     1       1.736   7.192  20.342  0.00  0.00    +0.000 A 
ATOM      3  C   UNL     1       1.222   8.415  19.896  0.00  0.00    +0.000 A 
ATOM      4  C   UNL     1       1.618   8.921  18.663  0.00  0.00    +0.000 A 
ATOM      5  C   UNL     1       2.489   8.182  17.866  0.00  0.00    +0.000 A 
ATOM      6  C   UNL     1       2.915   6.898  18.256  0.00  0.00    +0.000 A 
ENDROOT
BRANCH   3   7
ATOM      7  C   UNL     1       0.185   9.168  20.639  0.00  0.00    +0.000 C 
ATOM      8  N   UNL     1       0.266  10.336  21.205  0.00  0.00    +0.000 NA
BRANCH   8   9
ATOM      9  N   UNL     1       1.414  11.026  20.990  0.00  0.00    +0.000 N 
ATOM     10  C   UNL     1       1.366  12.409  20.746  0.00  0.00    +0.000 A 
ATOM     11  N   UNL     1       0.390  13.173  21.261  0.00  0.00    +0.000 NA
ATOM     12  C   UNL     1       0.505  14.496  21.071  0.00  0.00    +0.000 A 
ATOM     13  C   UNL     1       1.559  15.074  20.413  0.00  0.00    +0.000 A 
ATOM     14  F   UNL     1       1.613  16.406  20.261  0.00  0.00    +0.000 F 
ATOM     15  C   UNL     1       2.523  14.223  19.885  0.00  0.00    +0.000 A 
ATOM     16  N   UNL     1       2.415  12.888  20.045  0.00  0.00    +0.000 NA
ATOM     17  H   UNL     1       2.075  10.637  20.321  0.00  0.00    +0.000 HD
BRANCH  15  18
ATOM     18  N   UNL     1       3.589  14.725  19.144  0.00  0.00    +0.000 N 
ATOM     19  C   UNL     1       4.664  15.446  19.840  0.00  0.00    +0.000 C 
ATOM     20  C   UNL     1       4.587  16.964  19.636  0.00  0.00    +0.000 C 
ATOM     21  O   UNL     1       4.467  17.309  18.248  0.00  0.00    +0.000 OA
ATOM     22  C   UNL     1       3.271  16.728  17.706  0.00  0.00    +0.000 C 
ATOM     23  C   UNL     1       3.308  15.192  17.776  0.00  0.00    +0.000 C 
ENDBRANCH  15  18
ENDBRANCH   8   9
ENDBRANCH   3   7
BRANCH   1  24
ATOM     24  O   UNL     1       3.027   5.281  20.134  0.00  0.00    +0.000 OA
BRANCH  24  26
ATOM     25  C   UNL     1       1.388   3.547  20.338  0.00  0.00    +0.000 C 
ATOM     26  C   UNL     1       2.128   4.668  21.059  0.00  0.00    +0.000 C 
ENDBRANCH  24  26
ENDBRANCH   1  24
BRANCH   6  27
ATOM     27  O   UNL     1       3.586   6.077  17.366  0.00  0.00    +0.000 OA
BRANCH  27  28
ATOM     28  C   UNL     1       4.976   6.025  17.499  0.00  0.00    +0.000 A 
ATOM     29  N   UNL     1       5.698   7.151  17.296  0.00  0.00    +0.000 NA
ATOM     30  C   UNL     1       6.989   7.075  17.634  0.00  0.00    +0.000 A 
ATOM     31 CL   UNL     1       7.858   8.542  17.626  0.00  0.00    +0.000 Cl
ATOM     32  N   UNL     1       7.628   5.999  18.117  0.00  0.00    +0.000 NA
ATOM     33  C   UNL     1       6.873   4.885  18.234  0.00  0.00    +0.000 A 
ATOM     34  C   UNL     1       5.531   4.841  17.935  0.00  0.00    +0.000 A 
ATOM     35  F   UNL     1       4.810   3.729  18.126  0.00  0.00    +0.000 F 
ENDBRANCH  27  28
ENDBRANCH   6  27
TORSDOF 7
ENDMDL
MODEL 6
REMARK VINA RESULT:      -7.4      3.230      9.406
REMARK  Name = 
REMARK  8 active torsions:
REMARK  status: ('A' for Active; 'I' for Inactive)
REMARK    1  A    between atoms: C_1  and  C_2
REMARK    2  A    between atoms: C_2  and  O_3
REMARK    3  A    between atoms: O_3  and  C_4
REMARK    4  A    between atoms: C_6  and  C_7
REMARK    5  A    between atoms: N_8  and  N_9
REMARK    6  A    between atoms: C_15  and  N_16
REMARK    7  A    between atoms: C_25  and  O_26
REMARK    8  A    between atoms: O_26  and  C_27
REMARK                            x       y       z     vdW  Elec       q    Type
REMARK                         _______ _______ _______ _____ _____    ______ ____
ROOT
ATOM      1  C   UNL     1      -0.432  10.997  18.664  0.00  0.00    +0.000 A 
ATOM      2  C   UNL     1      -0.309   9.848  19.458  0.00  0.00    +0.000 A 
ATOM      3  C   UNL     1       0.489   9.848  20.608  0.00  0.00    +0.000 A 
ATOM      4  C   UNL     1       1.203  10.991  20.952  0.00  0.00    +0.000 A 
ATOM      5  C   UNL     1       1.080  12.137  20.170  0.00  0.00    +0.000 A 
ATOM      6  C   UNL     1       0.188  12.180  19.082  0.00  0.00    +0.000 A 
ENDROOT
BRANCH   3   7
ATOM      7  C   UNL     1       0.540   8.706  21.549  0.00  0.00    +0.000 C 
ATOM      8  N   UNL     1       1.131   7.555  21.413  0.00  0.00    +0.000 NA
BRANCH   8   9
ATOM      9  N   UNL     1       1.914   7.412  20.315  0.00  0.00    +0.000 N 
ATOM     10  C   UNL     1       2.313   6.130  19.899  0.00  0.00    +0.000 A 
ATOM     11  N   UNL     1       1.548   5.054  20.134  0.00  0.00    +0.000 NA
ATOM     12  C   UNL     1       1.960   3.899  19.589  0.00  0.00    +0.000 A 
ATOM     13  C   UNL     1       3.082   3.790  18.810  0.00  0.00    +0.000 A 
ATOM     14  F   UNL     1       3.434   2.604  18.293  0.00  0.00    +0.000 F 
ATOM     15  C   UNL     1       3.841   4.941  18.626  0.00  0.00    +0.000 A 
ATOM     16  N   UNL     1       3.457   6.107  19.183  0.00  0.00    +0.000 NA
ATOM     17  H   UNL     1       2.737   8.008  20.247  0.00  0.00    +0.000 HD
BRANCH  15  18
ATOM     18  N   UNL     1       5.031   4.902  17.905  0.00  0.00    +0.000 N 
ATOM     19  C   UNL     1       6.195   5.643  18.413  0.00  0.00    +0.000 C 
ATOM     20  C   UNL     1       6.461   6.935  17.629  0.00  0.00    +0.000 C 
ATOM     21  O   UNL     1       6.499   6.701  16.213  0.00  0.00    +0.000 OA
ATOM     22  C   UNL     1       5.239   6.170  15.777  0.00  0.00    +0.000 C 
ATOM     23  C   UNL     1       4.937   4.815  16.438  0.00  0.00    +0.000 C 
ENDBRANCH  15  18
ENDBRANCH   8   9
ENDBRANCH   3   7
BRANCH   1  24
ATOM     24  O   UNL     1      -1.244  10.824  17.577  0.00  0.00    +0.000 OA
BRANCH  24  26
ATOM     25  C   UNL     1      -3.063   9.817  16.389  0.00  0.00    +0.000 C 
ATOM     26  C   UNL     1      -2.374   9.966  17.741  0.00  0.00    +0.000 C 
ENDBRANCH  24  26
ENDBRANCH   1  24
BRANCH   6  27
ATOM     27  O   UNL     1      -0.103  13.380  18.456  0.00  0.00    +0.000 OA
BRANCH  27  28
ATOM     28  C   UNL     1       0.797  14.427  18.675  0.00  0.00    +0.000 A 
ATOM     29  N   UNL     1       2.079  14.287  18.266  0.00  0.00    +0.000 NA
ATOM     30  C   UNL     1       2.824  15.395  18.327  0.00  0.00    +0.000 A 
ATOM     31 CL   UNL     1       4.359  15.311  17.588  0.00  0.00    +0.000 Cl
ATOM     32  N   UNL     1       2.436  16.599  18.774  0.00  0.00    +0.000 NA
ATOM     33  C   UNL     1       1.167  16.661  19.232  0.00  0.00    +0.000 A 
ATOM     34  C   UNL     1       0.297  15.595  19.209  0.00  0.00    +0.000 A 
ATOM     35  F   UNL     1      -0.972  15.722  19.617  0.00  0.00    +0.000 F 
ENDBRANCH  27  28
ENDBRANCH   6  27
TORSDOF 7
ENDMDL
MODEL 7
REMARK VINA RESULT:      -7.3      3.577      9.550
REMARK  Name = 
REMARK  8 active torsions:
REMARK  status: ('A' for Active; 'I' for Inactive)
REMARK    1  A    between atoms: C_1  and  C_2
REMARK    2  A    between atoms: C_2  and  O_3
REMARK    3  A    between atoms: O_3  and  C_4
REMARK    4  A    between atoms: C_6  and  C_7
REMARK    5  A    between atoms: N_8  and  N_9
REMARK    6  A    between atoms: C_15  and  N_16
REMARK    7  A    between atoms: C_25  and  O_26
REMARK    8  A    between atoms: O_26  and  C_27
REMARK                            x       y       z     vdW  Elec       q    Type
REMARK                         _______ _______ _______ _____ _____    ______ ____
ROOT
ATOM      1  C   UNL     1      -0.896  11.104  18.831  0.00  0.00    +0.000 A 
ATOM      2  C   UNL     1      -0.738   9.992  19.671  0.00  0.00    +0.000 A 
ATOM      3  C   UNL     1       0.373   9.876  20.514  0.00  0.00    +0.000 A 
ATOM      4  C   UNL     1       1.358  10.857  20.494  0.00  0.00    +0.000 A 
ATOM      5  C   UNL     1       1.205  11.967  19.666  0.00  0.00    +0.000 A 
ATOM      6  C   UNL     1       0.034  12.147  18.906  0.00  0.00    +0.000 A 
ENDROOT
BRANCH   3   7
ATOM      7  C   UNL     1       0.512   8.793  21.514  0.00  0.00    +0.000 C 
ATOM      8  N   UNL     1       1.143   7.660  21.415  0.00  0.00    +0.000 NA
BRANCH   8   9
ATOM      9  N   UNL     1       1.883   7.484  20.292  0.00  0.00    +0.000 N 
ATOM     10  C   UNL     1       2.320   6.197  19.933  0.00  0.00    +0.000 A 
ATOM     11  N   UNL     1       1.615   5.106  20.266  0.00  0.00    +0.000 NA
ATOM     12  C   UNL     1       2.053   3.938  19.771  0.00  0.00    +0.000 A 
ATOM     13  C   UNL     1       3.143   3.831  18.947  0.00  0.00    +0.000 A 
ATOM     14  F   UNL     1       3.525   2.631  18.484  0.00  0.00    +0.000 F 
ATOM     15  C   UNL     1       3.841   4.999  18.661  0.00  0.00    +0.000 A 
ATOM     16  N   UNL     1       3.430   6.180  19.166  0.00  0.00    +0.000 NA
ATOM     17  H   UNL     1       2.675   8.109  20.151  0.00  0.00    +0.000 HD
BRANCH  15  18
ATOM     18  N   UNL     1       4.998   4.967  17.889  0.00  0.00    +0.000 N 
ATOM     19  C   UNL     1       6.199   5.661  18.376  0.00  0.00    +0.000 C 
ATOM     20  C   UNL     1       6.460   6.980  17.636  0.00  0.00    +0.000 C 
ATOM     21  O   UNL     1       6.434   6.805  16.212  0.00  0.00    +0.000 OA
ATOM     22  C   UNL     1       5.145   6.319  15.808  0.00  0.00    +0.000 C 
ATOM     23  C   UNL     1       4.841   4.943  16.425  0.00  0.00    +0.000 C 
ENDBRANCH  15  18
ENDBRANCH   8   9
ENDBRANCH   3   7
BRANCH   1  24
ATOM     24  O   UNL     1      -2.032  11.056  18.071  0.00  0.00    +0.000 OA
BRANCH  24  26
ATOM     25  C   UNL     1      -2.629   9.916  16.052  0.00  0.00    +0.000 C 
ATOM     26  C   UNL     1      -2.414   9.780  17.555  0.00  0.00    +0.000 C 
ENDBRANCH  24  26
ENDBRANCH   1  24
BRANCH   6  27
ATOM     27  O   UNL     1      -0.216  13.351  18.271  0.00  0.00    +0.000 OA
BRANCH  27  28
ATOM     28  C   UNL     1      -0.128  14.500  19.063  0.00  0.00    +0.000 A 
ATOM     29  N   UNL     1       0.900  15.356  18.865  0.00  0.00    +0.000 NA
ATOM     30  C   UNL     1       0.810  16.521  19.514  0.00  0.00    +0.000 A 
ATOM     31 CL   UNL     1       1.955  17.711  19.089  0.00  0.00    +0.000 Cl
ATOM     32  N   UNL     1      -0.169  16.898  20.350  0.00  0.00    +0.000 NA
ATOM     33  C   UNL     1      -1.132  15.976  20.562  0.00  0.00    +0.000 A 
ATOM     34  C   UNL     1      -1.160  14.748  19.942  0.00  0.00    +0.000 A 
ATOM     35  F   UNL     1      -2.169  13.891  20.137  0.00  0.00    +0.000 F 
ENDBRANCH  27  28
ENDBRANCH   6  27
TORSDOF 7
ENDMDL
MODEL 8
REMARK VINA RESULT:      -7.3      1.341      1.501
REMARK  Name = 
REMARK  8 active torsions:
REMARK  status: ('A' for Active; 'I' for Inactive)
REMARK    1  A    between atoms: C_1  and  C_2
REMARK    2  A    between atoms: C_2  and  O_3
REMARK    3  A    between atoms: O_3  and  C_4
REMARK    4  A    between atoms: C_6  and  C_7
REMARK    5  A    between atoms: N_8  and  N_9
REMARK    6  A    between atoms: C_15  and  N_16
REMARK    7  A    between atoms: C_25  and  O_26
REMARK    8  A    between atoms: O_26  and  C_27
REMARK                            x       y       z     vdW  Elec       q    Type
REMARK                         _______ _______ _______ _____ _____    ______ ____
ROOT
ATOM      1  C   UNL     1       0.928   9.006  20.443  0.00  0.00    +0.000 A 
ATOM      2  C   UNL     1      -0.141   9.757  19.932  0.00  0.00    +0.000 A 
ATOM      3  C   UNL     1      -0.282   9.968  18.556  0.00  0.00    +0.000 A 
ATOM      4  C   UNL     1       0.671   9.459  17.680  0.00  0.00    +0.000 A 
ATOM      5  C   UNL     1       1.732   8.708  18.181  0.00  0.00    +0.000 A 
ATOM      6  C   UNL     1       1.813   8.392  19.550  0.00  0.00    +0.000 A 
ENDROOT
BRANCH   3   7
ATOM      7  C   UNL     1      -1.464  10.633  17.962  0.00  0.00    +0.000 C 
ATOM      8  N   UNL     1      -1.651  11.893  17.699  0.00  0.00    +0.000 NA
BRANCH   8   9
ATOM      9  N   UNL     1      -0.578  12.706  17.873  0.00  0.00    +0.000 N 
ATOM     10  C   UNL     1      -0.586  13.670  18.895  0.00  0.00    +0.000 A 
ATOM     11  N   UNL     1      -1.279  13.478  20.027  0.00  0.00    +0.000 NA
ATOM     12  C   UNL     1      -1.121  14.401  20.987  0.00  0.00    +0.000 A 
ATOM     13  C   UNL     1      -0.288  15.482  20.865  0.00  0.00    +0.000 A 
ATOM     14  F   UNL     1      -0.174  16.365  21.867  0.00  0.00    +0.000 F 
ATOM     15  C   UNL     1       0.384  15.632  19.656  0.00  0.00    +0.000 A 
ATOM     16  N   UNL     1       0.222  14.727  18.669  0.00  0.00    +0.000 NA
ATOM     17  H   UNL     1      -0.199  13.163  17.046  0.00  0.00    +0.000 HD
BRANCH  15  18
ATOM     18  N   UNL     1       1.196  16.738  19.424  0.00  0.00    +0.000 N 
ATOM     19  C   UNL     1       0.630  17.905  18.732  0.00  0.00    +0.000 C 
ATOM     20  C   UNL     1       1.094  18.010  17.273  0.00  0.00    +0.000 C 
ATOM     21  O   UNL     1       2.522  17.910  17.161  0.00  0.00    +0.000 OA
ATOM     22  C   UNL     1       2.960  16.643  17.676  0.00  0.00    +0.000 C 
ATOM     23  C   UNL     1       2.625  16.494  19.169  0.00  0.00    +0.000 C 
ENDBRANCH  15  18
ENDBRANCH   8   9
ENDBRANCH   3   7
BRANCH   1  24
ATOM     24  O   UNL     1       0.918   8.903  21.807  0.00  0.00    +0.000 OA
BRANCH  24  26
ATOM     25  C   UNL     1      -0.570  10.088  23.263  0.00  0.00    +0.000 C 
ATOM     26  C   UNL     1      -0.358   8.820  22.443  0.00  0.00    +0.000 C 
ENDBRANCH  24  26
ENDBRANCH   1  24
BRANCH   6  27
ATOM     27  O   UNL     1       2.730   7.461  20.006  0.00  0.00    +0.000 OA
BRANCH  27  28
ATOM     28  C   UNL     1       2.706   6.211  19.380  0.00  0.00    +0.000 A 
ATOM     29  N   UNL     1       1.858   5.263  19.839  0.00  0.00    +0.000 NA
ATOM     30  C   UNL     1       1.747   4.173  19.072  0.00  0.00    +0.000 A 
ATOM     31 CL   UNL     1       0.506   3.081  19.492  0.00  0.00    +0.000 Cl
ATOM     32  N   UNL     1       2.408   3.925  17.932  0.00  0.00    +0.000 NA
ATOM     33  C   UNL     1       3.292   4.876  17.560  0.00  0.00    +0.000 A 
ATOM     34  C   UNL     1       3.485   6.048  18.254  0.00  0.00    +0.000 A 
ATOM     35  F   UNL     1       4.327   6.990  17.812  0.00  0.00    +0.000 F 
ENDBRANCH  27  28
ENDBRANCH   6  27
TORSDOF 7
ENDMDL
MODEL 9
REMARK VINA RESULT:      -7.3      3.050      3.907
REMARK  Name = 
REMARK  8 active torsions:
REMARK  status: ('A' for Active; 'I' for Inactive)
REMARK    1  A    between atoms: C_1  and  C_2
REMARK    2  A    between atoms: C_2  and  O_3
REMARK    3  A    between atoms: O_3  and  C_4
REMARK    4  A    between atoms: C_6  and  C_7
REMARK    5  A    between atoms: N_8  and  N_9
REMARK    6  A    between atoms: C_15  and  N_16
REMARK    7  A    between atoms: C_25  and  O_26
REMARK    8  A    between atoms: O_26  and  C_27
REMARK                            x       y       z     vdW  Elec       q    Type
REMARK                         _______ _______ _______ _____ _____    ______ ____
ROOT
ATOM      1  C   UNL     1       2.407   7.033  19.622  0.00  0.00    +0.000 A 
ATOM      2  C   UNL     1       1.543   8.088  19.950  0.00  0.00    +0.000 A 
ATOM      3  C   UNL     1       1.296   9.126  19.045  0.00  0.00    +0.000 A 
ATOM      4  C   UNL     1       1.944   9.137  17.814  0.00  0.00    +0.000 A 
ATOM      5  C   UNL     1       2.800   8.089  17.481  0.00  0.00    +0.000 A 
ATOM      6  C   UNL     1       2.960   6.983  18.337  0.00  0.00    +0.000 A 
ENDROOT
BRANCH   3   7
ATOM      7  C   UNL     1       0.289  10.183  19.291  0.00  0.00    +0.000 C 
ATOM      8  N   UNL     1       0.469  11.451  19.523  0.00  0.00    +0.000 NA
BRANCH   8   9
ATOM      9  N   UNL     1       1.742  11.905  19.404  0.00  0.00    +0.000 N 
ATOM     10  C   UNL     1       2.116  13.114  20.015  0.00  0.00    +0.000 A 
ATOM     11  N   UNL     1       1.516  13.540  21.136  0.00  0.00    +0.000 NA
ATOM     12  C   UNL     1       2.030  14.641  21.706  0.00  0.00    +0.000 A 
ATOM     13  C   UNL     1       3.121  15.306  21.213  0.00  0.00    +0.000 A 
ATOM     14  F   UNL     1       3.586  16.399  21.836  0.00  0.00    +0.000 F 
ATOM     15  C   UNL     1       3.681  14.823  20.035  0.00  0.00    +0.000 A 
ATOM     16  N   UNL     1       3.166  13.731  19.434  0.00  0.00    +0.000 NA
ATOM     17  H   UNL     1       2.150  11.914  18.471  0.00  0.00    +0.000 HD
BRANCH  15  18
ATOM     18  N   UNL     1       4.748  15.479  19.431  0.00  0.00    +0.000 N 
ATOM     19  C   UNL     1       5.015  15.244  18.004  0.00  0.00    +0.000 C 
ATOM     20  C   UNL     1       6.224  14.329  17.772  0.00  0.00    +0.000 C 
ATOM     21  O   UNL     1       7.375  14.772  18.507  0.00  0.00    +0.000 OA
ATOM     22  C   UNL     1       7.081  14.769  19.913  0.00  0.00    +0.000 C 
ATOM     23  C   UNL     1       5.941  15.743  20.253  0.00  0.00    +0.000 C 
ENDBRANCH  15  18
ENDBRANCH   8   9
ENDBRANCH   3   7
BRANCH   1  24
ATOM     24  O   UNL     1       2.540   6.108  20.621  0.00  0.00    +0.000 OA
BRANCH  24  26
ATOM     25  C   UNL     1       2.230   3.811  21.222  0.00  0.00    +0.000 C 
ATOM     26  C   UNL     1       1.562   5.069  20.679  0.00  0.00    +0.000 C 
ENDBRANCH  24  26
ENDBRANCH   1  24
BRANCH   6  27
ATOM     27  O   UNL     1       3.620   5.846  17.906  0.00  0.00    +0.000 OA
BRANCH  27  28
ATOM     28  C   UNL     1       4.847   6.048  17.266  0.00  0.00    +0.000 A 
ATOM     29  N   UNL     1       5.661   7.035  17.704  0.00  0.00    +0.000 NA
ATOM     30  C   UNL     1       6.891   7.039  17.180  0.00  0.00    +0.000 A 
ATOM     31 CL   UNL     1       8.011   8.109  17.895  0.00  0.00    +0.000 Cl
ATOM     32  N   UNL     1       7.372   6.192  16.258  0.00  0.00    +0.000 NA
ATOM     33  C   UNL     1       6.492   5.271  15.808  0.00  0.00    +0.000 A 
ATOM     34  C   UNL     1       5.205   5.155  16.279  0.00  0.00    +0.000 A 
ATOM     35  F   UNL     1       4.389   4.185  15.847  0.00  0.00    +0.000 F 
ENDBRANCH  27  28
ENDBRANCH   6  27
TORSDOF 7
ENDMDL
