MODEL 1
REMARK VINA RESULT:      -8.3      0.000      0.000
REMARK  Name = 
REMARK  6 active torsions:
REMARK  status: ('A' for Active; 'I' for Inactive)
REMARK    1  A    between atoms: C_2  and  C_12
REMARK    2  A    between atoms: N_3  and  C_4
REMARK    3  A    between atoms: C_4  and  C_5
REMARK    4  A    between atoms: C_5  and  C_6
REMARK    5  A    between atoms: C_12  and  C_19
REMARK    6  A    between atoms: C_13  and  C_14
REMARK                            x       y       z     vdW  Elec       q    Type
REMARK                         _______ _______ _______ _____ _____    ______ ____
ROOT
ATOM      1  C   UNL     1       3.298   5.042  18.017  0.00  0.00    +0.000 C 
ATOM      2  C   UNL     1       3.178   6.354  17.713  0.00  0.00    +0.000 C 
ENDROOT
BRANCH   1   3
ATOM      3  C   UNL     1       2.495   4.413  19.092  0.00  0.00    +0.000 A 
ATOM      4  C   UNL     1       3.010   4.331  20.393  0.00  0.00    +0.000 A 
ATOM      5  C   UNL     1       2.338   3.606  21.380  0.00  0.00    +0.000 A 
ATOM      6  C   UNL     1       1.142   2.959  21.075  0.00  0.00    +0.000 A 
ATOM      7  C   UNL     1       0.606   3.058  19.792  0.00  0.00    +0.000 A 
ATOM      8  C   UNL     1       1.273   3.790  18.805  0.00  0.00    +0.000 A 
ENDBRANCH   1   3
BRANCH   2   9
ATOM      9  C   UNL     1       2.467   7.315  18.485  0.00  0.00    +0.000 A 
ATOM     10  C   UNL     1       1.862   8.490  18.052  0.00  0.00    +0.000 A 
ATOM     11  C   UNL     1       1.334   9.156  19.183  0.00  0.00    +0.000 A 
ATOM     12  C   UNL     1       1.640   8.362  20.259  0.00  0.00    +0.000 A 
ATOM     13  O   UNL     1       2.325   7.271  19.852  0.00  0.00    +0.000 OA
ENDBRANCH   2   9
BRANCH   1  15
ATOM     14  O   UNL     1       4.395   3.006  17.389  0.00  0.00    +0.000 OA
ATOM     15  C   UNL     1       4.156   4.179  17.125  0.00  0.00    +0.000 C 
ATOM     16  N   UNL     1       4.688   4.822  16.021  0.00  0.00    +0.000 N 
ATOM     17  H   UNL     1       4.664   5.832  15.995  0.00  0.00    +0.000 HD
BRANCH  16  18
ATOM     18  C   UNL     1       5.578   4.141  15.093  0.00  0.00    +0.000 C 
BRANCH  18  19
ATOM     19  C   UNL     1       6.998   4.714  15.149  0.00  0.00    +0.000 C 
BRANCH  19  20
ATOM     20  C   UNL     1       7.316   5.361  16.474  0.00  0.00    +0.000 A 
ATOM     21  C   UNL     1       7.311   6.758  16.601  0.00  0.00    +0.000 A 
ATOM     22  C   UNL     1       7.619   7.358  17.825  0.00  0.00    +0.000 A 
ATOM     23  C   UNL     1       7.936   6.571  18.929  0.00  0.00    +0.000 A 
ATOM     24  C   UNL     1       7.944   5.182  18.814  0.00  0.00    +0.000 A 
ATOM     25  C   UNL     1       7.637   4.580  17.592  0.00  0.00    +0.000 A 
ENDBRANCH  19  20
ENDBRANCH  18  19
ENDBRANCH  16  18
ENDBRANCH   1  15
TORSDOF 6
ENDMDL
MODEL 2
REMARK VINA RESULT:      -8.1      2.631      6.893
REMARK  Name = 
REMARK  6 active torsions:
REMARK  status: ('A' for Active; 'I' for Inactive)
REMARK    1  A    between atoms: C_2  and  C_12
REMARK    2  A    between atoms: N_3  and  C_4
REMARK    3  A    between atoms: C_4  and  C_5
REMARK    4  A    between atoms: C_5  and  C_6
REMARK    5  A    between atoms: C_12  and  C_19
REMARK    6  A    between atoms: C_13  and  C_14
REMARK                            x       y       z     vdW  Elec       q    Type
REMARK                         _______ _______ _______ _____ _____    ______ ____
ROOT
ATOM      1  C   UNL     1       3.422   5.953  18.341  0.00  0.00    +0.000 C 
ATOM      2  C   UNL     1       4.428   6.526  17.643  0.00  0.00    +0.000 C 
ENDROOT
BRANCH   1   3
ATOM      3  C   UNL     1       3.294   4.482  18.463  0.00  0.00    +0.000 A 
ATOM      4  C   UNL     1       4.101   3.783  19.371  0.00  0.00    +0.000 A 
ATOM      5  C   UNL     1       4.106   2.386  19.390  0.00  0.00    +0.000 A 
ATOM      6  C   UNL     1       3.300   1.676  18.502  0.00  0.00    +0.000 A 
ATOM      7  C   UNL     1       2.472   2.361  17.614  0.00  0.00    +0.000 A 
ATOM      8  C   UNL     1       2.460   3.759  17.599  0.00  0.00    +0.000 A 
ENDBRANCH   1   3
BRANCH   2   9
ATOM      9  C   UNL     1       5.332   5.837  16.788  0.00  0.00    +0.000 A 
ATOM     10  C   UNL     1       5.208   5.585  15.426  0.00  0.00    +0.000 A 
ATOM     11  C   UNL     1       6.320   4.810  15.018  0.00  0.00    +0.000 A 
ATOM     12  C   UNL     1       7.074   4.620  16.147  0.00  0.00    +0.000 A 
ATOM     13  O   UNL     1       6.487   5.217  17.207  0.00  0.00    +0.000 OA
ENDBRANCH   2   9
BRANCH   1  15
ATOM     14  O   UNL     1       2.013   6.491  20.203  0.00  0.00    +0.000 OA
ATOM     15  C   UNL     1       2.509   6.850  19.140  0.00  0.00    +0.000 C 
ATOM     16  N   UNL     1       2.236   8.077  18.563  0.00  0.00    +0.000 N 
ATOM     17  H   UNL     1       2.465   8.212  17.589  0.00  0.00    +0.000 HD
BRANCH  16  18
ATOM     18  C   UNL     1       1.333   9.033  19.185  0.00  0.00    +0.000 C 
BRANCH  18  19
ATOM     19  C   UNL     1       0.970  10.173  18.227  0.00  0.00    +0.000 C 
BRANCH  19  20
ATOM     20  C   UNL     1      -0.498  10.520  18.261  0.00  0.00    +0.000 A 
ATOM     21  C   UNL     1      -1.406   9.852  17.428  0.00  0.00    +0.000 A 
ATOM     22  C   UNL     1      -2.763  10.184  17.449  0.00  0.00    +0.000 A 
ATOM     23  C   UNL     1      -3.224  11.186  18.300  0.00  0.00    +0.000 A 
ATOM     24  C   UNL     1      -2.330  11.857  19.132  0.00  0.00    +0.000 A 
ATOM     25  C   UNL     1      -0.973  11.527  19.112  0.00  0.00    +0.000 A 
ENDBRANCH  19  20
ENDBRANCH  18  19
ENDBRANCH  16  18
ENDBRANCH   1  15
TORSDOF 6
ENDMDL
MODEL 3
REMARK VINA RESULT:      -8.1      2.592      6.896
REMARK  Name = 
REMARK  6 active torsions:
REMARK  status: ('A' for Active; 'I' for Inactive)
REMARK    1  A    between atoms: C_2  and  C_12
REMARK    2  A    between atoms: N_3  and  C_4
REMARK    3  A    between atoms: C_4  and  C_5
REMARK    4  A    between atoms: C_5  and  C_6
REMARK    5  A    between atoms: C_12  and  C_19
REMARK    6  A    between atoms: C_13  and  C_14
REMARK                            x       y       z     vdW  Elec       q    Type
REMARK                         _______ _______ _______ _____ _____    ______ ____
ROOT
ATOM      1  C   UNL     1       3.511   5.957  18.261  0.00  0.00    +0.000 C 
ATOM      2  C   UNL     1       4.490   6.578  17.567  0.00  0.00    +0.000 C 
ENDROOT
BRANCH   1   3
ATOM      3  C   UNL     1       3.420   4.481  18.335  0.00  0.00    +0.000 A 
ATOM      4  C   UNL     1       2.469   3.799  17.563  0.00  0.00    +0.000 A 
ATOM      5  C   UNL     1       2.265   2.427  17.734  0.00  0.00    +0.000 A 
ATOM      6  C   UNL     1       3.014   1.725  18.677  0.00  0.00    +0.000 A 
ATOM      7  C   UNL     1       3.982   2.387  19.429  0.00  0.00    +0.000 A 
ATOM      8  C   UNL     1       4.194   3.758  19.254  0.00  0.00    +0.000 A 
ENDBRANCH   1   3
BRANCH   2   9
ATOM      9  C   UNL     1       5.395   5.941  16.672  0.00  0.00    +0.000 A 
ATOM     10  C   UNL     1       5.267   5.761  15.300  0.00  0.00    +0.000 A 
ATOM     11  C   UNL     1       6.381   5.015  14.847  0.00  0.00    +0.000 A 
ATOM     12  C   UNL     1       7.141   4.769  15.961  0.00  0.00    +0.000 A 
ATOM     13  O   UNL     1       6.554   5.305  17.054  0.00  0.00    +0.000 OA
ENDBRANCH   2   9
BRANCH   1  15
ATOM     14  O   UNL     1       2.138   6.404  20.175  0.00  0.00    +0.000 OA
ATOM     15  C   UNL     1       2.591   6.804  19.107  0.00  0.00    +0.000 C 
ATOM     16  N   UNL     1       2.261   8.034  18.566  0.00  0.00    +0.000 N 
ATOM     17  H   UNL     1       2.457   8.198  17.589  0.00  0.00    +0.000 HD
BRANCH  16  18
ATOM     18  C   UNL     1       1.344   8.944  19.236  0.00  0.00    +0.000 C 
BRANCH  18  19
ATOM     19  C   UNL     1       1.058  10.185  18.384  0.00  0.00    +0.000 C 
BRANCH  19  20
ATOM     20  C   UNL     1      -0.412  10.515  18.304  0.00  0.00    +0.000 A 
ATOM     21  C   UNL     1      -0.949  11.555  19.075  0.00  0.00    +0.000 A 
ATOM     22  C   UNL     1      -2.313  11.851  19.012  0.00  0.00    +0.000 A 
ATOM     23  C   UNL     1      -3.151  11.110  18.182  0.00  0.00    +0.000 A 
ATOM     24  C   UNL     1      -2.628  10.073  17.413  0.00  0.00    +0.000 A 
ATOM     25  C   UNL     1      -1.265   9.775  17.475  0.00  0.00    +0.000 A 
ENDBRANCH  19  20
ENDBRANCH  18  19
ENDBRANCH  16  18
ENDBRANCH   1  15
TORSDOF 6
ENDMDL
MODEL 4
REMARK VINA RESULT:      -8.0      2.817      7.144
REMARK  Name = 
REMARK  6 active torsions:
REMARK  status: ('A' for Active; 'I' for Inactive)
REMARK    1  A    between atoms: C_2  and  C_12
REMARK    2  A    between atoms: N_3  and  C_4
REMARK    3  A    between atoms: C_4  and  C_5
REMARK    4  A    between atoms: C_5  and  C_6
REMARK    5  A    between atoms: C_12  and  C_19
REMARK    6  A    between atoms: C_13  and  C_14
REMARK                            x       y       z     vdW  Elec       q    Type
REMARK                         _______ _______ _______ _____ _____    ______ ____
ROOT
ATOM      1  C   UNL     1       3.290   6.815  17.891  0.00  0.00    +0.000 C 
ATOM      2  C   UNL     1       4.479   6.993  17.273  0.00  0.00    +0.000 C 
ENDROOT
BRANCH   1   3
ATOM      3  C   UNL     1       2.885   5.500  18.441  0.00  0.00    +0.000 A 
ATOM      4  C   UNL     1       1.918   4.732  17.778  0.00  0.00    +0.000 A 
ATOM      5  C   UNL     1       1.412   3.567  18.361  0.00  0.00    +0.000 A 
ATOM      6  C   UNL     1       1.872   3.159  19.611  0.00  0.00    +0.000 A 
ATOM      7  C   UNL     1       2.854   3.900  20.267  0.00  0.00    +0.000 A 
ATOM      8  C   UNL     1       3.368   5.061  19.682  0.00  0.00    +0.000 A 
ENDBRANCH   1   3
BRANCH   2   9
ATOM      9  C   UNL     1       5.369   5.952  16.886  0.00  0.00    +0.000 A 
ATOM     10  C   UNL     1       5.357   5.200  15.717  0.00  0.00    +0.000 A 
ATOM     11  C   UNL     1       6.392   4.238  15.801  0.00  0.00    +0.000 A 
ATOM     12  C   UNL     1       6.990   4.441  17.019  0.00  0.00    +0.000 A 
ATOM     13  O   UNL     1       6.378   5.452  17.676  0.00  0.00    +0.000 OA
ENDBRANCH   2   9
BRANCH   1  15
ATOM     14  O   UNL     1       2.302   8.925  17.332  0.00  0.00    +0.000 OA
ATOM     15  C   UNL     1       2.438   8.031  18.160  0.00  0.00    +0.000 C 
ATOM     16  N   UNL     1       1.866   8.082  19.419  0.00  0.00    +0.000 N 
ATOM     17  H   UNL     1       2.213   7.454  20.130  0.00  0.00    +0.000 HD
BRANCH  16  18
ATOM     18  C   UNL     1       1.059   9.214  19.849  0.00  0.00    +0.000 C 
BRANCH  18  19
ATOM     19  C   UNL     1       0.982   9.304  21.376  0.00  0.00    +0.000 C 
BRANCH  19  20
ATOM     20  C   UNL     1       0.149  10.468  21.852  0.00  0.00    +0.000 A 
ATOM     21  C   UNL     1      -0.813  10.290  22.856  0.00  0.00    +0.000 A 
ATOM     22  C   UNL     1      -1.594  11.366  23.286  0.00  0.00    +0.000 A 
ATOM     23  C   UNL     1      -1.423  12.625  22.717  0.00  0.00    +0.000 A 
ATOM     24  C   UNL     1      -0.471  12.814  21.718  0.00  0.00    +0.000 A 
ATOM     25  C   UNL     1       0.311  11.739  21.286  0.00  0.00    +0.000 A 
ENDBRANCH  19  20
ENDBRANCH  18  19
ENDBRANCH  16  18
ENDBRANCH   1  15
TORSDOF 6
ENDMDL
MODEL 5
REMARK VINA RESULT:      -8.0      2.799      7.233
REMARK  Name = 
REMARK  6 active torsions:
REMARK  status: ('A' for Active; 'I' for Inactive)
REMARK    1  A    between atoms: C_2  and  C_12
REMARK    2  A    between atoms: N_3  and  C_4
REMARK    3  A    between atoms: C_4  and  C_5
REMARK    4  A    between atoms: C_5  and  C_6
REMARK    5  A    between atoms: C_12  and  C_19
REMARK    6  A    between atoms: C_13  and  C_14
REMARK                            x       y       z     vdW  Elec       q    Type
REMARK                         _______ _______ _______ _____ _____    ______ ____
ROOT
ATOM      1  C   UNL     1       3.231   6.816  17.911  0.00  0.00    +0.000 C 
ATOM      2  C   UNL     1       4.431   6.960  17.305  0.00  0.00    +0.000 C 
ENDROOT
BRANCH   1   3
ATOM      3  C   UNL     1       2.795   5.521  18.483  0.00  0.00    +0.000 A 
ATOM      4  C   UNL     1       1.866   4.729  17.794  0.00  0.00    +0.000 A 
ATOM      5  C   UNL     1       1.328   3.585  18.388  0.00  0.00    +0.000 A 
ATOM      6  C   UNL     1       1.717   3.221  19.675  0.00  0.00    +0.000 A 
ATOM      7  C   UNL     1       2.662   3.985  20.358  0.00  0.00    +0.000 A 
ATOM      8  C   UNL     1       3.208   5.126  19.763  0.00  0.00    +0.000 A 
ENDBRANCH   1   3
BRANCH   2   9
ATOM      9  C   UNL     1       5.307   5.896  16.951  0.00  0.00    +0.000 A 
ATOM     10  C   UNL     1       6.626   5.701  17.342  0.00  0.00    +0.000 A 
ATOM     11  C   UNL     1       7.113   4.542  16.689  0.00  0.00    +0.000 A 
ATOM     12  C   UNL     1       6.071   4.081  15.926  0.00  0.00    +0.000 A 
ATOM     13  O   UNL     1       4.996   4.889  16.067  0.00  0.00    +0.000 OA
ENDBRANCH   2   9
BRANCH   1  15
ATOM     14  O   UNL     1       2.213   8.887  17.263  0.00  0.00    +0.000 OA
ATOM     15  C   UNL     1       2.397   8.053  18.142  0.00  0.00    +0.000 C 
ATOM     16  N   UNL     1       1.903   8.196  19.427  0.00  0.00    +0.000 N 
ATOM     17  H   UNL     1       2.290   7.619  20.158  0.00  0.00    +0.000 HD
BRANCH  16  18
ATOM     18  C   UNL     1       1.124   9.360  19.822  0.00  0.00    +0.000 C 
BRANCH  18  19
ATOM     19  C   UNL     1       0.577   9.215  21.246  0.00  0.00    +0.000 C 
BRANCH  19  20
ATOM     20  C   UNL     1      -0.408  10.300  21.607  0.00  0.00    +0.000 A 
ATOM     21  C   UNL     1      -0.886  11.180  20.627  0.00  0.00    +0.000 A 
ATOM     22  C   UNL     1      -1.787  12.193  20.964  0.00  0.00    +0.000 A 
ATOM     23  C   UNL     1      -2.214  12.338  22.282  0.00  0.00    +0.000 A 
ATOM     24  C   UNL     1      -1.745  11.470  23.265  0.00  0.00    +0.000 A 
ATOM     25  C   UNL     1      -0.844  10.456  22.930  0.00  0.00    +0.000 A 
ENDBRANCH  19  20
ENDBRANCH  18  19
ENDBRANCH  16  18
ENDBRANCH   1  15
TORSDOF 6
ENDMDL
MODEL 6
REMARK VINA RESULT:      -8.0      2.943      7.223
REMARK  Name = 
REMARK  6 active torsions:
REMARK  status: ('A' for Active; 'I' for Inactive)
REMARK    1  A    between atoms: C_2  and  C_12
REMARK    2  A    between atoms: N_3  and  C_4
REMARK    3  A    between atoms: C_4  and  C_5
REMARK    4  A    between atoms: C_5  and  C_6
REMARK    5  A    between atoms: C_12  and  C_19
REMARK    6  A    between atoms: C_13  and  C_14
REMARK                            x       y       z     vdW  Elec       q    Type
REMARK                         _______ _______ _______ _____ _____    ______ ____
ROOT
ATOM      1  C   UNL     1       3.084   6.943  17.965  0.00  0.00    +0.000 C 
ATOM      2  C   UNL     1       4.298   7.079  17.386  0.00  0.00    +0.000 C 
ENDROOT
BRANCH   1   3
ATOM      3  C   UNL     1       2.628   5.654  18.533  0.00  0.00    +0.000 A 
ATOM      4  C   UNL     1       3.079   5.247  19.796  0.00  0.00    +0.000 A 
ATOM      5  C   UNL     1       2.786   3.969  20.280  0.00  0.00    +0.000 A 
ATOM      6  C   UNL     1       2.033   3.089  19.505  0.00  0.00    +0.000 A 
ATOM      7  C   UNL     1       1.554   3.493  18.260  0.00  0.00    +0.000 A 
ATOM      8  C   UNL     1       1.840   4.774  17.777  0.00  0.00    +0.000 A 
ENDBRANCH   1   3
BRANCH   2   9
ATOM      9  C   UNL     1       5.176   6.008  17.059  0.00  0.00    +0.000 A 
ATOM     10  C   UNL     1       5.191   5.227  15.909  0.00  0.00    +0.000 A 
ATOM     11  C   UNL     1       6.198   4.244  16.056  0.00  0.00    +0.000 A 
ATOM     12  C   UNL     1       6.754   4.463  17.290  0.00  0.00    +0.000 A 
ATOM     13  O   UNL     1       6.142   5.504  17.899  0.00  0.00    +0.000 OA
ENDBRANCH   2   9
BRANCH   1  15
ATOM     14  O   UNL     1       2.096   9.019  17.284  0.00  0.00    +0.000 OA
ATOM     15  C   UNL     1       2.251   8.185  18.171  0.00  0.00    +0.000 C 
ATOM     16  N   UNL     1       1.722   8.334  19.441  0.00  0.00    +0.000 N 
ATOM     17  H   UNL     1       2.086   7.757  20.184  0.00  0.00    +0.000 HD
BRANCH  16  18
ATOM     18  C   UNL     1       0.939   9.504  19.812  0.00  0.00    +0.000 C 
BRANCH  18  19
ATOM     19  C   UNL     1       0.586   9.495  21.303  0.00  0.00    +0.000 C 
BRANCH  19  20
ATOM     20  C   UNL     1      -0.466  10.517  21.661  0.00  0.00    +0.000 A 
ATOM     21  C   UNL     1      -0.959  11.399  20.689  0.00  0.00    +0.000 A 
ATOM     22  C   UNL     1      -1.922  12.353  21.023  0.00  0.00    +0.000 A 
ATOM     23  C   UNL     1      -2.399  12.438  22.329  0.00  0.00    +0.000 A 
ATOM     24  C   UNL     1      -1.915  11.567  23.303  0.00  0.00    +0.000 A 
ATOM     25  C   UNL     1      -0.952  10.611  22.971  0.00  0.00    +0.000 A 
ENDBRANCH  19  20
ENDBRANCH  18  19
ENDBRANCH  16  18
ENDBRANCH   1  15
TORSDOF 6
ENDMDL
MODEL 7
REMARK VINA RESULT:      -7.9      3.138      5.683
REMARK  Name = 
REMARK  6 active torsions:
REMARK  status: ('A' for Active; 'I' for Inactive)
REMARK    1  A    between atoms: C_2  and  C_12
REMARK    2  A    between atoms: N_3  and  C_4
REMARK    3  A    between atoms: C_4  and  C_5
REMARK    4  A    between atoms: C_5  and  C_6
REMARK    5  A    between atoms: C_12  and  C_19
REMARK    6  A    between atoms: C_13  and  C_14
REMARK                            x       y       z     vdW  Elec       q    Type
REMARK                         _______ _______ _______ _____ _____    ______ ____
ROOT
ATOM      1  C   UNL     1       5.934   5.026  18.469  0.00  0.00    +0.000 C 
ATOM      2  C   UNL     1       4.965   4.602  19.310  0.00  0.00    +0.000 C 
ENDROOT
BRANCH   1   3
ATOM      3  C   UNL     1       5.821   4.865  17.001  0.00  0.00    +0.000 A 
ATOM      4  C   UNL     1       6.493   3.817  16.357  0.00  0.00    +0.000 A 
ATOM      5  C   UNL     1       6.525   3.741  14.962  0.00  0.00    +0.000 A 
ATOM      6  C   UNL     1       5.879   4.712  14.199  0.00  0.00    +0.000 A 
ATOM      7  C   UNL     1       5.182   5.742  14.829  0.00  0.00    +0.000 A 
ATOM      8  C   UNL     1       5.143   5.815  16.224  0.00  0.00    +0.000 A 
ENDBRANCH   1   3
BRANCH   2   9
ATOM      9  C   UNL     1       3.857   3.787  18.944  0.00  0.00    +0.000 A 
ATOM     10  C   UNL     1       2.622   4.185  18.447  0.00  0.00    +0.000 A 
ATOM     11  C   UNL     1       1.816   3.031  18.291  0.00  0.00    +0.000 A 
ATOM     12  C   UNL     1       2.593   1.978  18.702  0.00  0.00    +0.000 A 
ATOM     13  O   UNL     1       3.805   2.421  19.104  0.00  0.00    +0.000 OA
ENDBRANCH   2   9
BRANCH   1  15
ATOM     14  O   UNL     1       7.642   5.494  20.085  0.00  0.00    +0.000 OA
ATOM     15  C   UNL     1       7.079   5.822  19.045  0.00  0.00    +0.000 C 
ATOM     16  N   UNL     1       7.409   6.969  18.344  0.00  0.00    +0.000 N 
ATOM     17  H   UNL     1       6.759   7.314  17.654  0.00  0.00    +0.000 HD
BRANCH  16  18
ATOM     18  C   UNL     1       8.456   7.871  18.800  0.00  0.00    +0.000 C 
BRANCH  18  19
ATOM     19  C   UNL     1       8.434   9.196  18.031  0.00  0.00    +0.000 C 
BRANCH  19  20
ATOM     20  C   UNL     1       9.268  10.268  18.688  0.00  0.00    +0.000 A 
ATOM     21  C   UNL     1       9.190  10.481  20.071  0.00  0.00    +0.000 A 
ATOM     22  C   UNL     1       9.952  11.483  20.677  0.00  0.00    +0.000 A 
ATOM     23  C   UNL     1      10.796  12.280  19.908  0.00  0.00    +0.000 A 
ATOM     24  C   UNL     1      10.881  12.078  18.532  0.00  0.00    +0.000 A 
ATOM     25  C   UNL     1      10.120  11.077  17.924  0.00  0.00    +0.000 A 
ENDBRANCH  19  20
ENDBRANCH  18  19
ENDBRANCH  16  18
ENDBRANCH   1  15
TORSDOF 6
ENDMDL
MODEL 8
REMARK VINA RESULT:      -7.9      3.457      6.452
REMARK  Name = 
REMARK  6 active torsions:
REMARK  status: ('A' for Active; 'I' for Inactive)
REMARK    1  A    between atoms: C_2  and  C_12
REMARK    2  A    between atoms: N_3  and  C_4
REMARK    3  A    between atoms: C_4  and  C_5
REMARK    4  A    between atoms: C_5  and  C_6
REMARK    5  A    between atoms: C_12  and  C_19
REMARK    6  A    between atoms: C_13  and  C_14
REMARK                            x       y       z     vdW  Elec       q    Type
REMARK                         _______ _______ _______ _____ _____    ______ ____
ROOT
ATOM      1  C   UNL     1       0.114   9.972  18.636  0.00  0.00    +0.000 C 
ATOM      2  C   UNL     1      -0.837  10.051  17.678  0.00  0.00    +0.000 C 
ENDROOT
BRANCH   1   3
ATOM      3  C   UNL     1      -0.216  10.082  20.076  0.00  0.00    +0.000 A 
ATOM      4  C   UNL     1      -0.368  11.345  20.665  0.00  0.00    +0.000 A 
ATOM      5  C   UNL     1      -0.525  11.471  22.048  0.00  0.00    +0.000 A 
ATOM      6  C   UNL     1      -0.536  10.334  22.853  0.00  0.00    +0.000 A 
ATOM      7  C   UNL     1      -0.415   9.071  22.275  0.00  0.00    +0.000 A 
ATOM      8  C   UNL     1      -0.266   8.942  20.891  0.00  0.00    +0.000 A 
ENDBRANCH   1   3
BRANCH   2   9
ATOM      9  C   UNL     1      -2.186  10.451  17.890  0.00  0.00    +0.000 A 
ATOM     10  C   UNL     1      -3.338   9.680  17.790  0.00  0.00    +0.000 A 
ATOM     11  C   UNL     1      -4.453  10.521  18.024  0.00  0.00    +0.000 A 
ATOM     12  C   UNL     1      -3.935  11.769  18.253  0.00  0.00    +0.000 A 
ATOM     13  O   UNL     1      -2.586  11.739  18.163  0.00  0.00    +0.000 OA
ENDBRANCH   2   9
BRANCH   1  15
ATOM     14  O   UNL     1       2.356  10.452  17.937  0.00  0.00    +0.000 OA
ATOM     15  C   UNL     1       1.516   9.603  18.219  0.00  0.00    +0.000 C 
ATOM     16  N   UNL     1       1.766   8.245  18.131  0.00  0.00    +0.000 N 
ATOM     17  H   UNL     1       0.980   7.611  18.128  0.00  0.00    +0.000 HD
BRANCH  16  18
ATOM     18  C   UNL     1       3.053   7.729  17.692  0.00  0.00    +0.000 C 
BRANCH  18  19
ATOM     19  C   UNL     1       3.623   6.712  18.687  0.00  0.00    +0.000 C 
BRANCH  19  20
ATOM     20  C   UNL     1       2.664   5.585  18.984  0.00  0.00    +0.000 A 
ATOM     21  C   UNL     1       2.275   4.698  17.971  0.00  0.00    +0.000 A 
ATOM     22  C   UNL     1       1.376   3.663  18.244  0.00  0.00    +0.000 A 
ATOM     23  C   UNL     1       0.857   3.508  19.527  0.00  0.00    +0.000 A 
ATOM     24  C   UNL     1       1.237   4.385  20.541  0.00  0.00    +0.000 A 
ATOM     25  C   UNL     1       2.135   5.420  20.271  0.00  0.00    +0.000 A 
ENDBRANCH  19  20
ENDBRANCH  18  19
ENDBRANCH  16  18
ENDBRANCH   1  15
TORSDOF 6
ENDMDL
MODEL 9
REMARK VINA RESULT:      -7.9      2.548      6.935
REMARK  Name = 
REMARK  6 active torsions:
REMARK  status: ('A' for Active; 'I' for Inactive)
REMARK    1  A    between atoms: C_2  and  C_12
REMARK    2  A    between atoms: N_3  and  C_4
REMARK    3  A    between atoms: C_4  and  C_5
REMARK    4  A    between atoms: C_5  and  C_6
REMARK    5  A    between atoms: C_12  and  C_19
REMARK    6  A    between atoms: C_13  and  C_14
REMARK                            x       y       z     vdW  Elec       q    Type
REMARK                         _______ _______ _______ _____ _____    ______ ____
ROOT
ATOM      1  C   UNL     1       3.588   6.322  17.895  0.00  0.00    +0.000 C 
ATOM      2  C   UNL     1       4.640   6.730  17.151  0.00  0.00    +0.000 C 
ENDROOT
BRANCH   1   3
ATOM      3  C   UNL     1       3.369   4.894  18.224  0.00  0.00    +0.000 A 
ATOM      4  C   UNL     1       4.146   4.277  19.214  0.00  0.00    +0.000 A 
ATOM      5  C   UNL     1       4.062   2.899  19.428  0.00  0.00    +0.000 A 
ATOM      6  C   UNL     1       3.196   2.127  18.657  0.00  0.00    +0.000 A 
ATOM      7  C   UNL     1       2.397   2.734  17.690  0.00  0.00    +0.000 A 
ATOM      8  C   UNL     1       2.474   4.114  17.478  0.00  0.00    +0.000 A 
ENDBRANCH   1   3
BRANCH   2   9
ATOM      9  C   UNL     1       5.519   5.873  16.431  0.00  0.00    +0.000 A 
ATOM     10  C   UNL     1       5.372   5.377  15.140  0.00  0.00    +0.000 A 
ATOM     11  C   UNL     1       6.462   4.514  14.873  0.00  0.00    +0.000 A 
ATOM     12  C   UNL     1       7.225   4.516  16.012  0.00  0.00    +0.000 A 
ATOM     13  O   UNL     1       6.664   5.313  16.948  0.00  0.00    +0.000 OA
ENDBRANCH   2   9
BRANCH   1  15
ATOM     14  O   UNL     1       2.183   7.208  19.623  0.00  0.00    +0.000 OA
ATOM     15  C   UNL     1       2.714   7.376  18.530  0.00  0.00    +0.000 C 
ATOM     16  N   UNL     1       2.519   8.515  17.769  0.00  0.00    +0.000 N 
ATOM     17  H   UNL     1       2.769   8.489  16.791  0.00  0.00    +0.000 HD
BRANCH  16  18
ATOM     18  C   UNL     1       1.661   9.600  18.220  0.00  0.00    +0.000 C 
BRANCH  18  19
ATOM     19  C   UNL     1       0.208   9.390  17.782  0.00  0.00    +0.000 C 
BRANCH  19  20
ATOM     20  C   UNL     1      -0.744  10.372  18.421  0.00  0.00    +0.000 A 
ATOM     21  C   UNL     1      -0.455  10.926  19.676  0.00  0.00    +0.000 A 
ATOM     22  C   UNL     1      -1.343  11.824  20.274  0.00  0.00    +0.000 A 
ATOM     23  C   UNL     1      -2.525  12.174  19.626  0.00  0.00    +0.000 A 
ATOM     24  C   UNL     1      -2.822  11.628  18.379  0.00  0.00    +0.000 A 
ATOM     25  C   UNL     1      -1.936  10.730  17.779  0.00  0.00    +0.000 A 
ENDBRANCH  19  20
ENDBRANCH  18  19
ENDBRANCH  16  18
ENDBRANCH   1  15
TORSDOF 6
ENDMDL
