MODEL 1
REMARK VINA RESULT:      -9.0      0.000      0.000
REMARK  Name = 
REMARK  7 active torsions:
REMARK  status: ('A' for Active; 'I' for Inactive)
REMARK    1  A    between atoms: C_1  and  O_2
REMARK    2  A    between atoms: O_2  and  C_3
REMARK    3  A    between atoms: C_8  and  N_9
REMARK    4  A    between atoms: C_13  and  C_15
REMARK    5  A    between atoms: C_15  and  S_16
REMARK    6  A    between atoms: S_16  and  C_17
REMARK    7  A    between atoms: C_22  and  C_23
REMARK                            x       y       z     vdW  Elec       q    Type
REMARK                         _______ _______ _______ _____ _____    ______ ____
ROOT
ATOM      1  C   UNL     1       4.021   7.122  17.400  0.00  0.00    +0.000 C 
ENDROOT
BRANCH   1   6
ATOM      2  N   UNL     1       0.529  10.222  19.639  0.00  0.00    +0.000 N 
ATOM      3  C   UNL     1       1.112   9.362  20.685  0.00  0.00    +0.000 C 
ATOM      4  C   UNL     1       1.404   7.970  20.094  0.00  0.00    +0.000 C 
ATOM      5  N   UNL     1       2.244   8.041  18.889  0.00  0.00    +0.000 N 
ATOM      6  C   UNL     1       3.193   7.036  18.678  0.00  0.00    +0.000 C 
ATOM      7  O   UNL     1       3.403   6.172  19.532  0.00  0.00    +0.000 OA
ATOM      8  C   UNL     1       1.755   8.999  17.874  0.00  0.00    +0.000 C 
ATOM      9  C   UNL     1       1.412  10.386  18.471  0.00  0.00    +0.000 C 
BRANCH   2  15
ATOM     10  C   UNL     1      -1.639  11.354  19.294  0.00  0.00    +0.000 A 
ATOM     11  C   UNL     1      -2.605  12.268  19.752  0.00  0.00    +0.000 A 
ATOM     12  C   UNL     1      -2.345  13.099  20.836  0.00  0.00    +0.000 A 
ATOM     13  C   UNL     1      -1.111  13.026  21.468  0.00  0.00    +0.000 A 
ATOM     14  C   UNL     1      -0.159  12.099  21.036  0.00  0.00    +0.000 A 
ATOM     15  C   UNL     1      -0.393  11.218  19.961  0.00  0.00    +0.000 A 
BRANCH  10  17
ATOM     16  C   UNL     1      -2.364  11.121  17.059  0.00  0.00    +0.000 C 
ATOM     17  O   UNL     1      -1.926  10.487  18.259  0.00  0.00    +0.000 OA
ENDBRANCH  10  17
ENDBRANCH   2  15
ENDBRANCH   1   6
BRANCH   1  18
ATOM     18  S   UNL     1       5.774   6.620  17.627  0.00  0.00    +0.000 S 
BRANCH  18  19
ATOM     19  C   UNL     1       5.922   5.421  16.292  0.00  0.00    +0.000 A 
ATOM     20  N   UNL     1       6.746   5.831  15.285  0.00  0.00    +0.000 NA
ATOM     21  C   UNL     1       6.950   5.011  14.234  0.00  0.00    +0.000 A 
ATOM     22  C   UNL     1       6.370   3.774  14.122  0.00  0.00    +0.000 A 
ATOM     23  C   UNL     1       5.525   3.363  15.145  0.00  0.00    +0.000 A 
ATOM     24  C   UNL     1       5.272   4.178  16.270  0.00  0.00    +0.000 A 
BRANCH  24  25
ATOM     25  C   UNL     1       4.326   3.627  17.255  0.00  0.00    +0.000 A 
ATOM     26  N   UNL     1       3.020   3.541  17.051  0.00  0.00    +0.000 NA
ATOM     27  C   UNL     1       2.459   3.189  18.248  0.00  0.00    +0.000 A 
ATOM     28  C   UNL     1       1.105   3.035  18.585  0.00  0.00    +0.000 A 
ATOM     29  C   UNL     1       0.779   2.744  19.914  0.00  0.00    +0.000 A 
ATOM     30  C   UNL     1       1.779   2.604  20.878  0.00  0.00    +0.000 A 
ATOM     31  C   UNL     1       3.138   2.724  20.547  0.00  0.00    +0.000 A 
ATOM     32  C   UNL     1       3.435   3.015  19.214  0.00  0.00    +0.000 A 
ATOM     33  N   UNL     1       4.617   3.202  18.534  0.00  0.00    +0.000 N 
ATOM     34  H   UNL     1       5.547   3.113  18.922  0.00  0.00    +0.000 HD
ENDBRANCH  24  25
ENDBRANCH  18  19
ENDBRANCH   1  18
TORSDOF 6
ENDMDL
MODEL 2
REMARK VINA RESULT:      -8.6      1.132      1.791
REMARK  Name = 
REMARK  7 active torsions:
REMARK  status: ('A' for Active; 'I' for Inactive)
REMARK    1  A    between atoms: C_1  and  O_2
REMARK    2  A    between atoms: O_2  and  C_3
REMARK    3  A    between atoms: C_8  and  N_9
REMARK    4  A    between atoms: C_13  and  C_15
REMARK    5  A    between atoms: C_15  and  S_16
REMARK    6  A    between atoms: S_16  and  C_17
REMARK    7  A    between atoms: C_22  and  C_23
REMARK                            x       y       z     vdW  Elec       q    Type
REMARK                         _______ _______ _______ _____ _____    ______ ____
ROOT
ATOM      1  C   UNL     1       5.394   6.976  17.660  0.00  0.00    +0.000 C 
ENDROOT
BRANCH   1   6
ATOM      2  N   UNL     1       0.937   9.280  18.943  0.00  0.00    +0.000 N 
ATOM      3  C   UNL     1       1.382   8.475  20.095  0.00  0.00    +0.000 C 
ATOM      4  C   UNL     1       2.066   7.192  19.585  0.00  0.00    +0.000 C 
ATOM      5  N   UNL     1       3.158   7.481  18.642  0.00  0.00    +0.000 N 
ATOM      6  C   UNL     1       4.298   6.671  18.676  0.00  0.00    +0.000 C 
ATOM      7  O   UNL     1       4.438   5.808  19.545  0.00  0.00    +0.000 OA
ATOM      8  C   UNL     1       2.776   8.397  17.546  0.00  0.00    +0.000 C 
ATOM      9  C   UNL     1       2.043   9.664  18.049  0.00  0.00    +0.000 C 
BRANCH   2  15
ATOM     10  C   UNL     1      -0.324  11.153  19.947  0.00  0.00    +0.000 A 
ATOM     11  C   UNL     1      -1.421  12.031  19.889  0.00  0.00    +0.000 A 
ATOM     12  C   UNL     1      -2.442  11.840  18.965  0.00  0.00    +0.000 A 
ATOM     13  C   UNL     1      -2.376  10.763  18.092  0.00  0.00    +0.000 A 
ATOM     14  C   UNL     1      -1.273   9.905  18.123  0.00  0.00    +0.000 A 
ATOM     15  C   UNL     1      -0.204  10.079  19.024  0.00  0.00    +0.000 A 
BRANCH  10  17
ATOM     16  C   UNL     1       1.197  12.726  20.831  0.00  0.00    +0.000 C 
ATOM     17  O   UNL     1       0.717  11.384  20.822  0.00  0.00    +0.000 OA
ENDBRANCH  10  17
ENDBRANCH   2  15
ENDBRANCH   1   6
BRANCH   1  18
ATOM     18  S   UNL     1       6.760   5.747  17.665  0.00  0.00    +0.000 S 
BRANCH  18  19
ATOM     19  C   UNL     1       6.433   4.924  16.097  0.00  0.00    +0.000 A 
ATOM     20  N   UNL     1       7.283   5.302  15.100  0.00  0.00    +0.000 NA
ATOM     21  C   UNL     1       7.148   4.743  13.880  0.00  0.00    +0.000 A 
ATOM     22  C   UNL     1       6.196   3.803  13.585  0.00  0.00    +0.000 A 
ATOM     23  C   UNL     1       5.327   3.425  14.601  0.00  0.00    +0.000 A 
ATOM     24  C   UNL     1       5.418   3.976  15.898  0.00  0.00    +0.000 A 
BRANCH  24  25
ATOM     25  C   UNL     1       4.406   3.509  16.860  0.00  0.00    +0.000 A 
ATOM     26  N   UNL     1       3.109   3.754  16.740  0.00  0.00    +0.000 NA
ATOM     27  C   UNL     1       2.526   3.358  17.913  0.00  0.00    +0.000 A 
ATOM     28  C   UNL     1       1.188   3.464  18.322  0.00  0.00    +0.000 A 
ATOM     29  C   UNL     1       0.851   3.053  19.616  0.00  0.00    +0.000 A 
ATOM     30  C   UNL     1       1.826   2.545  20.477  0.00  0.00    +0.000 A 
ATOM     31  C   UNL     1       3.162   2.403  20.069  0.00  0.00    +0.000 A 
ATOM     32  C   UNL     1       3.470   2.820  18.772  0.00  0.00    +0.000 A 
ATOM     33  N   UNL     1       4.636   2.838  18.043  0.00  0.00    +0.000 N 
ATOM     34  H   UNL     1       5.533   2.482  18.346  0.00  0.00    +0.000 HD
ENDBRANCH  24  25
ENDBRANCH  18  19
ENDBRANCH   1  18
TORSDOF 6
ENDMDL
MODEL 3
REMARK VINA RESULT:      -8.4      2.369      5.157
REMARK  Name = 
REMARK  7 active torsions:
REMARK  status: ('A' for Active; 'I' for Inactive)
REMARK    1  A    between atoms: C_1  and  O_2
REMARK    2  A    between atoms: O_2  and  C_3
REMARK    3  A    between atoms: C_8  and  N_9
REMARK    4  A    between atoms: C_13  and  C_15
REMARK    5  A    between atoms: C_15  and  S_16
REMARK    6  A    between atoms: S_16  and  C_17
REMARK    7  A    between atoms: C_22  and  C_23
REMARK                            x       y       z     vdW  Elec       q    Type
REMARK                         _______ _______ _______ _____ _____    ______ ____
ROOT
ATOM      1  C   UNL     1       1.779   7.860  20.150  0.00  0.00    +0.000 C 
ENDROOT
BRANCH   1   6
ATOM      2  N   UNL     1      -1.085  11.612  22.280  0.00  0.00    +0.000 N 
ATOM      3  C   UNL     1      -1.252  11.686  20.817  0.00  0.00    +0.000 C 
ATOM      4  C   UNL     1       0.078  11.315  20.134  0.00  0.00    +0.000 C 
ATOM      5  N   UNL     1       0.586  10.008  20.579  0.00  0.00    +0.000 N 
ATOM      6  C   UNL     1       1.233   9.192  19.645  0.00  0.00    +0.000 C 
ATOM      7  O   UNL     1       1.280   9.505  18.454  0.00  0.00    +0.000 OA
ATOM      8  C   UNL     1       0.637   9.854  22.049  0.00  0.00    +0.000 C 
ATOM      9  C   UNL     1      -0.680  10.274  22.745  0.00  0.00    +0.000 C 
BRANCH   2  15
ATOM     10  C   UNL     1      -1.347  13.754  23.482  0.00  0.00    +0.000 A 
ATOM     11  C   UNL     1      -2.170  14.634  24.207  0.00  0.00    +0.000 A 
ATOM     12  C   UNL     1      -3.430  14.237  24.643  0.00  0.00    +0.000 A 
ATOM     13  C   UNL     1      -3.874  12.952  24.360  0.00  0.00    +0.000 A 
ATOM     14  C   UNL     1      -3.072  12.085  23.613  0.00  0.00    +0.000 A 
ATOM     15  C   UNL     1      -1.803  12.457  23.127  0.00  0.00    +0.000 A 
BRANCH  10  17
ATOM     16  C   UNL     1      -0.191  15.292  22.113  0.00  0.00    +0.000 C 
ATOM     17  O   UNL     1      -0.125  14.175  22.996  0.00  0.00    +0.000 OA
ENDBRANCH  10  17
ENDBRANCH   2  15
ENDBRANCH   1   6
BRANCH   1  18
ATOM     18  S   UNL     1       2.641   6.883  18.853  0.00  0.00    +0.000 S 
BRANCH  18  19
ATOM     19  C   UNL     1       2.726   5.287  19.683  0.00  0.00    +0.000 A 
ATOM     20  N   UNL     1       1.961   5.222  20.810  0.00  0.00    +0.000 NA
ATOM     21  C   UNL     1       1.930   4.071  21.512  0.00  0.00    +0.000 A 
ATOM     22  C   UNL     1       2.629   2.950  21.149  0.00  0.00    +0.000 A 
ATOM     23  C   UNL     1       3.414   3.022  20.004  0.00  0.00    +0.000 A 
ATOM     24  C   UNL     1       3.488   4.200  19.230  0.00  0.00    +0.000 A 
BRANCH  24  25
ATOM     25  C   UNL     1       4.388   4.140  18.066  0.00  0.00    +0.000 A 
ATOM     26  N   UNL     1       5.670   4.477  18.110  0.00  0.00    +0.000 NA
ATOM     27  C   UNL     1       6.113   4.501  16.816  0.00  0.00    +0.000 A 
ATOM     28  C   UNL     1       7.372   4.862  16.314  0.00  0.00    +0.000 A 
ATOM     29  C   UNL     1       7.556   4.880  14.926  0.00  0.00    +0.000 A 
ATOM     30  C   UNL     1       6.511   4.540  14.066  0.00  0.00    +0.000 A 
ATOM     31  C   UNL     1       5.256   4.146  14.557  0.00  0.00    +0.000 A 
ATOM     32  C   UNL     1       5.100   4.136  15.945  0.00  0.00    +0.000 A 
ATOM     33  N   UNL     1       4.046   3.818  16.770  0.00  0.00    +0.000 N 
ATOM     34  H   UNL     1       3.143   3.471  16.474  0.00  0.00    +0.000 HD
ENDBRANCH  24  25
ENDBRANCH  18  19
ENDBRANCH   1  18
TORSDOF 6
ENDMDL
MODEL 4
REMARK VINA RESULT:      -8.4      1.090      1.698
REMARK  Name = 
REMARK  7 active torsions:
REMARK  status: ('A' for Active; 'I' for Inactive)
REMARK    1  A    between atoms: C_1  and  O_2
REMARK    2  A    between atoms: O_2  and  C_3
REMARK    3  A    between atoms: C_8  and  N_9
REMARK    4  A    between atoms: C_13  and  C_15
REMARK    5  A    between atoms: C_15  and  S_16
REMARK    6  A    between atoms: S_16  and  C_17
REMARK    7  A    between atoms: C_22  and  C_23
REMARK                            x       y       z     vdW  Elec       q    Type
REMARK                         _______ _______ _______ _____ _____    ______ ____
ROOT
ATOM      1  C   UNL     1       3.821   7.041  17.351  0.00  0.00    +0.000 C 
ENDROOT
BRANCH   1   6
ATOM      2  N   UNL     1       0.688  10.491  19.611  0.00  0.00    +0.000 N 
ATOM      3  C   UNL     1       1.261   9.636  20.666  0.00  0.00    +0.000 C 
ATOM      4  C   UNL     1       1.419   8.201  20.129  0.00  0.00    +0.000 C 
ATOM      5  N   UNL     1       2.197   8.156  18.881  0.00  0.00    +0.000 N 
ATOM      6  C   UNL     1       3.058   7.074  18.671  0.00  0.00    +0.000 C 
ATOM      7  O   UNL     1       3.249   6.235  19.554  0.00  0.00    +0.000 OA
ATOM      8  C   UNL     1       1.726   9.103  17.847  0.00  0.00    +0.000 C 
ATOM      9  C   UNL     1       1.517  10.536  18.394  0.00  0.00    +0.000 C 
BRANCH   2  15
ATOM     10  C   UNL     1       0.366  12.843  20.294  0.00  0.00    +0.000 A 
ATOM     11  C   UNL     1      -0.498  13.941  20.454  0.00  0.00    +0.000 A 
ATOM     12  C   UNL     1      -1.874  13.795  20.313  0.00  0.00    +0.000 A 
ATOM     13  C   UNL     1      -2.397  12.544  20.016  0.00  0.00    +0.000 A 
ATOM     14  C   UNL     1      -1.542  11.456  19.826  0.00  0.00    +0.000 A 
ATOM     15  C   UNL     1      -0.141  11.567  19.930  0.00  0.00    +0.000 A 
BRANCH  10  17
ATOM     16  C   UNL     1       2.157  14.052  21.245  0.00  0.00    +0.000 C 
ATOM     17  O   UNL     1       1.734  13.007  20.371  0.00  0.00    +0.000 OA
ENDBRANCH  10  17
ENDBRANCH   2  15
ENDBRANCH   1   6
BRANCH   1  18
ATOM     18  S   UNL     1       5.615   6.696  17.550  0.00  0.00    +0.000 S 
BRANCH  18  19
ATOM     19  C   UNL     1       5.827   5.451  16.266  0.00  0.00    +0.000 A 
ATOM     20  N   UNL     1       6.648   5.852  15.254  0.00  0.00    +0.000 NA
ATOM     21  C   UNL     1       6.898   5.000  14.239  0.00  0.00    +0.000 A 
ATOM     22  C   UNL     1       6.369   3.737  14.170  0.00  0.00    +0.000 A 
ATOM     23  C   UNL     1       5.527   3.334  15.199  0.00  0.00    +0.000 A 
ATOM     24  C   UNL     1       5.228   4.183  16.287  0.00  0.00    +0.000 A 
BRANCH  24  25
ATOM     25  C   UNL     1       4.291   3.634  17.283  0.00  0.00    +0.000 A 
ATOM     26  N   UNL     1       2.987   3.520  17.079  0.00  0.00    +0.000 NA
ATOM     27  C   UNL     1       2.431   3.182  18.283  0.00  0.00    +0.000 A 
ATOM     28  C   UNL     1       1.081   3.009  18.623  0.00  0.00    +0.000 A 
ATOM     29  C   UNL     1       0.758   2.739  19.958  0.00  0.00    +0.000 A 
ATOM     30  C   UNL     1       1.760   2.638  20.925  0.00  0.00    +0.000 A 
ATOM     31  C   UNL     1       3.117   2.776  20.592  0.00  0.00    +0.000 A 
ATOM     32  C   UNL     1       3.410   3.045  19.253  0.00  0.00    +0.000 A 
ATOM     33  N   UNL     1       4.589   3.241  18.571  0.00  0.00    +0.000 N 
ATOM     34  H   UNL     1       5.520   3.177  18.960  0.00  0.00    +0.000 HD
ENDBRANCH  24  25
ENDBRANCH  18  19
ENDBRANCH   1  18
TORSDOF 6
ENDMDL
MODEL 5
REMARK VINA RESULT:      -7.9      2.058      4.833
REMARK  Name = 
REMARK  7 active torsions:
REMARK  status: ('A' for Active; 'I' for Inactive)
REMARK    1  A    between atoms: C_1  and  O_2
REMARK    2  A    between atoms: O_2  and  C_3
REMARK    3  A    between atoms: C_8  and  N_9
REMARK    4  A    between atoms: C_13  and  C_15
REMARK    5  A    between atoms: C_15  and  S_16
REMARK    6  A    between atoms: S_16  and  C_17
REMARK    7  A    between atoms: C_22  and  C_23
REMARK                            x       y       z     vdW  Elec       q    Type
REMARK                         _______ _______ _______ _____ _____    ______ ____
ROOT
ATOM      1  C   UNL     1       2.437   7.139  19.121  0.00  0.00    +0.000 C 
ENDROOT
BRANCH   1   6
ATOM      2  N   UNL     1      -0.197  11.052  21.257  0.00  0.00    +0.000 N 
ATOM      3  C   UNL     1      -0.396  11.112  19.798  0.00  0.00    +0.000 C 
ATOM      4  C   UNL     1       0.898  10.669  19.089  0.00  0.00    +0.000 C 
ATOM      5  N   UNL     1       1.355   9.346  19.543  0.00  0.00    +0.000 N 
ATOM      6  C   UNL     1       1.941   8.487  18.608  0.00  0.00    +0.000 C 
ATOM      7  O   UNL     1       1.973   8.779  17.410  0.00  0.00    +0.000 OA
ATOM      8  C   UNL     1       1.436   9.212  21.013  0.00  0.00    +0.000 C 
ATOM      9  C   UNL     1       0.158   9.704  21.734  0.00  0.00    +0.000 C 
BRANCH   2  15
ATOM     10  C   UNL     1      -0.355  13.242  22.390  0.00  0.00    +0.000 A 
ATOM     11  C   UNL     1      -1.123  14.164  23.122  0.00  0.00    +0.000 A 
ATOM     12  C   UNL     1      -2.366  13.810  23.636  0.00  0.00    +0.000 A 
ATOM     13  C   UNL     1      -2.849  12.526  23.424  0.00  0.00    +0.000 A 
ATOM     14  C   UNL     1      -2.104  11.616  22.670  0.00  0.00    +0.000 A 
ATOM     15  C   UNL     1      -0.854  11.942  22.108  0.00  0.00    +0.000 A 
BRANCH  10  17
ATOM     16  C   UNL     1       0.918  14.988  21.438  0.00  0.00    +0.000 C 
ATOM     17  O   UNL     1       0.848  13.618  21.828  0.00  0.00    +0.000 OA
ENDBRANCH  10  17
ENDBRANCH   2  15
ENDBRANCH   1   6
BRANCH   1  18
ATOM     18  S   UNL     1       1.524   5.706  18.419  0.00  0.00    +0.000 S 
BRANCH  18  19
ATOM     19  C   UNL     1       2.080   4.413  19.541  0.00  0.00    +0.000 A 
ATOM     20  N   UNL     1       1.251   4.228  20.607  0.00  0.00    +0.000 NA
ATOM     21  C   UNL     1       1.553   3.275  21.512  0.00  0.00    +0.000 A 
ATOM     22  C   UNL     1       2.659   2.471  21.416  0.00  0.00    +0.000 A 
ATOM     23  C   UNL     1       3.507   2.667  20.333  0.00  0.00    +0.000 A 
ATOM     24  C   UNL     1       3.243   3.650  19.355  0.00  0.00    +0.000 A 
BRANCH  24  25
ATOM     25  C   UNL     1       4.249   3.769  18.285  0.00  0.00    +0.000 A 
ATOM     26  N   UNL     1       5.468   4.252  18.474  0.00  0.00    +0.000 NA
ATOM     27  C   UNL     1       6.024   4.407  17.234  0.00  0.00    +0.000 A 
ATOM     28  C   UNL     1       7.271   4.946  16.878  0.00  0.00    +0.000 A 
ATOM     29  C   UNL     1       7.580   5.070  15.519  0.00  0.00    +0.000 A 
ATOM     30  C   UNL     1       6.669   4.661  14.543  0.00  0.00    +0.000 A 
ATOM     31  C   UNL     1       5.433   4.092  14.885  0.00  0.00    +0.000 A 
ATOM     32  C   UNL     1       5.151   3.979  16.249  0.00  0.00    +0.000 A 
ATOM     33  N   UNL     1       4.072   3.488  16.947  0.00  0.00    +0.000 N 
ATOM     34  H   UNL     1       3.250   3.056  16.546  0.00  0.00    +0.000 HD
ENDBRANCH  24  25
ENDBRANCH  18  19
ENDBRANCH   1  18
TORSDOF 6
ENDMDL
MODEL 6
REMARK VINA RESULT:      -7.8      5.839      7.149
REMARK  Name = 
REMARK  7 active torsions:
REMARK  status: ('A' for Active; 'I' for Inactive)
REMARK    1  A    between atoms: C_1  and  O_2
REMARK    2  A    between atoms: O_2  and  C_3
REMARK    3  A    between atoms: C_8  and  N_9
REMARK    4  A    between atoms: C_13  and  C_15
REMARK    5  A    between atoms: C_15  and  S_16
REMARK    6  A    between atoms: S_16  and  C_17
REMARK    7  A    between atoms: C_22  and  C_23
REMARK                            x       y       z     vdW  Elec       q    Type
REMARK                         _______ _______ _______ _____ _____    ______ ____
ROOT
ATOM      1  C   UNL     1       7.274   7.873  17.286  0.00  0.00    +0.000 C 
ENDROOT
BRANCH   1   6
ATOM      2  N   UNL     1       9.531  12.358  18.555  0.00  0.00    +0.000 N 
ATOM      3  C   UNL     1      10.367  11.263  19.079  0.00  0.00    +0.000 C 
ATOM      4  C   UNL     1       9.460  10.105  19.537  0.00  0.00    +0.000 C 
ATOM      5  N   UNL     1       8.547   9.659  18.474  0.00  0.00    +0.000 N 
ATOM      6  C   UNL     1       8.253   8.295  18.377  0.00  0.00    +0.000 C 
ATOM      7  O   UNL     1       8.829   7.470  19.090  0.00  0.00    +0.000 OA
ATOM      8  C   UNL     1       7.790  10.757  17.835  0.00  0.00    +0.000 C 
ATOM      9  C   UNL     1       8.690  11.946  17.418  0.00  0.00    +0.000 C 
BRANCH   2  15
ATOM     10  C   UNL     1       9.583  14.492  19.797  0.00  0.00    +0.000 A 
ATOM     11  C   UNL     1      10.137  15.775  19.962  0.00  0.00    +0.000 A 
ATOM     12  C   UNL     1      10.996  16.310  19.008  0.00  0.00    +0.000 A 
ATOM     13  C   UNL     1      11.304  15.567  17.877  0.00  0.00    +0.000 A 
ATOM     14  C   UNL     1      10.782  14.280  17.724  0.00  0.00    +0.000 A 
ATOM     15  C   UNL     1       9.931  13.689  18.679  0.00  0.00    +0.000 A 
BRANCH  10  17
ATOM     16  C   UNL     1       9.327  14.008  22.094  0.00  0.00    +0.000 C 
ATOM     17  O   UNL     1       8.783  13.940  20.777  0.00  0.00    +0.000 OA
ENDBRANCH  10  17
ENDBRANCH   2  15
ENDBRANCH   1   6
BRANCH   1  18
ATOM     18  S   UNL     1       6.059   6.610  17.841  0.00  0.00    +0.000 S 
BRANCH  18  19
ATOM     19  C   UNL     1       6.155   5.467  16.452  0.00  0.00    +0.000 A 
ATOM     20  N   UNL     1       7.022   5.870  15.479  0.00  0.00    +0.000 NA
ATOM     21  C   UNL     1       7.193   5.090  14.393  0.00  0.00    +0.000 A 
ATOM     22  C   UNL     1       6.539   3.898  14.213  0.00  0.00    +0.000 A 
ATOM     23  C   UNL     1       5.651   3.494  15.203  0.00  0.00    +0.000 A 
ATOM     24  C   UNL     1       5.429   4.270  16.361  0.00  0.00    +0.000 A 
BRANCH  24  25
ATOM     25  C   UNL     1       4.433   3.735  17.304  0.00  0.00    +0.000 A 
ATOM     26  N   UNL     1       3.127   3.750  17.080  0.00  0.00    +0.000 NA
ATOM     27  C   UNL     1       2.525   3.376  18.250  0.00  0.00    +0.000 A 
ATOM     28  C   UNL     1       1.159   3.297  18.563  0.00  0.00    +0.000 A 
ATOM     29  C   UNL     1       0.793   2.960  19.871  0.00  0.00    +0.000 A 
ATOM     30  C   UNL     1       1.766   2.703  20.838  0.00  0.00    +0.000 A 
ATOM     31  C   UNL     1       3.135   2.746  20.530  0.00  0.00    +0.000 A 
ATOM     32  C   UNL     1       3.473   3.085  19.217  0.00  0.00    +0.000 A 
ATOM     33  N   UNL     1       4.674   3.226  18.563  0.00  0.00    +0.000 N 
ATOM     34  H   UNL     1       5.590   3.053  18.956  0.00  0.00    +0.000 HD
ENDBRANCH  24  25
ENDBRANCH  18  19
ENDBRANCH   1  18
TORSDOF 6
ENDMDL
MODEL 7
REMARK VINA RESULT:      -7.7      3.579     10.630
REMARK  Name = 
REMARK  7 active torsions:
REMARK  status: ('A' for Active; 'I' for Inactive)
REMARK    1  A    between atoms: C_1  and  O_2
REMARK    2  A    between atoms: O_2  and  C_3
REMARK    3  A    between atoms: C_8  and  N_9
REMARK    4  A    between atoms: C_13  and  C_15
REMARK    5  A    between atoms: C_15  and  S_16
REMARK    6  A    between atoms: S_16  and  C_17
REMARK    7  A    between atoms: C_22  and  C_23
REMARK                            x       y       z     vdW  Elec       q    Type
REMARK                         _______ _______ _______ _____ _____    ______ ____
ROOT
ATOM      1  C   UNL     1      -0.440  11.067  19.291  0.00  0.00    +0.000 C 
ENDROOT
BRANCH   1   6
ATOM      2  N   UNL     1       2.719   7.028  18.566  0.00  0.00    +0.000 N 
ATOM      3  C   UNL     1       1.985   6.812  19.826  0.00  0.00    +0.000 C 
ATOM      4  C   UNL     1       1.770   8.166  20.528  0.00  0.00    +0.000 C 
ATOM      5  N   UNL     1       1.112   9.148  19.652  0.00  0.00    +0.000 N 
ATOM      6  C   UNL     1       0.195  10.038  20.221  0.00  0.00    +0.000 C 
ATOM      7  O   UNL     1      -0.142   9.933  21.402  0.00  0.00    +0.000 OA
ATOM      8  C   UNL     1       1.749   9.289  18.326  0.00  0.00    +0.000 C 
ATOM      9  C   UNL     1       2.014   7.928  17.638  0.00  0.00    +0.000 C 
BRANCH   2  15
ATOM     10  C   UNL     1       3.149   4.798  17.593  0.00  0.00    +0.000 A 
ATOM     11  C   UNL     1       4.040   3.915  16.956  0.00  0.00    +0.000 A 
ATOM     12  C   UNL     1       5.388   4.231  16.826  0.00  0.00    +0.000 A 
ATOM     13  C   UNL     1       5.857   5.434  17.338  0.00  0.00    +0.000 A 
ATOM     14  C   UNL     1       4.971   6.328  17.943  0.00  0.00    +0.000 A 
ATOM     15  C   UNL     1       3.593   6.060  18.070  0.00  0.00    +0.000 A 
BRANCH  10  17
ATOM     16  C   UNL     1       1.481   3.366  18.452  0.00  0.00    +0.000 C 
ATOM     17  O   UNL     1       1.801   4.508  17.662  0.00  0.00    +0.000 OA
ENDBRANCH  10  17
ENDBRANCH   2  15
ENDBRANCH   1   6
BRANCH   1  18
ATOM     18  S   UNL     1      -1.700  12.121  20.115  0.00  0.00    +0.000 S 
BRANCH  18  19
ATOM     19  C   UNL     1      -3.065  11.923  18.958  0.00  0.00    +0.000 A 
ATOM     20  N   UNL     1      -2.669  11.511  17.719  0.00  0.00    +0.000 NA
ATOM     21  C   UNL     1      -3.603  11.312  16.768  0.00  0.00    +0.000 A 
ATOM     22  C   UNL     1      -4.945  11.499  16.980  0.00  0.00    +0.000 A 
ATOM     23  C   UNL     1      -5.344  11.925  18.241  0.00  0.00    +0.000 A 
ATOM     24  C   UNL     1      -4.412  12.152  19.277  0.00  0.00    +0.000 A 
BRANCH  24  25
ATOM     25  C   UNL     1      -4.978  12.638  20.546  0.00  0.00    +0.000 A 
ATOM     26  N   UNL     1      -5.869  11.964  21.259  0.00  0.00    +0.000 NA
ATOM     27  C   UNL     1      -6.312  12.814  22.236  0.00  0.00    +0.000 A 
ATOM     28  C   UNL     1      -7.304  12.612  23.208  0.00  0.00    +0.000 A 
ATOM     29  C   UNL     1      -7.635  13.676  24.054  0.00  0.00    +0.000 A 
ATOM     30  C   UNL     1      -6.986  14.907  23.935  0.00  0.00    +0.000 A 
ATOM     31  C   UNL     1      -5.970  15.112  22.989  0.00  0.00    +0.000 A 
ATOM     32  C   UNL     1      -5.660  14.033  22.157  0.00  0.00    +0.000 A 
ATOM     33  N   UNL     1      -4.750  13.862  21.140  0.00  0.00    +0.000 N 
ATOM     34  H   UNL     1      -4.070  14.543  20.829  0.00  0.00    +0.000 HD
ENDBRANCH  24  25
ENDBRANCH  18  19
ENDBRANCH   1  18
TORSDOF 6
ENDMDL
MODEL 8
REMARK VINA RESULT:      -7.6      2.893      9.714
REMARK  Name = 
REMARK  7 active torsions:
REMARK  status: ('A' for Active; 'I' for Inactive)
REMARK    1  A    between atoms: C_1  and  O_2
REMARK    2  A    between atoms: O_2  and  C_3
REMARK    3  A    between atoms: C_8  and  N_9
REMARK    4  A    between atoms: C_13  and  C_15
REMARK    5  A    between atoms: C_15  and  S_16
REMARK    6  A    between atoms: S_16  and  C_17
REMARK    7  A    between atoms: C_22  and  C_23
REMARK                            x       y       z     vdW  Elec       q    Type
REMARK                         _______ _______ _______ _____ _____    ______ ____
ROOT
ATOM      1  C   UNL     1       1.067  11.100  20.203  0.00  0.00    +0.000 C 
ENDROOT
BRANCH   1   6
ATOM      2  N   UNL     1       2.499   6.294  18.908  0.00  0.00    +0.000 N 
ATOM      3  C   UNL     1       3.191   7.234  18.008  0.00  0.00    +0.000 C 
ATOM      4  C   UNL     1       2.262   8.425  17.704  0.00  0.00    +0.000 C 
ATOM      5  N   UNL     1       1.771   9.074  18.929  0.00  0.00    +0.000 N 
ATOM      6  C   UNL     1       1.613  10.464  18.928  0.00  0.00    +0.000 C 
ATOM      7  O   UNL     1       1.981  11.144  17.968  0.00  0.00    +0.000 OA
ATOM      8  C   UNL     1       1.190   8.136  19.913  0.00  0.00    +0.000 C 
ATOM      9  C   UNL     1       2.097   6.911  20.184  0.00  0.00    +0.000 C 
BRANCH   2  15
ATOM     10  C   UNL     1       3.920   4.332  19.393  0.00  0.00    +0.000 A 
ATOM     11  C   UNL     1       4.060   2.934  19.450  0.00  0.00    +0.000 A 
ATOM     12  C   UNL     1       3.084   2.096  18.922  0.00  0.00    +0.000 A 
ATOM     13  C   UNL     1       1.959   2.652  18.328  0.00  0.00    +0.000 A 
ATOM     14  C   UNL     1       1.800   4.039  18.297  0.00  0.00    +0.000 A 
ATOM     15  C   UNL     1       2.750   4.924  18.845  0.00  0.00    +0.000 A 
BRANCH  10  17
ATOM     16  C   UNL     1       6.092   5.247  19.263  0.00  0.00    +0.000 C 
ATOM     17  O   UNL     1       4.860   5.158  19.975  0.00  0.00    +0.000 OA
ENDBRANCH  10  17
ENDBRANCH   2  15
ENDBRANCH   1   6
BRANCH   1  18
ATOM     18  S   UNL     1       0.749  12.903  20.044  0.00  0.00    +0.000 S 
BRANCH  18  19
ATOM     19  C   UNL     1      -0.651  13.064  21.166  0.00  0.00    +0.000 A 
ATOM     20  N   UNL     1      -0.329  13.656  22.351  0.00  0.00    +0.000 NA
ATOM     21  C   UNL     1      -1.297  13.846  23.270  0.00  0.00    +0.000 A 
ATOM     22  C   UNL     1      -2.603  13.477  23.074  0.00  0.00    +0.000 A 
ATOM     23  C   UNL     1      -2.926  12.867  21.868  0.00  0.00    +0.000 A 
ATOM     24  C   UNL     1      -1.955  12.639  20.869  0.00  0.00    +0.000 A 
BRANCH  24  25
ATOM     25  C   UNL     1      -2.436  11.950  19.660  0.00  0.00    +0.000 A 
ATOM     26  N   UNL     1      -1.782  10.960  19.069  0.00  0.00    +0.000 NA
ATOM     27  C   UNL     1      -2.414  10.729  17.878  0.00  0.00    +0.000 A 
ATOM     28  C   UNL     1      -2.079   9.833  16.851  0.00  0.00    +0.000 A 
ATOM     29  C   UNL     1      -2.848   9.840  15.683  0.00  0.00    +0.000 A 
ATOM     30  C   UNL     1      -3.927  10.715  15.547  0.00  0.00    +0.000 A 
ATOM     31  C   UNL     1      -4.293  11.593  16.579  0.00  0.00    +0.000 A 
ATOM     32  C   UNL     1      -3.509  11.565  17.735  0.00  0.00    +0.000 A 
ATOM     33  N   UNL     1      -3.558  12.261  18.920  0.00  0.00    +0.000 N 
ATOM     34  H   UNL     1      -4.259  12.941  19.183  0.00  0.00    +0.000 HD
ENDBRANCH  24  25
ENDBRANCH  18  19
ENDBRANCH   1  18
TORSDOF 6
ENDMDL
MODEL 9
REMARK VINA RESULT:      -7.6      3.056     10.340
REMARK  Name = 
REMARK  7 active torsions:
REMARK  status: ('A' for Active; 'I' for Inactive)
REMARK    1  A    between atoms: C_1  and  O_2
REMARK    2  A    between atoms: O_2  and  C_3
REMARK    3  A    between atoms: C_8  and  N_9
REMARK    4  A    between atoms: C_13  and  C_15
REMARK    5  A    between atoms: C_15  and  S_16
REMARK    6  A    between atoms: S_16  and  C_17
REMARK    7  A    between atoms: C_22  and  C_23
REMARK                            x       y       z     vdW  Elec       q    Type
REMARK                         _______ _______ _______ _____ _____    ______ ____
ROOT
ATOM      1  C   UNL     1       0.855  11.008  21.148  0.00  0.00    +0.000 C 
ENDROOT
BRANCH   1   6
ATOM      2  N   UNL     1       2.411   6.777  18.599  0.00  0.00    +0.000 N 
ATOM      3  C   UNL     1       2.698   7.949  17.754  0.00  0.00    +0.000 C 
ATOM      4  C   UNL     1       1.588   8.999  17.945  0.00  0.00    +0.000 C 
ATOM      5  N   UNL     1       1.397   9.356  19.359  0.00  0.00    +0.000 N 
ATOM      6  C   UNL     1       1.083  10.682  19.675  0.00  0.00    +0.000 C 
ATOM      7  O   UNL     1       1.076  11.557  18.806  0.00  0.00    +0.000 OA
ATOM      8  C   UNL     1       1.239   8.190  20.255  0.00  0.00    +0.000 C 
ATOM      9  C   UNL     1       2.323   7.108  20.031  0.00  0.00    +0.000 C 
BRANCH   2  15
ATOM     10  C   UNL     1       4.135   5.037  18.279  0.00  0.00    +0.000 A 
ATOM     11  C   UNL     1       4.453   3.691  18.020  0.00  0.00    +0.000 A 
ATOM     12  C   UNL     1       3.470   2.788  17.630  0.00  0.00    +0.000 A 
ATOM     13  C   UNL     1       2.160   3.226  17.490  0.00  0.00    +0.000 A 
ATOM     14  C   UNL     1       1.834   4.554  17.776  0.00  0.00    +0.000 A 
ATOM     15  C   UNL     1       2.793   5.495  18.202  0.00  0.00    +0.000 A 
BRANCH  10  17
ATOM     16  C   UNL     1       6.385   5.327  18.931  0.00  0.00    +0.000 C 
ATOM     17  O   UNL     1       5.102   5.914  18.728  0.00  0.00    +0.000 OA
ENDBRANCH  10  17
ENDBRANCH   2  15
ENDBRANCH   1   6
BRANCH   1  18
ATOM     18  S   UNL     1      -0.919  11.189  21.592  0.00  0.00    +0.000 S 
BRANCH  18  19
ATOM     19  C   UNL     1      -1.040  12.986  21.627  0.00  0.00    +0.000 A 
ATOM     20  N   UNL     1       0.056  13.592  22.166  0.00  0.00    +0.000 NA
ATOM     21  C   UNL     1       0.091  14.938  22.234  0.00  0.00    +0.000 A 
ATOM     22  C   UNL     1      -0.924  15.740  21.781  0.00  0.00    +0.000 A 
ATOM     23  C   UNL     1      -2.043  15.120  21.239  0.00  0.00    +0.000 A 
ATOM     24  C   UNL     1      -2.137  13.714  21.144  0.00  0.00    +0.000 A 
BRANCH  24  25
ATOM     25  C   UNL     1      -3.397  13.199  20.582  0.00  0.00    +0.000 A 
ATOM     26  N   UNL     1      -4.513  13.060  21.284  0.00  0.00    +0.000 NA
ATOM     27  C   UNL     1      -5.387  12.362  20.497  0.00  0.00    +0.000 A 
ATOM     28  C   UNL     1      -6.677  11.897  20.795  0.00  0.00    +0.000 A 
ATOM     29  C   UNL     1      -7.347  11.128  19.837  0.00  0.00    +0.000 A 
ATOM     30  C   UNL     1      -6.745  10.838  18.611  0.00  0.00    +0.000 A 
ATOM     31  C   UNL     1      -5.468  11.323  18.288  0.00  0.00    +0.000 A 
ATOM     32  C   UNL     1      -4.822  12.088  19.262  0.00  0.00    +0.000 A 
ATOM     33  N   UNL     1      -3.598  12.714  19.306  0.00  0.00    +0.000 N 
ATOM     34  H   UNL     1      -2.924  12.756  18.554  0.00  0.00    +0.000 HD
ENDBRANCH  24  25
ENDBRANCH  18  19
ENDBRANCH   1  18
TORSDOF 6
ENDMDL
