MODEL 1
REMARK VINA RESULT:      -7.0      0.000      0.000
REMARK  Name = 
REMARK  4 active torsions:
REMARK  status: ('A' for Active; 'I' for Inactive)
REMARK    1  A    between atoms: C_1  and  N_2
REMARK    2  A    between atoms: C_6  and  C_7
REMARK    3  A    between atoms: C_14  and  C_15
REMARK    4  A    between atoms: N_17  and  O_18
REMARK                            x       y       z     vdW  Elec       q    Type
REMARK                         _______ _______ _______ _____ _____    ______ ____
ROOT
ATOM      1  C   UNL     1       0.341   9.471  20.321  0.00  0.00    +0.000 C 
ATOM      2  O   UNL     1      -0.350   9.102  21.271  0.00  0.00    +0.000 OA
ATOM      3  N   UNL     1       1.346   8.641  19.812  0.00  0.00    +0.000 N 
ATOM      4  C   UNL     1       2.102   8.864  18.566  0.00  0.00    +0.000 C 
ATOM      5  C   UNL     1       2.312   7.609  17.702  0.00  0.00    +0.000 C 
ATOM      6  C   UNL     1       2.393   6.360  18.511  0.00  0.00    +0.000 A 
ATOM      7  C   UNL     1       2.604   5.039  18.019  0.00  0.00    +0.000 A 
ATOM      8  C   UNL     1       2.597   4.091  19.026  0.00  0.00    +0.000 A 
ATOM      9  S   UNL     1       2.343   4.821  20.559  0.00  0.00    +0.000 S 
ATOM     10  C   UNL     1       2.183   6.368  19.874  0.00  0.00    +0.000 A 
ATOM     11  C   UNL     1       1.854   7.577  20.693  0.00  0.00    +0.000 C 
ENDROOT
BRANCH   1  17
ATOM     12  C   UNL     1      -1.784  10.220  18.187  0.00  0.00    +0.000 C 
ATOM     13  N   UNL     1      -0.801  11.114  18.767  0.00  0.00    +0.000 N 
ATOM     14  C   UNL     1      -0.677  12.431  18.401  0.00  0.00    +0.000 A 
ATOM     15  C   UNL     1       0.308  13.000  19.168  0.00  0.00    +0.000 A 
ATOM     16  C   UNL     1       0.775  11.997  20.040  0.00  0.00    +0.000 A 
ATOM     17  C   UNL     1       0.152  10.792  19.723  0.00  0.00    +0.000 A 
ENDBRANCH   1  17
BRANCH   8  18
ATOM     18  C   UNL     1       2.765   2.656  18.863  0.00  0.00    +0.000 C 
ATOM     19  O   UNL     1       1.851   1.839  19.001  0.00  0.00    +0.000 OA
ATOM     20  N   UNL     1       4.031   2.223  18.546  0.00  0.00    +0.000 N 
ATOM     21  H   UNL     1       4.832   2.838  18.460  0.00  0.00    +0.000 HD
BRANCH  20  22
ATOM     22  O   UNL     1       4.243   0.834  18.419  0.00  0.00    +0.000 OA
ATOM     23  H   UNL     1       3.824   0.638  17.552  0.00  0.00    +0.000 HD
ENDBRANCH  20  22
ENDBRANCH   8  18
TORSDOF 3
ENDMDL
MODEL 2
REMARK VINA RESULT:      -6.8      0.899      1.489
REMARK  Name = 
REMARK  4 active torsions:
REMARK  status: ('A' for Active; 'I' for Inactive)
REMARK    1  A    between atoms: C_1  and  N_2
REMARK    2  A    between atoms: C_6  and  C_7
REMARK    3  A    between atoms: C_14  and  C_15
REMARK    4  A    between atoms: N_17  and  O_18
REMARK                            x       y       z     vdW  Elec       q    Type
REMARK                         _______ _______ _______ _____ _____    ______ ____
ROOT
ATOM      1  C   UNL     1       0.031   9.473  20.018  0.00  0.00    +0.000 C 
ATOM      2  O   UNL     1      -0.627   9.009  20.950  0.00  0.00    +0.000 OA
ATOM      3  N   UNL     1       1.187   8.820  19.574  0.00  0.00    +0.000 N 
ATOM      4  C   UNL     1       1.947   9.145  18.352  0.00  0.00    +0.000 C 
ATOM      5  C   UNL     1       2.409   7.928  17.533  0.00  0.00    +0.000 C 
ATOM      6  C   UNL     1       2.669   6.729  18.380  0.00  0.00    +0.000 A 
ATOM      7  C   UNL     1       3.126   5.456  17.934  0.00  0.00    +0.000 A 
ATOM      8  C   UNL     1       3.238   4.541  18.966  0.00  0.00    +0.000 A 
ATOM      9  S   UNL     1       2.794   5.247  20.467  0.00  0.00    +0.000 S 
ATOM     10  C   UNL     1       2.400   6.728  19.732  0.00  0.00    +0.000 A 
ATOM     11  C   UNL     1       1.831   7.879  20.504  0.00  0.00    +0.000 C 
ENDROOT
BRANCH   1  17
ATOM     12  C   UNL     1       1.184  12.282  20.660  0.00  0.00    +0.000 C 
ATOM     13  N   UNL     1       0.166  11.979  19.674  0.00  0.00    +0.000 N 
ATOM     14  C   UNL     1      -0.445  12.941  18.907  0.00  0.00    +0.000 A 
ATOM     15  C   UNL     1      -1.317  12.318  18.050  0.00  0.00    +0.000 A 
ATOM     16  C   UNL     1      -1.209  10.934  18.294  0.00  0.00    +0.000 A 
ATOM     17  C   UNL     1      -0.356  10.728  19.376  0.00  0.00    +0.000 A 
ENDBRANCH   1  17
BRANCH   8  18
ATOM     18  C   UNL     1       3.659   3.154  18.851  0.00  0.00    +0.000 C 
ATOM     19  O   UNL     1       3.196   2.364  18.025  0.00  0.00    +0.000 OA
ATOM     20  N   UNL     1       4.625   2.735  19.736  0.00  0.00    +0.000 N 
ATOM     21  H   UNL     1       5.015   3.322  20.464  0.00  0.00    +0.000 HD
BRANCH  20  22
ATOM     22  O   UNL     1       5.030   1.385  19.681  0.00  0.00    +0.000 OA
ATOM     23  H   UNL     1       5.725   1.404  18.986  0.00  0.00    +0.000 HD
ENDBRANCH  20  22
ENDBRANCH   8  18
TORSDOF 3
ENDMDL
MODEL 3
REMARK VINA RESULT:      -6.6      3.023      7.600
REMARK  Name = 
REMARK  4 active torsions:
REMARK  status: ('A' for Active; 'I' for Inactive)
REMARK    1  A    between atoms: C_1  and  N_2
REMARK    2  A    between atoms: C_6  and  C_7
REMARK    3  A    between atoms: C_14  and  C_15
REMARK    4  A    between atoms: N_17  and  O_18
REMARK                            x       y       z     vdW  Elec       q    Type
REMARK                         _______ _______ _______ _____ _____    ______ ____
ROOT
ATOM      1  C   UNL     1       4.545   5.607  18.722  0.00  0.00    +0.000 C 
ATOM      2  O   UNL     1       4.986   5.251  19.815  0.00  0.00    +0.000 OA
ATOM      3  N   UNL     1       3.384   6.385  18.648  0.00  0.00    +0.000 N 
ATOM      4  C   UNL     1       2.864   7.047  17.437  0.00  0.00    +0.000 C 
ATOM      5  C   UNL     1       2.353   8.483  17.652  0.00  0.00    +0.000 C 
ATOM      6  C   UNL     1       1.801   8.698  19.020  0.00  0.00    +0.000 A 
ATOM      7  C   UNL     1       1.232   9.902  19.527  0.00  0.00    +0.000 A 
ATOM      8  C   UNL     1       0.840   9.787  20.849  0.00  0.00    +0.000 A 
ATOM      9  S   UNL     1       1.160   8.211  21.452  0.00  0.00    +0.000 S 
ATOM     10  C   UNL     1       1.868   7.719  19.988  0.00  0.00    +0.000 A 
ATOM     11  C   UNL     1       2.481   6.364  19.810  0.00  0.00    +0.000 C 
ENDROOT
BRANCH   1  17
ATOM     12  C   UNL     1       7.051   6.940  17.466  0.00  0.00    +0.000 C 
ATOM     13  N   UNL     1       6.320   5.810  16.926  0.00  0.00    +0.000 N 
ATOM     14  C   UNL     1       6.649   5.202  15.740  0.00  0.00    +0.000 A 
ATOM     15  C   UNL     1       5.794   4.146  15.546  0.00  0.00    +0.000 A 
ATOM     16  C   UNL     1       4.938   4.106  16.664  0.00  0.00    +0.000 A 
ATOM     17  C   UNL     1       5.200   5.204  17.480  0.00  0.00    +0.000 A 
ENDBRANCH   1  17
BRANCH   8  18
ATOM     18  C   UNL     1       0.243  10.829  21.668  0.00  0.00    +0.000 C 
ATOM     19  O   UNL     1       0.529  12.024  21.572  0.00  0.00    +0.000 OA
ATOM     20  N   UNL     1      -0.686  10.417  22.596  0.00  0.00    +0.000 N 
ATOM     21  H   UNL     1      -0.934   9.448  22.752  0.00  0.00    +0.000 HD
BRANCH  20  22
ATOM     22  O   UNL     1      -1.258  11.395  23.436  0.00  0.00    +0.000 OA
ATOM     23  H   UNL     1      -0.993  12.231  22.994  0.00  0.00    +0.000 HD
ENDBRANCH  20  22
ENDBRANCH   8  18
TORSDOF 3
ENDMDL
MODEL 4
REMARK VINA RESULT:      -6.5      1.052      1.148
REMARK  Name = 
REMARK  4 active torsions:
REMARK  status: ('A' for Active; 'I' for Inactive)
REMARK    1  A    between atoms: C_1  and  N_2
REMARK    2  A    between atoms: C_6  and  C_7
REMARK    3  A    between atoms: C_14  and  C_15
REMARK    4  A    between atoms: N_17  and  O_18
REMARK                            x       y       z     vdW  Elec       q    Type
REMARK                         _______ _______ _______ _____ _____    ______ ____
ROOT
ATOM      1  C   UNL     1      -0.068   9.431  20.652  0.00  0.00    +0.000 C 
ATOM      2  O   UNL     1      -0.685   8.783  21.497  0.00  0.00    +0.000 OA
ATOM      3  N   UNL     1       1.069   8.892  20.038  0.00  0.00    +0.000 N 
ATOM      4  C   UNL     1       1.777   9.463  18.876  0.00  0.00    +0.000 C 
ATOM      5  C   UNL     1       2.205   8.438  17.812  0.00  0.00    +0.000 C 
ATOM      6  C   UNL     1       2.503   7.097  18.390  0.00  0.00    +0.000 A 
ATOM      7  C   UNL     1       2.944   5.943  17.680  0.00  0.00    +0.000 A 
ATOM      8  C   UNL     1       3.101   4.842  18.502  0.00  0.00    +0.000 A 
ATOM      9  S   UNL     1       2.720   5.229  20.131  0.00  0.00    +0.000 S 
ATOM     10  C   UNL     1       2.293   6.823  19.725  0.00  0.00    +0.000 A 
ATOM     11  C   UNL     1       1.754   7.790  20.733  0.00  0.00    +0.000 C 
ENDROOT
BRANCH   1  17
ATOM     12  C   UNL     1      -1.895  10.201  18.265  0.00  0.00    +0.000 C 
ATOM     13  N   UNL     1      -1.300  11.116  19.218  0.00  0.00    +0.000 N 
ATOM     14  C   UNL     1      -1.461  12.478  19.151  0.00  0.00    +0.000 A 
ATOM     15  C   UNL     1      -0.814  13.042  20.221  0.00  0.00    +0.000 A 
ATOM     16  C   UNL     1      -0.265  11.981  20.969  0.00  0.00    +0.000 A 
ATOM     17  C   UNL     1      -0.484  10.784  20.290  0.00  0.00    +0.000 A 
ENDBRANCH   1  17
BRANCH   8  18
ATOM     18  C   UNL     1       3.519   3.511  18.094  0.00  0.00    +0.000 C 
ATOM     19  O   UNL     1       4.292   3.292  17.159  0.00  0.00    +0.000 OA
ATOM     20  N   UNL     1       2.996   2.461  18.813  0.00  0.00    +0.000 N 
ATOM     21  H   UNL     1       2.325   2.572  19.564  0.00  0.00    +0.000 HD
BRANCH  20  22
ATOM     22  O   UNL     1       3.347   1.152  18.422  0.00  0.00    +0.000 OA
ATOM     23  H   UNL     1       2.810   0.601  19.033  0.00  0.00    +0.000 HD
ENDBRANCH  20  22
ENDBRANCH   8  18
TORSDOF 3
ENDMDL
MODEL 5
REMARK VINA RESULT:      -6.5      2.753      7.561
REMARK  Name = 
REMARK  4 active torsions:
REMARK  status: ('A' for Active; 'I' for Inactive)
REMARK    1  A    between atoms: C_1  and  N_2
REMARK    2  A    between atoms: C_6  and  C_7
REMARK    3  A    between atoms: C_14  and  C_15
REMARK    4  A    between atoms: N_17  and  O_18
REMARK                            x       y       z     vdW  Elec       q    Type
REMARK                         _______ _______ _______ _____ _____    ______ ____
ROOT
ATOM      1  C   UNL     1       4.201   5.909  18.702  0.00  0.00    +0.000 C 
ATOM      2  O   UNL     1       4.727   5.594  19.770  0.00  0.00    +0.000 OA
ATOM      3  N   UNL     1       3.040   6.691  18.689  0.00  0.00    +0.000 N 
ATOM      4  C   UNL     1       2.427   7.308  17.498  0.00  0.00    +0.000 C 
ATOM      5  C   UNL     1       1.941   8.754  17.695  0.00  0.00    +0.000 C 
ATOM      6  C   UNL     1       1.501   9.028  19.092  0.00  0.00    +0.000 A 
ATOM      7  C   UNL     1       0.979  10.255  19.594  0.00  0.00    +0.000 A 
ATOM      8  C   UNL     1       0.693  10.196  20.947  0.00  0.00    +0.000 A 
ATOM      9  S   UNL     1       1.055   8.644  21.586  0.00  0.00    +0.000 S 
ATOM     10  C   UNL     1       1.641   8.088  20.091  0.00  0.00    +0.000 A 
ATOM     11  C   UNL     1       2.233   6.723  19.919  0.00  0.00    +0.000 C 
ENDROOT
BRANCH   1  17
ATOM     12  C   UNL     1       3.796   3.102  17.441  0.00  0.00    +0.000 C 
ATOM     13  N   UNL     1       4.566   4.193  16.875  0.00  0.00    +0.000 N 
ATOM     14  C   UNL     1       5.252   4.090  15.690  0.00  0.00    +0.000 A 
ATOM     15  C   UNL     1       5.830   5.305  15.421  0.00  0.00    +0.000 A 
ATOM     16  C   UNL     1       5.461   6.172  16.468  0.00  0.00    +0.000 A 
ATOM     17  C   UNL     1       4.753   5.452  17.428  0.00  0.00    +0.000 A 
ENDBRANCH   1  17
BRANCH   8  18
ATOM     18  C   UNL     1       0.167  11.274  21.768  0.00  0.00    +0.000 C 
ATOM     19  O   UNL     1       0.563  12.440  21.703  0.00  0.00    +0.000 OA
ATOM     20  N   UNL     1      -0.822  10.933  22.660  0.00  0.00    +0.000 N 
ATOM     21  H   UNL     1      -1.161   9.987  22.791  0.00  0.00    +0.000 HD
BRANCH  20  22
ATOM     22  O   UNL     1      -1.330  11.944  23.503  0.00  0.00    +0.000 OA
ATOM     23  H   UNL     1      -0.826  11.796  24.333  0.00  0.00    +0.000 HD
ENDBRANCH  20  22
ENDBRANCH   8  18
TORSDOF 3
ENDMDL
MODEL 6
REMARK VINA RESULT:      -6.4      1.971      2.464
REMARK  Name = 
REMARK  4 active torsions:
REMARK  status: ('A' for Active; 'I' for Inactive)
REMARK    1  A    between atoms: C_1  and  N_2
REMARK    2  A    between atoms: C_6  and  C_7
REMARK    3  A    between atoms: C_14  and  C_15
REMARK    4  A    between atoms: N_17  and  O_18
REMARK                            x       y       z     vdW  Elec       q    Type
REMARK                         _______ _______ _______ _____ _____    ______ ____
ROOT
ATOM      1  C   UNL     1       1.609  10.946  18.715  0.00  0.00    +0.000 C 
ATOM      2  O   UNL     1       2.436  11.346  17.895  0.00  0.00    +0.000 OA
ATOM      3  N   UNL     1       1.465   9.576  18.966  0.00  0.00    +0.000 N 
ATOM      4  C   UNL     1       0.671   8.976  20.054  0.00  0.00    +0.000 C 
ATOM      5  C   UNL     1       1.351   7.801  20.779  0.00  0.00    +0.000 C 
ATOM      6  C   UNL     1       2.264   7.027  19.891  0.00  0.00    +0.000 A 
ATOM      7  C   UNL     1       3.022   5.875  20.248  0.00  0.00    +0.000 A 
ATOM      8  C   UNL     1       3.799   5.407  19.204  0.00  0.00    +0.000 A 
ATOM      9  S   UNL     1       3.588   6.371  17.798  0.00  0.00    +0.000 S 
ATOM     10  C   UNL     1       2.526   7.428  18.599  0.00  0.00    +0.000 A 
ATOM     11  C   UNL     1       1.958   8.646  17.937  0.00  0.00    +0.000 C 
ENDROOT
BRANCH   1  17
ATOM     12  C   UNL     1      -1.359  11.546  18.032  0.00  0.00    +0.000 C 
ATOM     13  N   UNL     1      -0.589  12.144  19.105  0.00  0.00    +0.000 N 
ATOM     14  C   UNL     1      -1.097  13.100  19.950  0.00  0.00    +0.000 A 
ATOM     15  C   UNL     1      -0.132  13.417  20.872  0.00  0.00    +0.000 A 
ATOM     16  C   UNL     1       0.986  12.607  20.585  0.00  0.00    +0.000 A 
ATOM     17  C   UNL     1       0.737  11.883  19.421  0.00  0.00    +0.000 A 
ENDBRANCH   1  17
BRANCH   8  18
ATOM     18  C   UNL     1       4.699   4.266  19.238  0.00  0.00    +0.000 C 
ATOM     19  O   UNL     1       5.886   4.319  18.908  0.00  0.00    +0.000 OA
ATOM     20  N   UNL     1       4.156   3.075  19.663  0.00  0.00    +0.000 N 
ATOM     21  H   UNL     1       3.181   2.956  19.908  0.00  0.00    +0.000 HD
BRANCH  20  22
ATOM     22  O   UNL     1       4.988   1.936  19.672  0.00  0.00    +0.000 OA
ATOM     23  H   UNL     1       5.479   2.043  20.517  0.00  0.00    +0.000 HD
ENDBRANCH  20  22
ENDBRANCH   8  18
TORSDOF 3
ENDMDL
MODEL 7
REMARK VINA RESULT:      -6.2      1.222      1.815
REMARK  Name = 
REMARK  4 active torsions:
REMARK  status: ('A' for Active; 'I' for Inactive)
REMARK    1  A    between atoms: C_1  and  N_2
REMARK    2  A    between atoms: C_6  and  C_7
REMARK    3  A    between atoms: C_14  and  C_15
REMARK    4  A    between atoms: N_17  and  O_18
REMARK                            x       y       z     vdW  Elec       q    Type
REMARK                         _______ _______ _______ _____ _____    ______ ____
ROOT
ATOM      1  C   UNL     1       0.103  10.261  20.073  0.00  0.00    +0.000 C 
ATOM      2  O   UNL     1      -0.659   9.889  20.966  0.00  0.00    +0.000 OA
ATOM      3  N   UNL     1       1.160   9.441  19.659  0.00  0.00    +0.000 N 
ATOM      4  C   UNL     1       2.015   9.664  18.478  0.00  0.00    +0.000 C 
ATOM      5  C   UNL     1       2.314   8.403  17.648  0.00  0.00    +0.000 C 
ATOM      6  C   UNL     1       2.344   7.164  18.474  0.00  0.00    +0.000 A 
ATOM      7  C   UNL     1       2.614   5.842  18.015  0.00  0.00    +0.000 A 
ATOM      8  C   UNL     1       2.535   4.902  19.027  0.00  0.00    +0.000 A 
ATOM      9  S   UNL     1       2.143   5.642  20.527  0.00  0.00    +0.000 S 
ATOM     10  C   UNL     1       2.020   7.180  19.814  0.00  0.00    +0.000 A 
ATOM     11  C   UNL     1       1.607   8.392  20.591  0.00  0.00    +0.000 C 
ENDROOT
BRANCH   1  17
ATOM     12  C   UNL     1       1.793  12.789  20.692  0.00  0.00    +0.000 C 
ATOM     13  N   UNL     1       0.708  12.697  19.735  0.00  0.00    +0.000 N 
ATOM     14  C   UNL     1       0.273  13.765  18.991  0.00  0.00    +0.000 A 
ATOM     15  C   UNL     1      -0.726  13.330  18.157  0.00  0.00    +0.000 A 
ATOM     16  C   UNL     1      -0.880  11.949  18.392  0.00  0.00    +0.000 A 
ATOM     17  C   UNL     1      -0.053  11.572  19.448  0.00  0.00    +0.000 A 
ENDBRANCH   1  17
BRANCH   8  18
ATOM     18  C   UNL     1       2.737   3.468  18.895  0.00  0.00    +0.000 C 
ATOM     19  O   UNL     1       3.838   2.945  18.714  0.00  0.00    +0.000 OA
ATOM     20  N   UNL     1       1.608   2.685  18.975  0.00  0.00    +0.000 N 
ATOM     21  H   UNL     1       0.672   3.056  19.080  0.00  0.00    +0.000 HD
BRANCH  20  22
ATOM     22  O   UNL     1       1.758   1.292  18.811  0.00  0.00    +0.000 OA
ATOM     23  H   UNL     1       2.729   1.200  18.687  0.00  0.00    +0.000 HD
ENDBRANCH  20  22
ENDBRANCH   8  18
TORSDOF 3
ENDMDL
MODEL 8
REMARK VINA RESULT:      -6.2      1.553      1.677
REMARK  Name = 
REMARK  4 active torsions:
REMARK  status: ('A' for Active; 'I' for Inactive)
REMARK    1  A    between atoms: C_1  and  N_2
REMARK    2  A    between atoms: C_6  and  C_7
REMARK    3  A    between atoms: C_14  and  C_15
REMARK    4  A    between atoms: N_17  and  O_18
REMARK                            x       y       z     vdW  Elec       q    Type
REMARK                         _______ _______ _______ _____ _____    ______ ____
ROOT
ATOM      1  C   UNL     1      -0.175   9.353  20.673  0.00  0.00    +0.000 C 
ATOM      2  O   UNL     1      -0.745   8.557  21.420  0.00  0.00    +0.000 OA
ATOM      3  N   UNL     1       1.026   9.000  20.047  0.00  0.00    +0.000 N 
ATOM      4  C   UNL     1       1.701   9.763  18.981  0.00  0.00    +0.000 C 
ATOM      5  C   UNL     1       2.259   8.912  17.827  0.00  0.00    +0.000 C 
ATOM      6  C   UNL     1       2.676   7.550  18.267  0.00  0.00    +0.000 A 
ATOM      7  C   UNL     1       3.249   6.532  17.451  0.00  0.00    +0.000 A 
ATOM      8  C   UNL     1       3.496   5.366  18.154  0.00  0.00    +0.000 A 
ATOM      9  S   UNL     1       3.036   5.529  19.800  0.00  0.00    +0.000 S 
ATOM     10  C   UNL     1       2.460   7.109  19.555  0.00  0.00    +0.000 A 
ATOM     11  C   UNL     1       1.801   7.899  20.642  0.00  0.00    +0.000 C 
ENDROOT
BRANCH   1  17
ATOM     12  C   UNL     1      -1.868  10.245  18.230  0.00  0.00    +0.000 C 
ATOM     13  N   UNL     1      -1.471  11.079  19.348  0.00  0.00    +0.000 N 
ATOM     14  C   UNL     1      -1.786  12.412  19.438  0.00  0.00    +0.000 A 
ATOM     15  C   UNL     1      -1.306  12.889  20.631  0.00  0.00    +0.000 A 
ATOM     16  C   UNL     1      -0.701  11.800  21.290  0.00  0.00    +0.000 A 
ATOM     17  C   UNL     1      -0.717  10.691  20.446  0.00  0.00    +0.000 A 
ENDBRANCH   1  17
BRANCH   8  18
ATOM     18  C   UNL     1       4.057   4.136  17.619  0.00  0.00    +0.000 C 
ATOM     19  O   UNL     1       3.663   3.010  17.933  0.00  0.00    +0.000 OA
ATOM     20  N   UNL     1       5.088   4.277  16.720  0.00  0.00    +0.000 N 
ATOM     21  H   UNL     1       5.484   5.170  16.452  0.00  0.00    +0.000 HD
BRANCH  20  22
ATOM     22  O   UNL     1       5.685   3.105  16.209  0.00  0.00    +0.000 OA
ATOM     23  H   UNL     1       5.201   2.976  15.364  0.00  0.00    +0.000 HD
ENDBRANCH  20  22
ENDBRANCH   8  18
TORSDOF 3
ENDMDL
MODEL 9
REMARK VINA RESULT:      -6.2      2.313      3.255
REMARK  Name = 
REMARK  4 active torsions:
REMARK  status: ('A' for Active; 'I' for Inactive)
REMARK    1  A    between atoms: C_1  and  N_2
REMARK    2  A    between atoms: C_6  and  C_7
REMARK    3  A    between atoms: C_14  and  C_15
REMARK    4  A    between atoms: N_17  and  O_18
REMARK                            x       y       z     vdW  Elec       q    Type
REMARK                         _______ _______ _______ _____ _____    ______ ____
ROOT
ATOM      1  C   UNL     1       1.811  11.895  18.544  0.00  0.00    +0.000 C 
ATOM      2  O   UNL     1       2.769  12.104  17.799  0.00  0.00    +0.000 OA
ATOM      3  N   UNL     1       1.408  10.585  18.829  0.00  0.00    +0.000 N 
ATOM      4  C   UNL     1       0.422  10.188  19.852  0.00  0.00    +0.000 C 
ATOM      5  C   UNL     1       0.815   8.956  20.686  0.00  0.00    +0.000 C 
ATOM      6  C   UNL     1       1.659   7.992  19.926  0.00  0.00    +0.000 A 
ATOM      7  C   UNL     1       2.169   6.748  20.401  0.00  0.00    +0.000 A 
ATOM      8  C   UNL     1       2.948   6.100  19.460  0.00  0.00    +0.000 A 
ATOM      9  S   UNL     1       3.041   7.007  18.005  0.00  0.00    +0.000 S 
ATOM     10  C   UNL     1       2.108   8.272  18.653  0.00  0.00    +0.000 A 
ATOM     11  C   UNL     1       1.826   9.531  17.892  0.00  0.00    +0.000 C 
ENDROOT
BRANCH   1  17
ATOM     12  C   UNL     1       2.696  13.657  20.941  0.00  0.00    +0.000 C 
ATOM     13  N   UNL     1       1.458  13.783  20.196  0.00  0.00    +0.000 N 
ATOM     14  C   UNL     1       0.492  14.710  20.499  0.00  0.00    +0.000 A 
ATOM     15  C   UNL     1      -0.519  14.594  19.579  0.00  0.00    +0.000 A 
ATOM     16  C   UNL     1      -0.137  13.578  18.680  0.00  0.00    +0.000 A 
ATOM     17  C   UNL     1       1.053  13.003  19.122  0.00  0.00    +0.000 A 
ENDBRANCH   1  17
BRANCH   8  18
ATOM     18  C   UNL     1       3.628   4.826  19.629  0.00  0.00    +0.000 C 
ATOM     19  O   UNL     1       3.147   3.869  20.240  0.00  0.00    +0.000 OA
ATOM     20  N   UNL     1       4.879   4.724  19.066  0.00  0.00    +0.000 N 
ATOM     21  H   UNL     1       5.346   5.486  18.589  0.00  0.00    +0.000 HD
BRANCH  20  22
ATOM     22  O   UNL     1       5.587   3.517  19.243  0.00  0.00    +0.000 OA
ATOM     23  H   UNL     1       5.097   2.900  18.655  0.00  0.00    +0.000 HD
ENDBRANCH  20  22
ENDBRANCH   8  18
TORSDOF 3
ENDMDL
