MODEL 1
REMARK VINA RESULT:      -7.5      0.000      0.000
REMARK  Name = 
REMARK  5 active torsions:
REMARK  status: ('A' for Active; 'I' for Inactive)
REMARK    1  A    between atoms: C_1  and  C_2
REMARK    2  A    between atoms: C_2  and  N_3
REMARK    3  A    between atoms: C_2  and  C_22
REMARK    4  A    between atoms: C_7  and  C_8
REMARK    5  A    between atoms: C_10  and  N_11
REMARK                            x       y       z     vdW  Elec       q    Type
REMARK                         _______ _______ _______ _____ _____    ______ ____
ROOT
ATOM      1  N   UNL     1       0.932   7.156  21.136  0.00  0.00    +0.000 N 
ATOM      2  C   UNL     1       1.788   6.134  20.724  0.00  0.00    +0.000 A 
ATOM      3  N   UNL     1       1.488   4.918  21.203  0.00  0.00    +0.000 NA
ATOM      4  C   UNL     1       2.204   3.877  20.748  0.00  0.00    +0.000 A 
ATOM      5  C   UNL     1       3.211   3.986  19.828  0.00  0.00    +0.000 A 
ATOM      6  C   UNL     1       3.496   5.271  19.369  0.00  0.00    +0.000 A 
ATOM      7  N   UNL     1       2.767   6.336  19.817  0.00  0.00    +0.000 NA
ATOM      8  H   UNL     1       0.087   7.064  20.582  0.00  0.00    +0.000 HD
ENDROOT
BRANCH   6   9
ATOM      9  N   UNL     1       4.500   5.502  18.433  0.00  0.00    +0.000 N 
ATOM     10  C   UNL     1       5.911   5.348  18.811  0.00  0.00    +0.000 C 
ATOM     11  C   UNL     1       6.837   6.009  17.773  0.00  0.00    +0.000 C 
ATOM     12  C   UNL     1       6.564   5.401  16.424  0.00  0.00    +0.000 A 
ATOM     13  C   UNL     1       7.585   5.046  15.542  0.00  0.00    +0.000 A 
ATOM     14  C   UNL     1       7.271   4.432  14.330  0.00  0.00    +0.000 A 
ATOM     15  C   UNL     1       5.939   4.190  13.991  0.00  0.00    +0.000 A 
ATOM     16  C   UNL     1       4.913   4.572  14.855  0.00  0.00    +0.000 A 
ATOM     17  C   UNL     1       5.222   5.172  16.080  0.00  0.00    +0.000 A 
ATOM     18  C   UNL     1       4.144   5.654  17.015  0.00  0.00    +0.000 C 
ENDBRANCH   6   9
BRANCH   1  20
ATOM     19  C   UNL     1       1.205   9.151  22.552  0.00  0.00    +0.000 C 
ATOM     20  C   UNL     1       1.462   8.522  21.162  0.00  0.00    +0.000 C 
BRANCH  20  21
ATOM     21  C   UNL     1       0.747   9.425  20.158  0.00  0.00    +0.000 A 
ATOM     22  C   UNL     1      -0.339  10.218  20.551  0.00  0.00    +0.000 A 
ATOM     23  C   UNL     1      -1.142  10.836  19.589  0.00  0.00    +0.000 A 
ATOM     24  C   UNL     1      -0.847  10.702  18.232  0.00  0.00    +0.000 A 
ATOM     25  C   UNL     1       0.261   9.965  17.831  0.00  0.00    +0.000 A 
ATOM     26  C   UNL     1       1.054   9.337  18.786  0.00  0.00    +0.000 A 
ENDBRANCH  20  21
ENDBRANCH   1  20
BRANCH   5  27
ATOM     27  C   UNL     1       3.850   2.781  19.386  0.00  0.00    +0.000 C 
ATOM     28  N   UNL     1       4.352   1.833  18.966  0.00  0.00    +0.000 NA
ENDBRANCH   5  27
TORSDOF 4
ENDMDL
MODEL 2
REMARK VINA RESULT:      -7.2      1.459      7.765
REMARK  Name = 
REMARK  5 active torsions:
REMARK  status: ('A' for Active; 'I' for Inactive)
REMARK    1  A    between atoms: C_1  and  C_2
REMARK    2  A    between atoms: C_2  and  N_3
REMARK    3  A    between atoms: C_2  and  C_22
REMARK    4  A    between atoms: C_7  and  C_8
REMARK    5  A    between atoms: C_10  and  N_11
REMARK                            x       y       z     vdW  Elec       q    Type
REMARK                         _______ _______ _______ _____ _____    ______ ____
ROOT
ATOM      1  N   UNL     1       6.139   4.160  16.645  0.00  0.00    +0.000 N 
ATOM      2  C   UNL     1       4.925   4.307  17.317  0.00  0.00    +0.000 A 
ATOM      3  N   UNL     1       4.367   3.161  17.732  0.00  0.00    +0.000 NA
ATOM      4  C   UNL     1       3.260   3.247  18.487  0.00  0.00    +0.000 A 
ATOM      5  C   UNL     1       2.677   4.429  18.856  0.00  0.00    +0.000 A 
ATOM      6  C   UNL     1       3.284   5.593  18.390  0.00  0.00    +0.000 A 
ATOM      7  N   UNL     1       4.417   5.518  17.630  0.00  0.00    +0.000 NA
ATOM      8  H   UNL     1       6.843   3.988  17.355  0.00  0.00    +0.000 HD
ENDROOT
BRANCH   6   9
ATOM      9  N   UNL     1       2.778   6.852  18.701  0.00  0.00    +0.000 N 
ATOM     10  C   UNL     1       2.177   7.686  17.652  0.00  0.00    +0.000 C 
ATOM     11  C   UNL     1       2.040   9.148  18.118  0.00  0.00    +0.000 C 
ATOM     12  C   UNL     1       1.216   9.178  19.378  0.00  0.00    +0.000 A 
ATOM     13  C   UNL     1       0.217  10.128  19.596  0.00  0.00    +0.000 A 
ATOM     14  C   UNL     1      -0.551  10.068  20.757  0.00  0.00    +0.000 A 
ATOM     15  C   UNL     1      -0.312   9.074  21.707  0.00  0.00    +0.000 A 
ATOM     16  C   UNL     1       0.707   8.143  21.509  0.00  0.00    +0.000 A 
ATOM     17  C   UNL     1       1.471   8.186  20.338  0.00  0.00    +0.000 A 
ATOM     18  C   UNL     1       2.618   7.237  20.110  0.00  0.00    +0.000 C 
ENDBRANCH   6   9
BRANCH   1  20
ATOM     19  C   UNL     1       5.366   6.224  15.547  0.00  0.00    +0.000 C 
ATOM     20  C   UNL     1       6.522   5.205  15.690  0.00  0.00    +0.000 C 
BRANCH  20  21
ATOM     21  C   UNL     1       6.751   4.636  14.291  0.00  0.00    +0.000 A 
ATOM     22  C   UNL     1       7.703   5.202  13.433  0.00  0.00    +0.000 A 
ATOM     23  C   UNL     1       7.729   4.847  12.081  0.00  0.00    +0.000 A 
ATOM     24  C   UNL     1       6.834   3.900  11.583  0.00  0.00    +0.000 A 
ATOM     25  C   UNL     1       5.922   3.290  12.436  0.00  0.00    +0.000 A 
ATOM     26  C   UNL     1       5.886   3.650  13.780  0.00  0.00    +0.000 A 
ENDBRANCH  20  21
ENDBRANCH   1  20
BRANCH   5  27
ATOM     27  C   UNL     1       1.532   4.373  19.717  0.00  0.00    +0.000 C 
ATOM     28  N   UNL     1       0.604   4.261  20.393  0.00  0.00    +0.000 NA
ENDBRANCH   5  27
TORSDOF 4
ENDMDL
MODEL 3
REMARK VINA RESULT:      -7.1      4.955     11.216
REMARK  Name = 
REMARK  5 active torsions:
REMARK  status: ('A' for Active; 'I' for Inactive)
REMARK    1  A    between atoms: C_1  and  C_2
REMARK    2  A    between atoms: C_2  and  N_3
REMARK    3  A    between atoms: C_2  and  C_22
REMARK    4  A    between atoms: C_7  and  C_8
REMARK    5  A    between atoms: C_10  and  N_11
REMARK                            x       y       z     vdW  Elec       q    Type
REMARK                         _______ _______ _______ _____ _____    ______ ____
ROOT
ATOM      1  N   UNL     1      -0.956  10.203  17.682  0.00  0.00    +0.000 N 
ATOM      2  C   UNL     1      -2.174  10.882  17.626  0.00  0.00    +0.000 A 
ATOM      3  N   UNL     1      -2.718  10.965  16.403  0.00  0.00    +0.000 NA
ATOM      4  C   UNL     1      -3.944  11.504  16.304  0.00  0.00    +0.000 A 
ATOM      5  C   UNL     1      -4.665  11.964  17.373  0.00  0.00    +0.000 A 
ATOM      6  C   UNL     1      -4.053  11.870  18.622  0.00  0.00    +0.000 A 
ATOM      7  N   UNL     1      -2.810  11.314  18.735  0.00  0.00    +0.000 NA
ATOM      8  H   UNL     1      -1.176   9.214  17.632  0.00  0.00    +0.000 HD
ENDROOT
BRANCH   6   9
ATOM      9  N   UNL     1      -4.691  12.308  19.779  0.00  0.00    +0.000 N 
ATOM     10  C   UNL     1      -6.041  11.830  20.104  0.00  0.00    +0.000 C 
ATOM     11  C   UNL     1      -6.693  12.711  21.186  0.00  0.00    +0.000 C 
ATOM     12  C   UNL     1      -5.809  12.716  22.404  0.00  0.00    +0.000 A 
ATOM     13  C   UNL     1      -6.316  12.597  23.698  0.00  0.00    +0.000 A 
ATOM     14  C   UNL     1      -5.441  12.550  24.782  0.00  0.00    +0.000 A 
ATOM     15  C   UNL     1      -4.064  12.639  24.577  0.00  0.00    +0.000 A 
ATOM     16  C   UNL     1      -3.554  12.791  23.288  0.00  0.00    +0.000 A 
ATOM     17  C   UNL     1      -4.424  12.822  22.194  0.00  0.00    +0.000 A 
ATOM     18  C   UNL     1      -3.921  13.044  20.792  0.00  0.00    +0.000 C 
ENDBRANCH   6   9
BRANCH   1  20
ATOM     19  C   UNL     1       0.756  11.815  18.411  0.00  0.00    +0.000 C 
ATOM     20  C   UNL     1      -0.037  10.537  18.775  0.00  0.00    +0.000 C 
BRANCH  20  21
ATOM     21  C   UNL     1       1.008   9.444  18.988  0.00  0.00    +0.000 A 
ATOM     22  C   UNL     1       1.764   8.954  17.914  0.00  0.00    +0.000 A 
ATOM     23  C   UNL     1       2.525   7.791  18.063  0.00  0.00    +0.000 A 
ATOM     24  C   UNL     1       2.570   7.131  19.290  0.00  0.00    +0.000 A 
ATOM     25  C   UNL     1       1.870   7.637  20.379  0.00  0.00    +0.000 A 
ATOM     26  C   UNL     1       1.101   8.788  20.230  0.00  0.00    +0.000 A 
ENDBRANCH  20  21
ENDBRANCH   1  20
BRANCH   5  27
ATOM     27  C   UNL     1      -5.988  12.458  17.127  0.00  0.00    +0.000 C 
ATOM     28  N   UNL     1      -7.034  12.866  16.866  0.00  0.00    +0.000 NA
ENDBRANCH   5  27
TORSDOF 4
ENDMDL
MODEL 4
REMARK VINA RESULT:      -7.0      3.088      9.003
REMARK  Name = 
REMARK  5 active torsions:
REMARK  status: ('A' for Active; 'I' for Inactive)
REMARK    1  A    between atoms: C_1  and  C_2
REMARK    2  A    between atoms: C_2  and  N_3
REMARK    3  A    between atoms: C_2  and  C_22
REMARK    4  A    between atoms: C_7  and  C_8
REMARK    5  A    between atoms: C_10  and  N_11
REMARK                            x       y       z     vdW  Elec       q    Type
REMARK                         _______ _______ _______ _____ _____    ______ ____
ROOT
ATOM      1  N   UNL     1       2.632   7.064  18.230  0.00  0.00    +0.000 N 
ATOM      2  C   UNL     1       2.231   8.380  18.461  0.00  0.00    +0.000 A 
ATOM      3  N   UNL     1       2.654   9.267  17.549  0.00  0.00    +0.000 NA
ATOM      4  C   UNL     1       2.203  10.528  17.652  0.00  0.00    +0.000 A 
ATOM      5  C   UNL     1       1.339  10.953  18.624  0.00  0.00    +0.000 A 
ATOM      6  C   UNL     1       0.937   9.999  19.558  0.00  0.00    +0.000 A 
ATOM      7  N   UNL     1       1.382   8.711  19.456  0.00  0.00    +0.000 NA
ATOM      8  H   UNL     1       2.033   6.705  17.495  0.00  0.00    +0.000 HD
ENDROOT
BRANCH   6   9
ATOM      9  N   UNL     1       0.062  10.318  20.593  0.00  0.00    +0.000 N 
ATOM     10  C   UNL     1       0.539  10.342  21.982  0.00  0.00    +0.000 C 
ATOM     11  C   UNL     1      -0.642  10.335  22.971  0.00  0.00    +0.000 C 
ATOM     12  C   UNL     1      -1.527  11.517  22.678  0.00  0.00    +0.000 A 
ATOM     13  C   UNL     1      -2.065  12.318  23.685  0.00  0.00    +0.000 A 
ATOM     14  C   UNL     1      -2.829  13.434  23.347  0.00  0.00    +0.000 A 
ATOM     15  C   UNL     1      -3.072  13.739  22.007  0.00  0.00    +0.000 A 
ATOM     16  C   UNL     1      -2.563  12.922  20.998  0.00  0.00    +0.000 A 
ATOM     17  C   UNL     1      -1.781  11.811  21.328  0.00  0.00    +0.000 A 
ATOM     18  C   UNL     1      -1.262  10.870  20.273  0.00  0.00    +0.000 C 
ENDBRANCH   6   9
BRANCH   1  20
ATOM     19  C   UNL     1       4.204   5.742  19.589  0.00  0.00    +0.000 C 
ATOM     20  C   UNL     1       2.730   6.168  19.387  0.00  0.00    +0.000 C 
BRANCH  20  21
ATOM     21  C   UNL     1       1.949   4.873  19.165  0.00  0.00    +0.000 A 
ATOM     22  C   UNL     1       1.171   4.319  20.191  0.00  0.00    +0.000 A 
ATOM     23  C   UNL     1       0.672   3.019  20.070  0.00  0.00    +0.000 A 
ATOM     24  C   UNL     1       0.912   2.276  18.914  0.00  0.00    +0.000 A 
ATOM     25  C   UNL     1       1.634   2.835  17.866  0.00  0.00    +0.000 A 
ATOM     26  C   UNL     1       2.143   4.124  17.989  0.00  0.00    +0.000 A 
ENDBRANCH  20  21
ENDBRANCH   1  20
BRANCH   5  27
ATOM     27  C   UNL     1       0.891  12.314  18.576  0.00  0.00    +0.000 C 
ATOM     28  N   UNL     1       0.544  13.408  18.471  0.00  0.00    +0.000 NA
ENDBRANCH   5  27
TORSDOF 4
ENDMDL
MODEL 5
REMARK VINA RESULT:      -6.9      1.691      6.813
REMARK  Name = 
REMARK  5 active torsions:
REMARK  status: ('A' for Active; 'I' for Inactive)
REMARK    1  A    between atoms: C_1  and  C_2
REMARK    2  A    between atoms: C_2  and  N_3
REMARK    3  A    between atoms: C_2  and  C_22
REMARK    4  A    between atoms: C_7  and  C_8
REMARK    5  A    between atoms: C_10  and  N_11
REMARK                            x       y       z     vdW  Elec       q    Type
REMARK                         _______ _______ _______ _____ _____    ______ ____
ROOT
ATOM      1  N   UNL     1       5.855   3.808  16.744  0.00  0.00    +0.000 N 
ATOM      2  C   UNL     1       4.578   3.735  17.301  0.00  0.00    +0.000 A 
ATOM      3  N   UNL     1       4.077   2.497  17.403  0.00  0.00    +0.000 NA
ATOM      4  C   UNL     1       2.902   2.352  18.038  0.00  0.00    +0.000 A 
ATOM      5  C   UNL     1       2.197   3.389  18.586  0.00  0.00    +0.000 A 
ATOM      6  C   UNL     1       2.751   4.661  18.443  0.00  0.00    +0.000 A 
ATOM      7  N   UNL     1       3.950   4.817  17.808  0.00  0.00    +0.000 NA
ATOM      8  H   UNL     1       6.504   3.526  17.472  0.00  0.00    +0.000 HD
ENDROOT
BRANCH   6   9
ATOM      9  N   UNL     1       2.122   5.790  18.958  0.00  0.00    +0.000 N 
ATOM     10  C   UNL     1       2.234   6.111  20.387  0.00  0.00    +0.000 C 
ATOM     11  C   UNL     1       1.175   7.149  20.805  0.00  0.00    +0.000 C 
ATOM     12  C   UNL     1       1.343   8.380  19.955  0.00  0.00    +0.000 A 
ATOM     13  C   UNL     1       1.279   9.669  20.484  0.00  0.00    +0.000 A 
ATOM     14  C   UNL     1       1.501  10.769  19.656  0.00  0.00    +0.000 A 
ATOM     15  C   UNL     1       1.766  10.582  18.299  0.00  0.00    +0.000 A 
ATOM     16  C   UNL     1       1.797   9.297  17.759  0.00  0.00    +0.000 A 
ATOM     17  C   UNL     1       1.594   8.189  18.587  0.00  0.00    +0.000 A 
ATOM     18  C   UNL     1       1.561   6.788  18.035  0.00  0.00    +0.000 C 
ENDBRANCH   6   9
BRANCH   1  20
ATOM     19  C   UNL     1       7.103   4.736  14.834  0.00  0.00    +0.000 C 
ATOM     20  C   UNL     1       6.240   5.057  16.078  0.00  0.00    +0.000 C 
BRANCH  20  21
ATOM     21  C   UNL     1       7.115   5.929  16.977  0.00  0.00    +0.000 A 
ATOM     22  C   UNL     1       7.612   5.437  18.191  0.00  0.00    +0.000 A 
ATOM     23  C   UNL     1       8.189   6.309  19.120  0.00  0.00    +0.000 A 
ATOM     24  C   UNL     1       8.309   7.668  18.830  0.00  0.00    +0.000 A 
ATOM     25  C   UNL     1       7.870   8.160  17.606  0.00  0.00    +0.000 A 
ATOM     26  C   UNL     1       7.285   7.296  16.686  0.00  0.00    +0.000 A 
ENDBRANCH  20  21
ENDBRANCH   1  20
BRANCH   5  27
ATOM     27  C   UNL     1       0.987   3.082  19.290  0.00  0.00    +0.000 C 
ATOM     28  N   UNL     1       0.048   2.841  19.914  0.00  0.00    +0.000 NA
ENDBRANCH   5  27
TORSDOF 4
ENDMDL
MODEL 6
REMARK VINA RESULT:      -6.9      5.904     11.108
REMARK  Name = 
REMARK  5 active torsions:
REMARK  status: ('A' for Active; 'I' for Inactive)
REMARK    1  A    between atoms: C_1  and  C_2
REMARK    2  A    between atoms: C_2  and  N_3
REMARK    3  A    between atoms: C_2  and  C_22
REMARK    4  A    between atoms: C_7  and  C_8
REMARK    5  A    between atoms: C_10  and  N_11
REMARK                            x       y       z     vdW  Elec       q    Type
REMARK                         _______ _______ _______ _____ _____    ______ ____
ROOT
ATOM      1  N   UNL     1      -0.759  10.386  17.716  0.00  0.00    +0.000 N 
ATOM      2  C   UNL     1      -2.029  10.962  17.661  0.00  0.00    +0.000 A 
ATOM      3  N   UNL     1      -2.622  10.908  16.461  0.00  0.00    +0.000 NA
ATOM      4  C   UNL     1      -3.891  11.339  16.374  0.00  0.00    +0.000 A 
ATOM      5  C   UNL     1      -4.607  11.822  17.436  0.00  0.00    +0.000 A 
ATOM      6  C   UNL     1      -3.945  11.872  18.661  0.00  0.00    +0.000 A 
ATOM      7  N   UNL     1      -2.658  11.426  18.762  0.00  0.00    +0.000 NA
ATOM      8  H   UNL     1      -0.900   9.382  17.748  0.00  0.00    +0.000 HD
ENDROOT
BRANCH   6   9
ATOM      9  N   UNL     1      -4.573  12.347  19.809  0.00  0.00    +0.000 N 
ATOM     10  C   UNL     1      -5.945  11.929  20.126  0.00  0.00    +0.000 C 
ATOM     11  C   UNL     1      -6.569  12.845  21.195  0.00  0.00    +0.000 C 
ATOM     12  C   UNL     1      -5.696  12.823  22.421  0.00  0.00    +0.000 A 
ATOM     13  C   UNL     1      -6.219  12.736  23.711  0.00  0.00    +0.000 A 
ATOM     14  C   UNL     1      -5.356  12.661  24.804  0.00  0.00    +0.000 A 
ATOM     15  C   UNL     1      -3.974  12.691  24.610  0.00  0.00    +0.000 A 
ATOM     16  C   UNL     1      -3.447  12.811  23.324  0.00  0.00    +0.000 A 
ATOM     17  C   UNL     1      -4.306  12.869  22.222  0.00  0.00    +0.000 A 
ATOM     18  C   UNL     1      -3.782  13.058  20.823  0.00  0.00    +0.000 C 
ENDBRANCH   6   9
BRANCH   1  20
ATOM     19  C   UNL     1       1.583  10.308  18.471  0.00  0.00    +0.000 C 
ATOM     20  C   UNL     1       0.169  10.874  18.741  0.00  0.00    +0.000 C 
BRANCH  20  21
ATOM     21  C   UNL     1      -0.219  10.380  20.134  0.00  0.00    +0.000 A 
ATOM     22  C   UNL     1      -0.467  11.286  21.174  0.00  0.00    +0.000 A 
ATOM     23  C   UNL     1      -0.567  10.832  22.492  0.00  0.00    +0.000 A 
ATOM     24  C   UNL     1      -0.459   9.471  22.779  0.00  0.00    +0.000 A 
ATOM     25  C   UNL     1      -0.268   8.556  21.750  0.00  0.00    +0.000 A 
ATOM     26  C   UNL     1      -0.156   9.007  20.439  0.00  0.00    +0.000 A 
ENDBRANCH  20  21
ENDBRANCH   1  20
BRANCH   5  27
ATOM     27  C   UNL     1      -5.975  12.190  17.212  0.00  0.00    +0.000 C 
ATOM     28  N   UNL     1      -7.076  12.513  17.094  0.00  0.00    +0.000 NA
ENDBRANCH   5  27
TORSDOF 4
ENDMDL
MODEL 7
REMARK VINA RESULT:      -6.8      3.741      7.268
REMARK  Name = 
REMARK  5 active torsions:
REMARK  status: ('A' for Active; 'I' for Inactive)
REMARK    1  A    between atoms: C_1  and  C_2
REMARK    2  A    between atoms: C_2  and  N_3
REMARK    3  A    between atoms: C_2  and  C_22
REMARK    4  A    between atoms: C_7  and  C_8
REMARK    5  A    between atoms: C_10  and  N_11
REMARK                            x       y       z     vdW  Elec       q    Type
REMARK                         _______ _______ _______ _____ _____    ______ ____
ROOT
ATOM      1  N   UNL     1       8.505   8.394  17.541  0.00  0.00    +0.000 N 
ATOM      2  C   UNL     1       7.544   7.422  17.263  0.00  0.00    +0.000 A 
ATOM      3  N   UNL     1       7.809   6.655  16.196  0.00  0.00    +0.000 NA
ATOM      4  C   UNL     1       6.982   5.627  15.948  0.00  0.00    +0.000 A 
ATOM      5  C   UNL     1       5.895   5.318  16.721  0.00  0.00    +0.000 A 
ATOM      6  C   UNL     1       5.652   6.151  17.811  0.00  0.00    +0.000 A 
ATOM      7  N   UNL     1       6.493   7.193  18.078  0.00  0.00    +0.000 NA
ATOM      8  H   UNL     1       9.281   7.914  17.986  0.00  0.00    +0.000 HD
ENDROOT
BRANCH   6   9
ATOM      9  N   UNL     1       4.574   5.934  18.666  0.00  0.00    +0.000 N 
ATOM     10  C   UNL     1       3.287   6.594  18.413  0.00  0.00    +0.000 C 
ATOM     11  C   UNL     1       2.379   6.528  19.655  0.00  0.00    +0.000 C 
ATOM     12  C   UNL     1       2.185   5.084  20.037  0.00  0.00    +0.000 A 
ATOM     13  C   UNL     1       0.944   4.568  20.411  0.00  0.00    +0.000 A 
ATOM     14  C   UNL     1       0.817   3.210  20.697  0.00  0.00    +0.000 A 
ATOM     15  C   UNL     1       1.931   2.371  20.627  0.00  0.00    +0.000 A 
ATOM     16  C   UNL     1       3.180   2.889  20.286  0.00  0.00    +0.000 A 
ATOM     17  C   UNL     1       3.311   4.247  19.981  0.00  0.00    +0.000 A 
ATOM     18  C   UNL     1       4.651   4.858  19.664  0.00  0.00    +0.000 C 
ENDBRANCH   6   9
BRANCH   1  20
ATOM     19  C   UNL     1       7.398  10.578  17.283  0.00  0.00    +0.000 C 
ATOM     20  C   UNL     1       8.074   9.593  18.267  0.00  0.00    +0.000 C 
BRANCH  20  21
ATOM     21  C   UNL     1       9.259  10.348  18.865  0.00  0.00    +0.000 A 
ATOM     22  C   UNL     1       9.314  10.630  20.237  0.00  0.00    +0.000 A 
ATOM     23  C   UNL     1      10.259  11.532  20.732  0.00  0.00    +0.000 A 
ATOM     24  C   UNL     1      11.181  12.130  19.872  0.00  0.00    +0.000 A 
ATOM     25  C   UNL     1      11.174  11.816  18.518  0.00  0.00    +0.000 A 
ATOM     26  C   UNL     1      10.226  10.928  18.021  0.00  0.00    +0.000 A 
ENDBRANCH  20  21
ENDBRANCH   1  20
BRANCH   5  27
ATOM     27  C   UNL     1       5.134   4.153  16.374  0.00  0.00    +0.000 C 
ATOM     28  N   UNL     1       4.490   3.222  16.156  0.00  0.00    +0.000 NA
ENDBRANCH   5  27
TORSDOF 4
ENDMDL
MODEL 8
REMARK VINA RESULT:      -6.8      0.669      1.266
REMARK  Name = 
REMARK  5 active torsions:
REMARK  status: ('A' for Active; 'I' for Inactive)
REMARK    1  A    between atoms: C_1  and  C_2
REMARK    2  A    between atoms: C_2  and  N_3
REMARK    3  A    between atoms: C_2  and  C_22
REMARK    4  A    between atoms: C_7  and  C_8
REMARK    5  A    between atoms: C_10  and  N_11
REMARK                            x       y       z     vdW  Elec       q    Type
REMARK                         _______ _______ _______ _____ _____    ______ ____
ROOT
ATOM      1  N   UNL     1       0.764   7.494  20.899  0.00  0.00    +0.000 N 
ATOM      2  C   UNL     1       1.656   6.473  20.570  0.00  0.00    +0.000 A 
ATOM      3  N   UNL     1       1.377   5.282  21.118  0.00  0.00    +0.000 NA
ATOM      4  C   UNL     1       2.130   4.234  20.745  0.00  0.00    +0.000 A 
ATOM      5  C   UNL     1       3.153   4.313  19.840  0.00  0.00    +0.000 A 
ATOM      6  C   UNL     1       3.415   5.574  19.307  0.00  0.00    +0.000 A 
ATOM      7  N   UNL     1       2.649   6.644  19.672  0.00  0.00    +0.000 NA
ATOM      8  H   UNL     1      -0.066   7.346  20.335  0.00  0.00    +0.000 HD
ENDROOT
BRANCH   6   9
ATOM      9  N   UNL     1       4.434   5.774  18.380  0.00  0.00    +0.000 N 
ATOM     10  C   UNL     1       5.839   5.688  18.796  0.00  0.00    +0.000 C 
ATOM     11  C   UNL     1       6.769   6.308  17.736  0.00  0.00    +0.000 C 
ATOM     12  C   UNL     1       6.545   5.604  16.425  0.00  0.00    +0.000 A 
ATOM     13  C   UNL     1       7.596   5.224  15.590  0.00  0.00    +0.000 A 
ATOM     14  C   UNL     1       7.328   4.522  14.415  0.00  0.00    +0.000 A 
ATOM     15  C   UNL     1       6.011   4.218  14.065  0.00  0.00    +0.000 A 
ATOM     16  C   UNL     1       4.955   4.624  14.880  0.00  0.00    +0.000 A 
ATOM     17  C   UNL     1       5.218   5.313  16.069  0.00  0.00    +0.000 A 
ATOM     18  C   UNL     1       4.106   5.822  16.948  0.00  0.00    +0.000 C 
ENDBRANCH   6   9
BRANCH   1  20
ATOM     19  C   UNL     1       1.901   9.243  22.209  0.00  0.00    +0.000 C 
ATOM     20  C   UNL     1       1.259   8.874  20.850  0.00  0.00    +0.000 C 
BRANCH  20  21
ATOM     21  C   UNL     1       0.122   9.874  20.642  0.00  0.00    +0.000 A 
ATOM     22  C   UNL     1      -0.288  10.237  19.352  0.00  0.00    +0.000 A 
ATOM     23  C   UNL     1      -1.141  11.330  19.168  0.00  0.00    +0.000 A 
ATOM     24  C   UNL     1      -1.622  12.042  20.267  0.00  0.00    +0.000 A 
ATOM     25  C   UNL     1      -1.267  11.657  21.554  0.00  0.00    +0.000 A 
ATOM     26  C   UNL     1      -0.409  10.578  21.740  0.00  0.00    +0.000 A 
ENDBRANCH  20  21
ENDBRANCH   1  20
BRANCH   5  27
ATOM     27  C   UNL     1       3.833   3.101  19.488  0.00  0.00    +0.000 C 
ATOM     28  N   UNL     1       4.322   2.093  19.215  0.00  0.00    +0.000 NA
ENDBRANCH   5  27
TORSDOF 4
ENDMDL
MODEL 9
REMARK VINA RESULT:      -6.7      3.458      8.424
REMARK  Name = 
REMARK  5 active torsions:
REMARK  status: ('A' for Active; 'I' for Inactive)
REMARK    1  A    between atoms: C_1  and  C_2
REMARK    2  A    between atoms: C_2  and  N_3
REMARK    3  A    between atoms: C_2  and  C_22
REMARK    4  A    between atoms: C_7  and  C_8
REMARK    5  A    between atoms: C_10  and  N_11
REMARK                            x       y       z     vdW  Elec       q    Type
REMARK                         _______ _______ _______ _____ _____    ______ ____
ROOT
ATOM      1  N   UNL     1       6.408   3.873  12.738  0.00  0.00    +0.000 N 
ATOM      2  C   UNL     1       6.363   4.080  14.117  0.00  0.00    +0.000 A 
ATOM      3  N   UNL     1       7.388   4.784  14.617  0.00  0.00    +0.000 NA
ATOM      4  C   UNL     1       7.340   5.116  15.917  0.00  0.00    +0.000 A 
ATOM      5  C   UNL     1       6.309   4.783  16.752  0.00  0.00    +0.000 A 
ATOM      6  C   UNL     1       5.271   4.039  16.192  0.00  0.00    +0.000 A 
ATOM      7  N   UNL     1       5.306   3.706  14.868  0.00  0.00    +0.000 NA
ATOM      8  H   UNL     1       6.117   4.744  12.307  0.00  0.00    +0.000 HD
ENDROOT
BRANCH   6   9
ATOM      9  N   UNL     1       4.171   3.642  16.948  0.00  0.00    +0.000 N 
ATOM     10  C   UNL     1       4.107   2.284  17.501  0.00  0.00    +0.000 C 
ATOM     11  C   UNL     1       2.677   1.939  17.957  0.00  0.00    +0.000 C 
ATOM     12  C   UNL     1       2.232   2.962  18.968  0.00  0.00    +0.000 A 
ATOM     13  C   UNL     1       1.550   2.614  20.135  0.00  0.00    +0.000 A 
ATOM     14  C   UNL     1       1.216   3.600  21.062  0.00  0.00    +0.000 A 
ATOM     15  C   UNL     1       1.545   4.934  20.816  0.00  0.00    +0.000 A 
ATOM     16  C   UNL     1       2.197   5.291  19.636  0.00  0.00    +0.000 A 
ATOM     17  C   UNL     1       2.551   4.305  18.710  0.00  0.00    +0.000 A 
ATOM     18  C   UNL     1       3.203   4.652  17.397  0.00  0.00    +0.000 C 
ENDBRANCH   6   9
BRANCH   1  20
ATOM     19  C   UNL     1       6.648   1.944  11.227  0.00  0.00    +0.000 C 
ATOM     20  C   UNL     1       5.712   2.699  12.201  0.00  0.00    +0.000 C 
BRANCH  20  21
ATOM     21  C   UNL     1       4.488   3.097  11.378  0.00  0.00    +0.000 A 
ATOM     22  C   UNL     1       3.525   2.145  11.017  0.00  0.00    +0.000 A 
ATOM     23  C   UNL     1       2.555   2.455  10.060  0.00  0.00    +0.000 A 
ATOM     24  C   UNL     1       2.512   3.725   9.485  0.00  0.00    +0.000 A 
ATOM     25  C   UNL     1       3.427   4.696   9.876  0.00  0.00    +0.000 A 
ATOM     26  C   UNL     1       4.401   4.386  10.819  0.00  0.00    +0.000 A 
ENDBRANCH  20  21
ENDBRANCH   1  20
BRANCH   5  27
ATOM     27  C   UNL     1       6.360   5.258  18.104  0.00  0.00    +0.000 C 
ATOM     28  N   UNL     1       6.468   5.637  19.188  0.00  0.00    +0.000 NA
ENDBRANCH   5  27
TORSDOF 4
ENDMDL
