MODEL 1
REMARK VINA RESULT:      -9.9      0.000      0.000
REMARK  Name = 
REMARK  3 active torsions:
REMARK  status: ('A' for Active; 'I' for Inactive)
REMARK    1  A    between atoms: N_3  and  C_4
REMARK    2  A    between atoms: C_7  and  C_8
REMARK    3  A    between atoms: C_12  and  C_14
REMARK                            x       y       z     vdW  Elec       q    Type
REMARK                         _______ _______ _______ _____ _____    ______ ____
ROOT
ATOM      1  C   UNL     1       1.098   8.904  20.447  0.00  0.00    +0.000 A 
ATOM      2  C   UNL     1       1.561   9.210  19.166  0.00  0.00    +0.000 A 
ATOM      3  C   UNL     1       2.402   8.330  18.482  0.00  0.00    +0.000 A 
ATOM      4  C   UNL     1       2.786   7.128  19.074  0.00  0.00    +0.000 A 
ATOM      5  C   UNL     1       2.339   6.821  20.363  0.00  0.00    +0.000 A 
ATOM      6  C   UNL     1       1.504   7.708  21.048  0.00  0.00    +0.000 A 
ENDROOT
BRANCH   1   9
ATOM      7  O   UNL     1       1.326  11.774  20.921  0.00  0.00    +0.000 OA
ATOM      8  C   UNL     1       0.417  11.097  21.396  0.00  0.00    +0.000 C 
ATOM      9  N   UNL     1       0.244   9.751  21.183  0.00  0.00    +0.000 N 
ATOM     10  N   UNL     1      -0.537  11.687  22.185  0.00  0.00    +0.000 N 
ATOM     11  C   UNL     1      -1.688  11.077  22.847  0.00  0.00    +0.000 C 
ATOM     12  C   UNL     1      -2.448  12.249  23.372  0.00  0.00    +0.000 A 
ATOM     13  C   UNL     1      -3.721  12.294  23.911  0.00  0.00    +0.000 A 
ATOM     14  C   UNL     1      -4.196  13.524  24.371  0.00  0.00    +0.000 A 
ATOM     15  C   UNL     1      -3.385  14.670  24.327  0.00  0.00    +0.000 A 
ATOM     16  C   UNL     1      -2.114  14.622  23.753  0.00  0.00    +0.000 A 
ATOM     17  C   UNL     1      -1.681  13.412  23.241  0.00  0.00    +0.000 A 
ATOM     18  C   UNL     1      -0.462  13.127  22.427  0.00  0.00    +0.000 C 
ATOM     19  H   UNL     1      -0.646   9.358  21.440  0.00  0.00    +0.000 HD
ENDBRANCH   1   9
BRANCH   4  20
ATOM     20  C   UNL     1       3.749   6.261  18.400  0.00  0.00    +0.000 C 
ATOM     21  C   UNL     1       3.530   5.947  17.115  0.00  0.00    +0.000 C 
ATOM     22  C   UNL     1       4.470   5.144  16.275  0.00  0.00    +0.000 C 
ATOM     23  N   UNL     1       5.702   4.799  16.983  0.00  0.00    +0.000 N 
ATOM     24  C   UNL     1       6.893   4.474  16.316  0.00  0.00    +0.000 C 
ATOM     25  O   UNL     1       7.930   4.179  16.914  0.00  0.00    +0.000 OA
ATOM     26  C   UNL     1       5.585   4.562  18.421  0.00  0.00    +0.000 C 
ATOM     27  C   UNL     1       4.942   5.745  19.150  0.00  0.00    +0.000 C 
BRANCH  24  28
ATOM     28  C   UNL     1       6.944   4.541  14.812  0.00  0.00    +0.000 A 
ATOM     29  C   UNL     1       6.189   3.643  14.067  0.00  0.00    +0.000 A 
ATOM     30  C   UNL     1       6.354   3.634  12.682  0.00  0.00    +0.000 A 
ATOM     31  C   UNL     1       7.254   4.515  12.092  0.00  0.00    +0.000 A 
ATOM     32  C   UNL     1       7.930   5.405  12.905  0.00  0.00    +0.000 A 
ATOM     33  N   UNL     1       7.780   5.454  14.243  0.00  0.00    +0.000 NA
ENDBRANCH  24  28
ENDBRANCH   4  20
TORSDOF 3
ENDMDL
MODEL 2
REMARK VINA RESULT:      -9.3      2.008      3.408
REMARK  Name = 
REMARK  3 active torsions:
REMARK  status: ('A' for Active; 'I' for Inactive)
REMARK    1  A    between atoms: N_3  and  C_4
REMARK    2  A    between atoms: C_7  and  C_8
REMARK    3  A    between atoms: C_12  and  C_14
REMARK                            x       y       z     vdW  Elec       q    Type
REMARK                         _______ _______ _______ _____ _____    ______ ____
ROOT
ATOM      1  C   UNL     1       0.332  10.940  21.466  0.00  0.00    +0.000 A 
ATOM      2  C   UNL     1       0.454  10.738  20.089  0.00  0.00    +0.000 A 
ATOM      3  C   UNL     1       0.919   9.522  19.586  0.00  0.00    +0.000 A 
ATOM      4  C   UNL     1       1.265   8.491  20.457  0.00  0.00    +0.000 A 
ATOM      5  C   UNL     1       1.160   8.690  21.837  0.00  0.00    +0.000 A 
ATOM      6  C   UNL     1       0.702   9.912  22.339  0.00  0.00    +0.000 A 
ENDROOT
BRANCH   1   9
ATOM      7  O   UNL     1      -2.068  11.406  23.061  0.00  0.00    +0.000 OA
ATOM      8  C   UNL     1      -1.293  12.309  22.754  0.00  0.00    +0.000 C 
ATOM      9  N   UNL     1      -0.137  12.144  22.032  0.00  0.00    +0.000 N 
ATOM     10  N   UNL     1      -1.544  13.594  23.161  0.00  0.00    +0.000 N 
ATOM     11  C   UNL     1      -0.768  14.806  22.908  0.00  0.00    +0.000 C 
ATOM     12  C   UNL     1      -1.430  15.828  23.772  0.00  0.00    +0.000 A 
ATOM     13  C   UNL     1      -1.008  17.106  24.093  0.00  0.00    +0.000 A 
ATOM     14  C   UNL     1      -1.837  17.888  24.900  0.00  0.00    +0.000 A 
ATOM     15  C   UNL     1      -3.084  17.404  25.332  0.00  0.00    +0.000 A 
ATOM     16  C   UNL     1      -3.487  16.104  25.028  0.00  0.00    +0.000 A 
ATOM     17  C   UNL     1      -2.627  15.316  24.284  0.00  0.00    +0.000 A 
ATOM     18  C   UNL     1      -2.728  13.858  23.977  0.00  0.00    +0.000 C 
ATOM     19  H   UNL     1       0.517  12.909  22.033  0.00  0.00    +0.000 HD
ENDBRANCH   1   9
BRANCH   4  20
ATOM     20  C   UNL     1       1.851   7.260  19.931  0.00  0.00    +0.000 C 
ATOM     21  C   UNL     1       2.455   7.304  18.735  0.00  0.00    +0.000 C 
ATOM     22  C   UNL     1       3.170   6.149  18.113  0.00  0.00    +0.000 C 
ATOM     23  N   UNL     1       3.213   4.977  18.987  0.00  0.00    +0.000 N 
ATOM     24  C   UNL     1       4.178   3.968  18.853  0.00  0.00    +0.000 C 
ATOM     25  O   UNL     1       4.211   2.978  19.587  0.00  0.00    +0.000 OA
ATOM     26  C   UNL     1       2.057   4.768  19.856  0.00  0.00    +0.000 C 
ATOM     27  C   UNL     1       1.761   5.992  20.728  0.00  0.00    +0.000 C 
BRANCH  24  28
ATOM     28  C   UNL     1       5.262   4.109  17.817  0.00  0.00    +0.000 A 
ATOM     29  C   UNL     1       6.465   4.710  18.169  0.00  0.00    +0.000 A 
ATOM     30  C   UNL     1       7.401   4.952  17.165  0.00  0.00    +0.000 A 
ATOM     31  C   UNL     1       7.112   4.587  15.855  0.00  0.00    +0.000 A 
ATOM     32  C   UNL     1       5.910   3.953  15.599  0.00  0.00    +0.000 A 
ATOM     33  N   UNL     1       4.992   3.687  16.550  0.00  0.00    +0.000 NA
ENDBRANCH  24  28
ENDBRANCH   4  20
TORSDOF 3
ENDMDL
MODEL 3
REMARK VINA RESULT:      -9.3      1.877      3.216
REMARK  Name = 
REMARK  3 active torsions:
REMARK  status: ('A' for Active; 'I' for Inactive)
REMARK    1  A    between atoms: N_3  and  C_4
REMARK    2  A    between atoms: C_7  and  C_8
REMARK    3  A    between atoms: C_12  and  C_14
REMARK                            x       y       z     vdW  Elec       q    Type
REMARK                         _______ _______ _______ _____ _____    ______ ____
ROOT
ATOM      1  C   UNL     1      -0.165  10.730  21.847  0.00  0.00    +0.000 A 
ATOM      2  C   UNL     1       0.307   9.669  22.623  0.00  0.00    +0.000 A 
ATOM      3  C   UNL     1       0.960   8.587  22.030  0.00  0.00    +0.000 A 
ATOM      4  C   UNL     1       1.152   8.557  20.649  0.00  0.00    +0.000 A 
ATOM      5  C   UNL     1       0.669   9.609  19.864  0.00  0.00    +0.000 A 
ATOM      6  C   UNL     1       0.008  10.687  20.460  0.00  0.00    +0.000 A 
ENDROOT
BRANCH   1   9
ATOM      7  O   UNL     1       0.708  13.514  21.932  0.00  0.00    +0.000 OA
ATOM      8  C   UNL     1      -0.353  13.140  22.426  0.00  0.00    +0.000 C 
ATOM      9  N   UNL     1      -0.827  11.851  22.390  0.00  0.00    +0.000 N 
ATOM     10  N   UNL     1      -1.175  14.043  23.049  0.00  0.00    +0.000 N 
ATOM     11  C   UNL     1      -2.464  13.816  23.700  0.00  0.00    +0.000 C 
ATOM     12  C   UNL     1      -2.950  15.196  23.996  0.00  0.00    +0.000 A 
ATOM     13  C   UNL     1      -4.199  15.608  24.425  0.00  0.00    +0.000 A 
ATOM     14  C   UNL     1      -4.392  16.969  24.671  0.00  0.00    +0.000 A 
ATOM     15  C   UNL     1      -3.334  17.883  24.529  0.00  0.00    +0.000 A 
ATOM     16  C   UNL     1      -2.087  17.462  24.067  0.00  0.00    +0.000 A 
ATOM     17  C   UNL     1      -1.927  16.122  23.764  0.00  0.00    +0.000 A 
ATOM     18  C   UNL     1      -0.776  15.448  23.093  0.00  0.00    +0.000 C 
ATOM     19  H   UNL     1      -1.794  11.712  22.630  0.00  0.00    +0.000 HD
ENDBRANCH   1   9
BRANCH   4  20
ATOM     20  C   UNL     1       1.740   7.377  20.023  0.00  0.00    +0.000 C 
ATOM     21  C   UNL     1       2.314   7.516  18.819  0.00  0.00    +0.000 C 
ATOM     22  C   UNL     1       3.029   6.419  18.098  0.00  0.00    +0.000 C 
ATOM     23  N   UNL     1       3.111   5.189  18.885  0.00  0.00    +0.000 N 
ATOM     24  C   UNL     1       4.086   4.206  18.655  0.00  0.00    +0.000 C 
ATOM     25  O   UNL     1       4.150   3.167  19.315  0.00  0.00    +0.000 OA
ATOM     26  C   UNL     1       1.979   4.900  19.764  0.00  0.00    +0.000 C 
ATOM     27  C   UNL     1       1.689   6.054  20.729  0.00  0.00    +0.000 C 
BRANCH  24  28
ATOM     28  C   UNL     1       5.141   4.438  17.606  0.00  0.00    +0.000 A 
ATOM     29  C   UNL     1       4.915   4.001  16.306  0.00  0.00    +0.000 A 
ATOM     30  C   UNL     1       5.956   4.105  15.385  0.00  0.00    +0.000 A 
ATOM     31  C   UNL     1       7.175   4.640  15.785  0.00  0.00    +0.000 A 
ATOM     32  C   UNL     1       7.300   5.092  17.085  0.00  0.00    +0.000 A 
ATOM     33  N   UNL     1       6.308   5.025  17.995  0.00  0.00    +0.000 NA
ENDBRANCH  24  28
ENDBRANCH   4  20
TORSDOF 3
ENDMDL
MODEL 4
REMARK VINA RESULT:      -9.3      2.146      3.459
REMARK  Name = 
REMARK  3 active torsions:
REMARK  status: ('A' for Active; 'I' for Inactive)
REMARK    1  A    between atoms: N_3  and  C_4
REMARK    2  A    between atoms: C_7  and  C_8
REMARK    3  A    between atoms: C_12  and  C_14
REMARK                            x       y       z     vdW  Elec       q    Type
REMARK                         _______ _______ _______ _____ _____    ______ ____
ROOT
ATOM      1  C   UNL     1       0.081  10.967  21.734  0.00  0.00    +0.000 A 
ATOM      2  C   UNL     1       0.516  10.914  20.408  0.00  0.00    +0.000 A 
ATOM      3  C   UNL     1       1.020   9.729  19.869  0.00  0.00    +0.000 A 
ATOM      4  C   UNL     1       1.090   8.579  20.653  0.00  0.00    +0.000 A 
ATOM      5  C   UNL     1       0.669   8.627  21.986  0.00  0.00    +0.000 A 
ATOM      6  C   UNL     1       0.174   9.818  22.525  0.00  0.00    +0.000 A 
ENDROOT
BRANCH   1   9
ATOM      7  O   UNL     1      -2.652  11.990  21.681  0.00  0.00    +0.000 OA
ATOM      8  C   UNL     1      -1.737  12.581  22.249  0.00  0.00    +0.000 C 
ATOM      9  N   UNL     1      -0.441  12.133  22.331  0.00  0.00    +0.000 N 
ATOM     10  N   UNL     1      -1.981  13.770  22.886  0.00  0.00    +0.000 N 
ATOM     11  C   UNL     1      -1.050  14.632  23.612  0.00  0.00    +0.000 C 
ATOM     12  C   UNL     1      -1.941  15.651  24.243  0.00  0.00    +0.000 A 
ATOM     13  C   UNL     1      -1.639  16.598  25.204  0.00  0.00    +0.000 A 
ATOM     14  C   UNL     1      -2.652  17.471  25.606  0.00  0.00    +0.000 A 
ATOM     15  C   UNL     1      -3.926  17.414  25.017  0.00  0.00    +0.000 A 
ATOM     16  C   UNL     1      -4.230  16.435  24.070  0.00  0.00    +0.000 A 
ATOM     17  C   UNL     1      -3.236  15.535  23.728  0.00  0.00    +0.000 A 
ATOM     18  C   UNL     1      -3.343  14.301  22.894  0.00  0.00    +0.000 C 
ATOM     19  H   UNL     1       0.159  12.587  22.999  0.00  0.00    +0.000 HD
ENDBRANCH   1   9
BRANCH   4  20
ATOM     20  C   UNL     1       1.713   7.371  20.118  0.00  0.00    +0.000 C 
ATOM     21  C   UNL     1       2.371   7.458  18.953  0.00  0.00    +0.000 C 
ATOM     22  C   UNL     1       3.128   6.330  18.330  0.00  0.00    +0.000 C 
ATOM     23  N   UNL     1       3.146   5.133  19.170  0.00  0.00    +0.000 N 
ATOM     24  C   UNL     1       4.129   4.139  19.050  0.00  0.00    +0.000 C 
ATOM     25  O   UNL     1       4.140   3.128  19.755  0.00  0.00    +0.000 OA
ATOM     26  C   UNL     1       1.954   4.885  19.978  0.00  0.00    +0.000 C 
ATOM     27  C   UNL     1       1.604   6.079  20.872  0.00  0.00    +0.000 C 
BRANCH  24  28
ATOM     28  C   UNL     1       5.257   4.324  18.070  0.00  0.00    +0.000 A 
ATOM     29  C   UNL     1       5.030   4.081  16.720  0.00  0.00    +0.000 A 
ATOM     30  C   UNL     1       6.119   4.127  15.850  0.00  0.00    +0.000 A 
ATOM     31  C   UNL     1       7.384   4.416  16.348  0.00  0.00    +0.000 A 
ATOM     32  C   UNL     1       7.512   4.690  17.697  0.00  0.00    +0.000 A 
ATOM     33  N   UNL     1       6.478   4.673  18.562  0.00  0.00    +0.000 NA
ENDBRANCH  24  28
ENDBRANCH   4  20
TORSDOF 3
ENDMDL
MODEL 5
REMARK VINA RESULT:      -9.2      2.135      3.430
REMARK  Name = 
REMARK  3 active torsions:
REMARK  status: ('A' for Active; 'I' for Inactive)
REMARK    1  A    between atoms: N_3  and  C_4
REMARK    2  A    between atoms: C_7  and  C_8
REMARK    3  A    between atoms: C_12  and  C_14
REMARK                            x       y       z     vdW  Elec       q    Type
REMARK                         _______ _______ _______ _____ _____    ______ ____
ROOT
ATOM      1  C   UNL     1      -0.196  10.626  21.871  0.00  0.00    +0.000 A 
ATOM      2  C   UNL     1      -0.248   9.383  22.506  0.00  0.00    +0.000 A 
ATOM      3  C   UNL     1       0.413   8.278  21.967  0.00  0.00    +0.000 A 
ATOM      4  C   UNL     1       1.138   8.406  20.784  0.00  0.00    +0.000 A 
ATOM      5  C   UNL     1       1.184   9.644  20.133  0.00  0.00    +0.000 A 
ATOM      6  C   UNL     1       0.514  10.746  20.672  0.00  0.00    +0.000 A 
ENDROOT
BRANCH   1   9
ATOM      7  O   UNL     1      -2.457  12.094  20.754  0.00  0.00    +0.000 OA
ATOM      8  C   UNL     1      -1.887  12.445  21.785  0.00  0.00    +0.000 C 
ATOM      9  N   UNL     1      -0.839  11.778  22.371  0.00  0.00    +0.000 N 
ATOM     10  N   UNL     1      -2.307  13.566  22.453  0.00  0.00    +0.000 N 
ATOM     11  C   UNL     1      -1.776  14.158  23.679  0.00  0.00    +0.000 C 
ATOM     12  C   UNL     1      -2.770  15.222  24.009  0.00  0.00    +0.000 A 
ATOM     13  C   UNL     1      -2.894  15.974  25.163  0.00  0.00    +0.000 A 
ATOM     14  C   UNL     1      -3.895  16.946  25.209  0.00  0.00    +0.000 A 
ATOM     15  C   UNL     1      -4.721  17.181  24.097  0.00  0.00    +0.000 A 
ATOM     16  C   UNL     1      -4.608  16.397  22.948  0.00  0.00    +0.000 A 
ATOM     17  C   UNL     1      -3.656  15.394  22.939  0.00  0.00    +0.000 A 
ATOM     18  C   UNL     1      -3.449  14.313  21.930  0.00  0.00    +0.000 C 
ATOM     19  H   UNL     1      -0.604  12.034  23.315  0.00  0.00    +0.000 HD
ENDBRANCH   1   9
BRANCH   4  20
ATOM     20  C   UNL     1       1.739   7.226  20.168  0.00  0.00    +0.000 C 
ATOM     21  C   UNL     1       2.419   7.383  19.023  0.00  0.00    +0.000 C 
ATOM     22  C   UNL     1       3.157   6.285  18.328  0.00  0.00    +0.000 C 
ATOM     23  N   UNL     1       3.129   5.028  19.074  0.00  0.00    +0.000 N 
ATOM     24  C   UNL     1       4.087   4.018  18.894  0.00  0.00    +0.000 C 
ATOM     25  O   UNL     1       4.059   2.957  19.520  0.00  0.00    +0.000 OA
ATOM     26  C   UNL     1       1.916   4.752  19.842  0.00  0.00    +0.000 C 
ATOM     27  C   UNL     1       1.582   5.883  20.819  0.00  0.00    +0.000 C 
BRANCH  24  28
ATOM     28  C   UNL     1       5.236   4.246  17.948  0.00  0.00    +0.000 A 
ATOM     29  C   UNL     1       5.051   4.026  16.588  0.00  0.00    +0.000 A 
ATOM     30  C   UNL     1       6.161   4.112  15.749  0.00  0.00    +0.000 A 
ATOM     31  C   UNL     1       7.406   4.416  16.287  0.00  0.00    +0.000 A 
ATOM     32  C   UNL     1       7.493   4.664  17.644  0.00  0.00    +0.000 A 
ATOM     33  N   UNL     1       6.437   4.608  18.481  0.00  0.00    +0.000 NA
ENDBRANCH  24  28
ENDBRANCH   4  20
TORSDOF 3
ENDMDL
MODEL 6
REMARK VINA RESULT:      -9.2      2.118      3.613
REMARK  Name = 
REMARK  3 active torsions:
REMARK  status: ('A' for Active; 'I' for Inactive)
REMARK    1  A    between atoms: N_3  and  C_4
REMARK    2  A    between atoms: C_7  and  C_8
REMARK    3  A    between atoms: C_12  and  C_14
REMARK                            x       y       z     vdW  Elec       q    Type
REMARK                         _______ _______ _______ _____ _____    ______ ____
ROOT
ATOM      1  C   UNL     1      -0.115  11.032  21.563  0.00  0.00    +0.000 A 
ATOM      2  C   UNL     1       0.199   9.977  22.423  0.00  0.00    +0.000 A 
ATOM      3  C   UNL     1       0.849   8.837  21.946  0.00  0.00    +0.000 A 
ATOM      4  C   UNL     1       1.194   8.741  20.600  0.00  0.00    +0.000 A 
ATOM      5  C   UNL     1       0.869   9.786  19.728  0.00  0.00    +0.000 A 
ATOM      6  C   UNL     1       0.211  10.923  20.207  0.00  0.00    +0.000 A 
ENDROOT
BRANCH   1   9
ATOM      7  O   UNL     1      -2.331  11.327  23.439  0.00  0.00    +0.000 OA
ATOM      8  C   UNL     1      -1.827  12.285  22.857  0.00  0.00    +0.000 C 
ATOM      9  N   UNL     1      -0.766  12.209  21.988  0.00  0.00    +0.000 N 
ATOM     10  N   UNL     1      -2.307  13.550  23.077  0.00  0.00    +0.000 N 
ATOM     11  C   UNL     1      -1.863  14.815  22.495  0.00  0.00    +0.000 C 
ATOM     12  C   UNL     1      -2.621  15.840  23.274  0.00  0.00    +0.000 A 
ATOM     13  C   UNL     1      -2.460  17.213  23.298  0.00  0.00    +0.000 A 
ATOM     14  C   UNL     1      -3.333  17.962  24.089  0.00  0.00    +0.000 A 
ATOM     15  C   UNL     1      -4.371  17.340  24.802  0.00  0.00    +0.000 A 
ATOM     16  C   UNL     1      -4.507  15.951  24.795  0.00  0.00    +0.000 A 
ATOM     17  C   UNL     1      -3.595  15.215  24.060  0.00  0.00    +0.000 A 
ATOM     18  C   UNL     1      -3.404  13.734  24.025  0.00  0.00    +0.000 C 
ATOM     19  H   UNL     1      -0.307  13.072  21.749  0.00  0.00    +0.000 HD
ENDBRANCH   1   9
BRANCH   4  20
ATOM     20  C   UNL     1       1.777   7.505  20.085  0.00  0.00    +0.000 C 
ATOM     21  C   UNL     1       2.416   7.546  18.907  0.00  0.00    +0.000 C 
ATOM     22  C   UNL     1       3.133   6.383  18.300  0.00  0.00    +0.000 C 
ATOM     23  N   UNL     1       3.135   5.207  19.170  0.00  0.00    +0.000 N 
ATOM     24  C   UNL     1       4.090   4.185  19.059  0.00  0.00    +0.000 C 
ATOM     25  O   UNL     1       4.088   3.192  19.789  0.00  0.00    +0.000 OA
ATOM     26  C   UNL     1       1.951   5.010  20.004  0.00  0.00    +0.000 C 
ATOM     27  C   UNL     1       1.648   6.235  20.874  0.00  0.00    +0.000 C 
BRANCH  24  28
ATOM     28  C   UNL     1       5.204   4.316  18.055  0.00  0.00    +0.000 A 
ATOM     29  C   UNL     1       4.961   3.997  16.724  0.00  0.00    +0.000 A 
ATOM     30  C   UNL     1       6.038   3.996  15.839  0.00  0.00    +0.000 A 
ATOM     31  C   UNL     1       7.309   4.314  16.303  0.00  0.00    +0.000 A 
ATOM     32  C   UNL     1       7.454   4.663  17.633  0.00  0.00    +0.000 A 
ATOM     33  N   UNL     1       6.431   4.693  18.511  0.00  0.00    +0.000 NA
ENDBRANCH  24  28
ENDBRANCH   4  20
TORSDOF 3
ENDMDL
MODEL 7
REMARK VINA RESULT:      -9.0      1.304      1.358
REMARK  Name = 
REMARK  3 active torsions:
REMARK  status: ('A' for Active; 'I' for Inactive)
REMARK    1  A    between atoms: N_3  and  C_4
REMARK    2  A    between atoms: C_7  and  C_8
REMARK    3  A    between atoms: C_12  and  C_14
REMARK                            x       y       z     vdW  Elec       q    Type
REMARK                         _______ _______ _______ _____ _____    ______ ____
ROOT
ATOM      1  C   UNL     1       0.971   9.401  19.931  0.00  0.00    +0.000 A 
ATOM      2  C   UNL     1       1.449   9.597  18.633  0.00  0.00    +0.000 A 
ATOM      3  C   UNL     1       2.305   8.666  18.040  0.00  0.00    +0.000 A 
ATOM      4  C   UNL     1       2.691   7.525  18.741  0.00  0.00    +0.000 A 
ATOM      5  C   UNL     1       2.229   7.329  20.047  0.00  0.00    +0.000 A 
ATOM      6  C   UNL     1       1.379   8.267  20.640  0.00  0.00    +0.000 A 
ENDROOT
BRANCH   1   9
ATOM      7  O   UNL     1      -1.399  10.739  18.878  0.00  0.00    +0.000 OA
ATOM      8  C   UNL     1      -0.989  10.926  20.022  0.00  0.00    +0.000 C 
ATOM      9  N   UNL     1       0.102  10.303  20.578  0.00  0.00    +0.000 N 
ATOM     10  N   UNL     1      -1.649  11.793  20.854  0.00  0.00    +0.000 N 
ATOM     11  C   UNL     1      -1.335  12.162  22.232  0.00  0.00    +0.000 C 
ATOM     12  C   UNL     1      -2.520  12.967  22.654  0.00  0.00    +0.000 A 
ATOM     13  C   UNL     1      -2.869  13.411  23.916  0.00  0.00    +0.000 A 
ATOM     14  C   UNL     1      -4.020  14.191  24.042  0.00  0.00    +0.000 A 
ATOM     15  C   UNL     1      -4.773  14.550  22.912  0.00  0.00    +0.000 A 
ATOM     16  C   UNL     1      -4.430  14.072  21.646  0.00  0.00    +0.000 A 
ATOM     17  C   UNL     1      -3.325  13.246  21.544  0.00  0.00    +0.000 A 
ATOM     18  C   UNL     1      -2.851  12.465  20.363  0.00  0.00    +0.000 C 
ATOM     19  H   UNL     1       0.206  10.369  21.577  0.00  0.00    +0.000 HD
ENDBRANCH   1   9
BRANCH   4  20
ATOM     20  C   UNL     1       3.668   6.610  18.158  0.00  0.00    +0.000 C 
ATOM     21  C   UNL     1       3.492   6.216  16.889  0.00  0.00    +0.000 C 
ATOM     22  C   UNL     1       4.453   5.354  16.136  0.00  0.00    +0.000 C 
ATOM     23  N   UNL     1       5.656   5.047  16.908  0.00  0.00    +0.000 N 
ATOM     24  C   UNL     1       6.867   4.671  16.306  0.00  0.00    +0.000 C 
ATOM     25  O   UNL     1       7.880   4.408  16.958  0.00  0.00    +0.000 OA
ATOM     26  C   UNL     1       5.487   4.903  18.353  0.00  0.00    +0.000 C 
ATOM     27  C   UNL     1       4.829   6.135  18.982  0.00  0.00    +0.000 C 
BRANCH  24  28
ATOM     28  C   UNL     1       6.971   4.641  14.804  0.00  0.00    +0.000 A 
ATOM     29  C   UNL     1       6.217   3.718  14.089  0.00  0.00    +0.000 A 
ATOM     30  C   UNL     1       6.429   3.617  12.714  0.00  0.00    +0.000 A 
ATOM     31  C   UNL     1       7.373   4.434  12.103  0.00  0.00    +0.000 A 
ATOM     32  C   UNL     1       8.046   5.357  12.882  0.00  0.00    +0.000 A 
ATOM     33  N   UNL     1       7.852   5.494  14.209  0.00  0.00    +0.000 NA
ENDBRANCH  24  28
ENDBRANCH   4  20
TORSDOF 3
ENDMDL
MODEL 8
REMARK VINA RESULT:      -8.9      2.098      3.625
REMARK  Name = 
REMARK  3 active torsions:
REMARK  status: ('A' for Active; 'I' for Inactive)
REMARK    1  A    between atoms: N_3  and  C_4
REMARK    2  A    between atoms: C_7  and  C_8
REMARK    3  A    between atoms: C_12  and  C_14
REMARK                            x       y       z     vdW  Elec       q    Type
REMARK                         _______ _______ _______ _____ _____    ______ ____
ROOT
ATOM      1  C   UNL     1      -0.491  10.984  21.971  0.00  0.00    +0.000 A 
ATOM      2  C   UNL     1      -0.384  10.820  20.588  0.00  0.00    +0.000 A 
ATOM      3  C   UNL     1       0.230   9.688  20.050  0.00  0.00    +0.000 A 
ATOM      4  C   UNL     1       0.743   8.703  20.893  0.00  0.00    +0.000 A 
ATOM      5  C   UNL     1       0.654   8.867  22.278  0.00  0.00    +0.000 A 
ATOM      6  C   UNL     1       0.046  10.006  22.815  0.00  0.00    +0.000 A 
ENDROOT
BRANCH   1   9
ATOM      7  O   UNL     1       0.588  13.664  22.385  0.00  0.00    +0.000 OA
ATOM      8  C   UNL     1      -0.535  13.339  22.765  0.00  0.00    +0.000 C 
ATOM      9  N   UNL     1      -1.104  12.103  22.572  0.00  0.00    +0.000 N 
ATOM     10  N   UNL     1      -1.330  14.249  23.413  0.00  0.00    +0.000 N 
ATOM     11  C   UNL     1      -2.679  14.075  23.946  0.00  0.00    +0.000 C 
ATOM     12  C   UNL     1      -3.078  15.459  24.338  0.00  0.00    +0.000 A 
ATOM     13  C   UNL     1      -4.320  15.936  24.716  0.00  0.00    +0.000 A 
ATOM     14  C   UNL     1      -4.425  17.280  25.078  0.00  0.00    +0.000 A 
ATOM     15  C   UNL     1      -3.291  18.110  25.099  0.00  0.00    +0.000 A 
ATOM     16  C   UNL     1      -2.048  17.628  24.687  0.00  0.00    +0.000 A 
ATOM     17  C   UNL     1      -1.971  16.311  24.269  0.00  0.00    +0.000 A 
ATOM     18  C   UNL     1      -0.826  15.605  23.619  0.00  0.00    +0.000 C 
ATOM     19  H   UNL     1      -2.095  12.026  22.729  0.00  0.00    +0.000 HD
ENDBRANCH   1   9
BRANCH   4  20
ATOM     20  C   UNL     1       1.477   7.574  20.328  0.00  0.00    +0.000 C 
ATOM     21  C   UNL     1       2.177   7.770  19.201  0.00  0.00    +0.000 C 
ATOM     22  C   UNL     1       3.041   6.733  18.559  0.00  0.00    +0.000 C 
ATOM     23  N   UNL     1       3.111   5.498  19.338  0.00  0.00    +0.000 N 
ATOM     24  C   UNL     1       4.169   4.584  19.215  0.00  0.00    +0.000 C 
ATOM     25  O   UNL     1       4.225   3.540  19.869  0.00  0.00    +0.000 OA
ATOM     26  C   UNL     1       1.907   5.122  20.076  0.00  0.00    +0.000 C 
ATOM     27  C   UNL     1       1.431   6.238  21.011  0.00  0.00    +0.000 C 
BRANCH  24  28
ATOM     28  C   UNL     1       5.322   4.901  18.300  0.00  0.00    +0.000 A 
ATOM     29  C   UNL     1       6.416   5.596  18.801  0.00  0.00    +0.000 A 
ATOM     30  C   UNL     1       7.409   5.996  17.907  0.00  0.00    +0.000 A 
ATOM     31  C   UNL     1       7.282   5.689  16.557  0.00  0.00    +0.000 A 
ATOM     32  C   UNL     1       6.183   4.956  16.151  0.00  0.00    +0.000 A 
ATOM     33  N   UNL     1       5.215   4.536  16.992  0.00  0.00    +0.000 NA
ENDBRANCH  24  28
ENDBRANCH   4  20
TORSDOF 3
ENDMDL
MODEL 9
REMARK VINA RESULT:      -8.8      0.784      1.157
REMARK  Name = 
REMARK  3 active torsions:
REMARK  status: ('A' for Active; 'I' for Inactive)
REMARK    1  A    between atoms: N_3  and  C_4
REMARK    2  A    between atoms: C_7  and  C_8
REMARK    3  A    between atoms: C_12  and  C_14
REMARK                            x       y       z     vdW  Elec       q    Type
REMARK                         _______ _______ _______ _____ _____    ______ ____
ROOT
ATOM      1  C   UNL     1       0.930   9.164  20.013  0.00  0.00    +0.000 A 
ATOM      2  C   UNL     1       1.405   8.049  20.709  0.00  0.00    +0.000 A 
ATOM      3  C   UNL     1       2.363   7.209  20.139  0.00  0.00    +0.000 A 
ATOM      4  C   UNL     1       2.860   7.477  18.865  0.00  0.00    +0.000 A 
ATOM      5  C   UNL     1       2.379   8.582  18.156  0.00  0.00    +0.000 A 
ATOM      6  C   UNL     1       1.413   9.417  18.726  0.00  0.00    +0.000 A 
ENDROOT
BRANCH   1   9
ATOM      7  O   UNL     1       1.336  11.658  21.473  0.00  0.00    +0.000 OA
ATOM      8  C   UNL     1       0.218  11.201  21.244  0.00  0.00    +0.000 C 
ATOM      9  N   UNL     1      -0.033  10.050  20.538  0.00  0.00    +0.000 N 
ATOM     10  N   UNL     1      -0.897  11.867  21.683  0.00  0.00    +0.000 N 
ATOM     11  C   UNL     1      -2.304  11.507  21.527  0.00  0.00    +0.000 C 
ATOM     12  C   UNL     1      -3.029  12.713  22.026  0.00  0.00    +0.000 A 
ATOM     13  C   UNL     1      -4.373  13.023  21.935  0.00  0.00    +0.000 A 
ATOM     14  C   UNL     1      -4.815  14.209  22.524  0.00  0.00    +0.000 A 
ATOM     15  C   UNL     1      -3.924  15.038  23.227  0.00  0.00    +0.000 A 
ATOM     16  C   UNL     1      -2.564  14.732  23.288  0.00  0.00    +0.000 A 
ATOM     17  C   UNL     1      -2.129  13.587  22.644  0.00  0.00    +0.000 A 
ATOM     18  C   UNL     1      -0.728  13.129  22.402  0.00  0.00    +0.000 C 
ATOM     19  H   UNL     1      -0.979   9.899  20.231  0.00  0.00    +0.000 HD
ENDBRANCH   1   9
BRANCH   4  20
ATOM     20  C   UNL     1       3.783   6.538  18.232  0.00  0.00    +0.000 C 
ATOM     21  C   UNL     1       3.576   6.212  16.948  0.00  0.00    +0.000 C 
ATOM     22  C   UNL     1       4.484   5.335  16.148  0.00  0.00    +0.000 C 
ATOM     23  N   UNL     1       5.675   4.929  16.893  0.00  0.00    +0.000 N 
ATOM     24  C   UNL     1       6.859   4.518  16.263  0.00  0.00    +0.000 C 
ATOM     25  O   UNL     1       7.861   4.172  16.892  0.00  0.00    +0.000 OA
ATOM     26  C   UNL     1       5.509   4.729  18.331  0.00  0.00    +0.000 C 
ATOM     27  C   UNL     1       4.922   5.965  19.022  0.00  0.00    +0.000 C 
BRANCH  24  28
ATOM     28  C   UNL     1       6.950   4.550  14.760  0.00  0.00    +0.000 A 
ATOM     29  C   UNL     1       6.237   3.618  14.016  0.00  0.00    +0.000 A 
ATOM     30  C   UNL     1       6.441   3.580  12.637  0.00  0.00    +0.000 A 
ATOM     31  C   UNL     1       7.335   4.467  12.050  0.00  0.00    +0.000 A 
ATOM     32  C   UNL     1       7.968   5.393  12.859  0.00  0.00    +0.000 A 
ATOM     33  N   UNL     1       7.780   5.469  14.192  0.00  0.00    +0.000 NA
ENDBRANCH  24  28
ENDBRANCH   4  20
TORSDOF 3
ENDMDL
