MODEL 1
REMARK VINA RESULT:      -8.3      0.000      0.000
REMARK  Name = 
REMARK  10 active torsions:
REMARK  status: ('A' for Active; 'I' for Inactive)
REMARK    1  A    between atoms: C_1  and  C_2
REMARK    2  A    between atoms: C_2  and  C_3
REMARK    3  A    between atoms: C_7  and  C_8
REMARK    4  A    between atoms: C_8  and  C_9
REMARK    5  A    between atoms: C_10  and  C_11
REMARK    6  A    between atoms: C_11  and  N_12
REMARK    7  A    between atoms: C_13  and  C_15
REMARK    8  A    between atoms: C_21  and  C_22
REMARK    9  A    between atoms: C_26  and  S_27
REMARK   10  A    between atoms: S_27  and  N_28
REMARK                            x       y       z     vdW  Elec       q    Type
REMARK                         _______ _______ _______ _____ _____    ______ ____
ROOT
ATOM      1  C   UNL     1       1.345   8.853  19.417  0.00  0.00    +0.000 A 
ATOM      2  C   UNL     1       0.842   8.752  20.718  0.00  0.00    +0.000 A 
ATOM      3  C   UNL     1       1.100   7.626  21.517  0.00  0.00    +0.000 A 
ATOM      4  C   UNL     1       1.857   6.594  20.943  0.00  0.00    +0.000 A 
ATOM      5  N   UNL     1       2.248   5.369  21.413  0.00  0.00    +0.000 N 
ATOM      6  N   UNL     1       2.966   4.642  20.539  0.00  0.00    +0.000 NA
ATOM      7  C   UNL     1       3.007   5.401  19.432  0.00  0.00    +0.000 A 
ATOM      8  C   UNL     1       2.351   6.654  19.648  0.00  0.00    +0.000 A 
ATOM      9  C   UNL     1       2.108   7.809  18.879  0.00  0.00    +0.000 A 
ATOM     10  H   UNL     1       2.051   4.963  22.321  0.00  0.00    +0.000 HD
ENDROOT
BRANCH   7  11
ATOM     11  C   UNL     1       3.637   4.938  18.196  0.00  0.00    +0.000 A 
ATOM     12  C   UNL     1       2.952   4.129  17.282  0.00  0.00    +0.000 A 
ATOM     13  C   UNL     1       3.588   3.665  16.123  0.00  0.00    +0.000 A 
ATOM     14  C   UNL     1       4.912   4.014  15.859  0.00  0.00    +0.000 A 
ATOM     15  C   UNL     1       5.576   4.857  16.748  0.00  0.00    +0.000 A 
ATOM     16  C   UNL     1       4.952   5.314  17.909  0.00  0.00    +0.000 A 
BRANCH  15  17
ATOM     17  S   UNL     1       7.204   5.438  16.400  0.00  0.00    +0.000 S 
ATOM     18  O   UNL     1       7.487   5.229  14.998  0.00  0.00    +0.000 OA
ATOM     19  O   UNL     1       7.414   6.705  17.057  0.00  0.00    +0.000 OA
BRANCH  17  20
ATOM     20  N   UNL     1       8.103   4.306  17.249  0.00  0.00    +0.000 NA
ATOM     21  H   UNL     1       7.804   3.355  17.031  0.00  0.00    +0.000 HD
ATOM     22  H   UNL     1       9.101   4.483  17.152  0.00  0.00    +0.000 HD
ENDBRANCH  17  20
ENDBRANCH  15  17
ENDBRANCH   7  11
BRANCH   1  24
ATOM     23  N   UNL     1      -0.374  10.293  18.477  0.00  0.00    +0.000 N 
ATOM     24  C   UNL     1       0.974  10.003  18.546  0.00  0.00    +0.000 C 
ATOM     25  O   UNL     1       1.859  10.645  17.988  0.00  0.00    +0.000 OA
ATOM     26  H   UNL     1      -1.038   9.620  18.825  0.00  0.00    +0.000 HD
BRANCH  23  27
ATOM     27  C   UNL     1      -0.916  11.500  17.877  0.00  0.00    +0.000 C 
BRANCH  27  33
ATOM     28  C   UNL     1      -3.098  12.068  19.067  0.00  0.00    +0.000 A 
ATOM     29  C   UNL     1      -4.495  12.226  19.055  0.00  0.00    +0.000 A 
ATOM     30  C   UNL     1      -5.251  11.800  17.974  0.00  0.00    +0.000 A 
ATOM     31  C   UNL     1      -4.621  11.196  16.894  0.00  0.00    +0.000 A 
ATOM     32  C   UNL     1      -3.219  11.065  16.843  0.00  0.00    +0.000 A 
ATOM     33  C   UNL     1      -2.432  11.533  17.930  0.00  0.00    +0.000 A 
BRANCH  28  35
ATOM     34  C   UNL     1      -2.188  13.857  20.539  0.00  0.00    +0.000 C 
ATOM     35  C   UNL     1      -2.400  12.354  20.382  0.00  0.00    +0.000 C 
ENDBRANCH  28  35
BRANCH  32  36
ATOM     36  C   UNL     1      -2.651  10.371  15.621  0.00  0.00    +0.000 C 
ATOM     37  C   UNL     1      -3.672  10.207  14.500  0.00  0.00    +0.000 C 
ENDBRANCH  32  36
ENDBRANCH  27  33
ENDBRANCH  23  27
ENDBRANCH   1  24
TORSDOF 8
ENDMDL
MODEL 2
REMARK VINA RESULT:      -8.2      4.469     10.351
REMARK  Name = 
REMARK  10 active torsions:
REMARK  status: ('A' for Active; 'I' for Inactive)
REMARK    1  A    between atoms: C_1  and  C_2
REMARK    2  A    between atoms: C_2  and  C_3
REMARK    3  A    between atoms: C_7  and  C_8
REMARK    4  A    between atoms: C_8  and  C_9
REMARK    5  A    between atoms: C_10  and  C_11
REMARK    6  A    between atoms: C_11  and  N_12
REMARK    7  A    between atoms: C_13  and  C_15
REMARK    8  A    between atoms: C_21  and  C_22
REMARK    9  A    between atoms: C_26  and  S_27
REMARK   10  A    between atoms: S_27  and  N_28
REMARK                            x       y       z     vdW  Elec       q    Type
REMARK                         _______ _______ _______ _____ _____    ______ ____
ROOT
ATOM      1  C   UNL     1       1.001   9.433  19.891  0.00  0.00    +0.000 A 
ATOM      2  C   UNL     1       1.176   9.514  18.505  0.00  0.00    +0.000 A 
ATOM      3  C   UNL     1       0.714  10.619  17.773  0.00  0.00    +0.000 A 
ATOM      4  C   UNL     1       0.041  11.623  18.485  0.00  0.00    +0.000 A 
ATOM      5  N   UNL     1      -0.561  12.786  18.088  0.00  0.00    +0.000 N 
ATOM      6  N   UNL     1      -1.126  13.488  19.087  0.00  0.00    +0.000 NA
ATOM      7  C   UNL     1      -0.927  12.730  20.178  0.00  0.00    +0.000 A 
ATOM      8  C   UNL     1      -0.168  11.561  19.856  0.00  0.00    +0.000 A 
ATOM      9  C   UNL     1       0.336  10.459  20.573  0.00  0.00    +0.000 A 
ATOM     10  H   UNL     1      -0.631  13.158  17.148  0.00  0.00    +0.000 HD
ENDROOT
BRANCH   7  11
ATOM     11  C   UNL     1      -1.463  13.100  21.488  0.00  0.00    +0.000 A 
ATOM     12  C   UNL     1      -0.660  13.698  22.466  0.00  0.00    +0.000 A 
ATOM     13  C   UNL     1      -1.184  14.008  23.728  0.00  0.00    +0.000 A 
ATOM     14  C   UNL     1      -2.520  13.734  24.022  0.00  0.00    +0.000 A 
ATOM     15  C   UNL     1      -3.328  13.180  23.030  0.00  0.00    +0.000 A 
ATOM     16  C   UNL     1      -2.809  12.860  21.776  0.00  0.00    +0.000 A 
BRANCH  15  17
ATOM     17  S   UNL     1      -5.052  12.935  23.300  0.00  0.00    +0.000 S 
ATOM     18  O   UNL     1      -5.638  14.178  23.749  0.00  0.00    +0.000 OA
ATOM     19  O   UNL     1      -5.604  12.160  22.215  0.00  0.00    +0.000 OA
BRANCH  17  20
ATOM     20  N   UNL     1      -4.995  11.919  24.632  0.00  0.00    +0.000 NA
ATOM     21  H   UNL     1      -4.596  11.012  24.390  0.00  0.00    +0.000 HD
ATOM     22  H   UNL     1      -4.569  12.385  25.431  0.00  0.00    +0.000 HD
ENDBRANCH  17  20
ENDBRANCH  15  17
ENDBRANCH   7  11
BRANCH   1  24
ATOM     23  N   UNL     1       1.837   7.149  19.864  0.00  0.00    +0.000 N 
ATOM     24  C   UNL     1       1.401   8.207  20.636  0.00  0.00    +0.000 C 
ATOM     25  O   UNL     1       1.369   8.212  21.863  0.00  0.00    +0.000 OA
ATOM     26  H   UNL     1       1.672   7.168  18.870  0.00  0.00    +0.000 HD
BRANCH  23  27
ATOM     27  C   UNL     1       2.481   5.963  20.399  0.00  0.00    +0.000 C 
BRANCH  27  33
ATOM     28  C   UNL     1       1.719   3.733  19.426  0.00  0.00    +0.000 A 
ATOM     29  C   UNL     1       1.726   2.780  18.392  0.00  0.00    +0.000 A 
ATOM     30  C   UNL     1       2.624   2.878  17.340  0.00  0.00    +0.000 A 
ATOM     31  C   UNL     1       3.538   3.923  17.315  0.00  0.00    +0.000 A 
ATOM     32  C   UNL     1       3.530   4.927  18.304  0.00  0.00    +0.000 A 
ATOM     33  C   UNL     1       2.588   4.856  19.367  0.00  0.00    +0.000 A 
BRANCH  28  35
ATOM     34  C   UNL     1       1.663   2.564  21.622  0.00  0.00    +0.000 C 
ATOM     35  C   UNL     1       0.863   3.407  20.634  0.00  0.00    +0.000 C 
ENDBRANCH  28  35
BRANCH  32  36
ATOM     36  C   UNL     1       4.589   6.005  18.179  0.00  0.00    +0.000 C 
ATOM     37  C   UNL     1       4.727   6.543  16.758  0.00  0.00    +0.000 C 
ENDBRANCH  32  36
ENDBRANCH  27  33
ENDBRANCH  23  27
ENDBRANCH   1  24
TORSDOF 8
ENDMDL
MODEL 3
REMARK VINA RESULT:      -8.2      0.785      2.455
REMARK  Name = 
REMARK  10 active torsions:
REMARK  status: ('A' for Active; 'I' for Inactive)
REMARK    1  A    between atoms: C_1  and  C_2
REMARK    2  A    between atoms: C_2  and  C_3
REMARK    3  A    between atoms: C_7  and  C_8
REMARK    4  A    between atoms: C_8  and  C_9
REMARK    5  A    between atoms: C_10  and  C_11
REMARK    6  A    between atoms: C_11  and  N_12
REMARK    7  A    between atoms: C_13  and  C_15
REMARK    8  A    between atoms: C_21  and  C_22
REMARK    9  A    between atoms: C_26  and  S_27
REMARK   10  A    between atoms: S_27  and  N_28
REMARK                            x       y       z     vdW  Elec       q    Type
REMARK                         _______ _______ _______ _____ _____    ______ ____
ROOT
ATOM      1  C   UNL     1       1.376   8.810  19.428  0.00  0.00    +0.000 A 
ATOM      2  C   UNL     1       0.834   8.709  20.713  0.00  0.00    +0.000 A 
ATOM      3  C   UNL     1       1.061   7.580  21.516  0.00  0.00    +0.000 A 
ATOM      4  C   UNL     1       1.829   6.544  20.962  0.00  0.00    +0.000 A 
ATOM      5  N   UNL     1       2.198   5.316  21.440  0.00  0.00    +0.000 N 
ATOM      6  N   UNL     1       2.937   4.586  20.586  0.00  0.00    +0.000 NA
ATOM      7  C   UNL     1       3.015   5.349  19.482  0.00  0.00    +0.000 A 
ATOM      8  C   UNL     1       2.361   6.605  19.682  0.00  0.00    +0.000 A 
ATOM      9  C   UNL     1       2.148   7.763  18.910  0.00  0.00    +0.000 A 
ATOM     10  H   UNL     1       1.972   4.909  22.341  0.00  0.00    +0.000 HD
ENDROOT
BRANCH   7  11
ATOM     11  C   UNL     1       3.678   4.885  18.264  0.00  0.00    +0.000 A 
ATOM     12  C   UNL     1       2.991   4.156  17.286  0.00  0.00    +0.000 A 
ATOM     13  C   UNL     1       3.655   3.688  16.145  0.00  0.00    +0.000 A 
ATOM     14  C   UNL     1       5.012   3.953  15.963  0.00  0.00    +0.000 A 
ATOM     15  C   UNL     1       5.683   4.718  16.915  0.00  0.00    +0.000 A 
ATOM     16  C   UNL     1       5.029   5.177  18.059  0.00  0.00    +0.000 A 
BRANCH  15  17
ATOM     17  S   UNL     1       7.362   5.196  16.674  0.00  0.00    +0.000 S 
ATOM     18  O   UNL     1       8.221   4.244  17.342  0.00  0.00    +0.000 OA
ATOM     19  O   UNL     1       7.558   5.592  15.300  0.00  0.00    +0.000 OA
BRANCH  17  20
ATOM     20  N   UNL     1       7.397   6.602  17.586  0.00  0.00    +0.000 NA
ATOM     21  H   UNL     1       6.874   7.351  17.133  0.00  0.00    +0.000 HD
ATOM     22  H   UNL     1       7.144   6.417  18.555  0.00  0.00    +0.000 HD
ENDBRANCH  17  20
ENDBRANCH  15  17
ENDBRANCH   7  11
BRANCH   1  24
ATOM     23  N   UNL     1      -0.286  10.357  18.557  0.00  0.00    +0.000 N 
ATOM     24  C   UNL     1       1.037   9.965  18.549  0.00  0.00    +0.000 C 
ATOM     25  O   UNL     1       1.930  10.523  17.918  0.00  0.00    +0.000 OA
ATOM     26  H   UNL     1      -0.976   9.746  18.965  0.00  0.00    +0.000 HD
BRANCH  23  27
ATOM     27  C   UNL     1      -0.773  11.587  17.958  0.00  0.00    +0.000 C 
BRANCH  27  33
ATOM     28  C   UNL     1      -3.215  11.449  17.239  0.00  0.00    +0.000 A 
ATOM     29  C   UNL     1      -4.587  11.523  17.539  0.00  0.00    +0.000 A 
ATOM     30  C   UNL     1      -5.024  12.008  18.762  0.00  0.00    +0.000 A 
ATOM     31  C   UNL     1      -4.095  12.440  19.698  0.00  0.00    +0.000 A 
ATOM     32  C   UNL     1      -2.710  12.337  19.458  0.00  0.00    +0.000 A 
ATOM     33  C   UNL     1      -2.251  11.806  18.221  0.00  0.00    +0.000 A 
BRANCH  28  35
ATOM     34  C   UNL     1      -2.962   9.621  15.569  0.00  0.00    +0.000 C 
ATOM     35  C   UNL     1      -2.858  11.126  15.802  0.00  0.00    +0.000 C 
ENDBRANCH  28  35
BRANCH  32  36
ATOM     36  C   UNL     1      -1.796  12.861  20.548  0.00  0.00    +0.000 C 
ATOM     37  C   UNL     1      -1.524  11.834  21.643  0.00  0.00    +0.000 C 
ENDBRANCH  32  36
ENDBRANCH  27  33
ENDBRANCH  23  27
ENDBRANCH   1  24
TORSDOF 8
ENDMDL
MODEL 4
REMARK VINA RESULT:      -8.2      4.225      8.978
REMARK  Name = 
REMARK  10 active torsions:
REMARK  status: ('A' for Active; 'I' for Inactive)
REMARK    1  A    between atoms: C_1  and  C_2
REMARK    2  A    between atoms: C_2  and  C_3
REMARK    3  A    between atoms: C_7  and  C_8
REMARK    4  A    between atoms: C_8  and  C_9
REMARK    5  A    between atoms: C_10  and  C_11
REMARK    6  A    between atoms: C_11  and  N_12
REMARK    7  A    between atoms: C_13  and  C_15
REMARK    8  A    between atoms: C_21  and  C_22
REMARK    9  A    between atoms: C_26  and  S_27
REMARK   10  A    between atoms: S_27  and  N_28
REMARK                            x       y       z     vdW  Elec       q    Type
REMARK                         _______ _______ _______ _____ _____    ______ ____
ROOT
ATOM      1  C   UNL     1       0.582   9.763  19.591  0.00  0.00    +0.000 A 
ATOM      2  C   UNL     1      -0.767   9.701  19.227  0.00  0.00    +0.000 A 
ATOM      3  C   UNL     1      -1.433  10.817  18.697  0.00  0.00    +0.000 A 
ATOM      4  C   UNL     1      -0.696  12.005  18.576  0.00  0.00    +0.000 A 
ATOM      5  N   UNL     1      -1.037  13.260  18.149  0.00  0.00    +0.000 N 
ATOM      6  N   UNL     1      -0.035  14.155  18.198  0.00  0.00    +0.000 NA
ATOM      7  C   UNL     1       0.995  13.471  18.724  0.00  0.00    +0.000 A 
ATOM      8  C   UNL     1       0.637  12.104  18.949  0.00  0.00    +0.000 A 
ATOM      9  C   UNL     1       1.292  10.961  19.446  0.00  0.00    +0.000 A 
ATOM     10  H   UNL     1      -1.941  13.577  17.817  0.00  0.00    +0.000 HD
ENDROOT
BRANCH   7  11
ATOM     11  C   UNL     1       2.277  14.107  19.023  0.00  0.00    +0.000 A 
ATOM     12  C   UNL     1       3.033  14.738  18.028  0.00  0.00    +0.000 A 
ATOM     13  C   UNL     1       4.278  15.306  18.329  0.00  0.00    +0.000 A 
ATOM     14  C   UNL     1       4.775  15.261  19.631  0.00  0.00    +0.000 A 
ATOM     15  C   UNL     1       4.000  14.672  20.628  0.00  0.00    +0.000 A 
ATOM     16  C   UNL     1       2.765  14.095  20.332  0.00  0.00    +0.000 A 
BRANCH  15  17
ATOM     17  S   UNL     1       4.517  14.702  22.313  0.00  0.00    +0.000 S 
ATOM     18  O   UNL     1       3.562  15.468  23.082  0.00  0.00    +0.000 OA
ATOM     19  O   UNL     1       4.957  13.385  22.706  0.00  0.00    +0.000 OA
BRANCH  17  20
ATOM     20  N   UNL     1       5.896  15.645  22.176  0.00  0.00    +0.000 NA
ATOM     21  H   UNL     1       6.705  15.085  21.910  0.00  0.00    +0.000 HD
ATOM     22  H   UNL     1       5.723  16.465  21.597  0.00  0.00    +0.000 HD
ENDBRANCH  17  20
ENDBRANCH  15  17
ENDBRANCH   7  11
BRANCH   1  24
ATOM     23  N   UNL     1       1.928   7.744  19.414  0.00  0.00    +0.000 N 
ATOM     24  C   UNL     1       1.244   8.603  20.252  0.00  0.00    +0.000 C 
ATOM     25  O   UNL     1       1.192   8.497  21.473  0.00  0.00    +0.000 OA
ATOM     26  H   UNL     1       1.779   7.808  18.419  0.00  0.00    +0.000 HD
BRANCH  23  27
ATOM     27  C   UNL     1       2.821   6.697  19.877  0.00  0.00    +0.000 C 
BRANCH  27  33
ATOM     28  C   UNL     1       1.847   4.441  19.199  0.00  0.00    +0.000 A 
ATOM     29  C   UNL     1       1.730   3.383  18.279  0.00  0.00    +0.000 A 
ATOM     30  C   UNL     1       2.573   3.295  17.183  0.00  0.00    +0.000 A 
ATOM     31  C   UNL     1       3.558   4.257  16.998  0.00  0.00    +0.000 A 
ATOM     32  C   UNL     1       3.676   5.361  17.866  0.00  0.00    +0.000 A 
ATOM     33  C   UNL     1       2.792   5.479  18.973  0.00  0.00    +0.000 A 
BRANCH  28  35
ATOM     34  C   UNL     1       1.277   2.948  21.107  0.00  0.00    +0.000 C 
ATOM     35  C   UNL     1       1.037   4.316  20.474  0.00  0.00    +0.000 C 
ENDBRANCH  28  35
BRANCH  32  36
ATOM     36  C   UNL     1       4.802   6.332  17.571  0.00  0.00    +0.000 C 
ATOM     37  C   UNL     1       5.078   6.490  16.080  0.00  0.00    +0.000 C 
ENDBRANCH  32  36
ENDBRANCH  27  33
ENDBRANCH  23  27
ENDBRANCH   1  24
TORSDOF 8
ENDMDL
MODEL 5
REMARK VINA RESULT:      -8.2      4.357     10.255
REMARK  Name = 
REMARK  10 active torsions:
REMARK  status: ('A' for Active; 'I' for Inactive)
REMARK    1  A    between atoms: C_1  and  C_2
REMARK    2  A    between atoms: C_2  and  C_3
REMARK    3  A    between atoms: C_7  and  C_8
REMARK    4  A    between atoms: C_8  and  C_9
REMARK    5  A    between atoms: C_10  and  C_11
REMARK    6  A    between atoms: C_11  and  N_12
REMARK    7  A    between atoms: C_13  and  C_15
REMARK    8  A    between atoms: C_21  and  C_22
REMARK    9  A    between atoms: C_26  and  S_27
REMARK   10  A    between atoms: S_27  and  N_28
REMARK                            x       y       z     vdW  Elec       q    Type
REMARK                         _______ _______ _______ _____ _____    ______ ____
ROOT
ATOM      1  C   UNL     1       1.446   9.040  19.706  0.00  0.00    +0.000 A 
ATOM      2  C   UNL     1       2.060   9.383  18.496  0.00  0.00    +0.000 A 
ATOM      3  C   UNL     1       1.805  10.613  17.871  0.00  0.00    +0.000 A 
ATOM      4  C   UNL     1       0.885  11.470  18.492  0.00  0.00    +0.000 A 
ATOM      5  N   UNL     1       0.385  12.695  18.141  0.00  0.00    +0.000 N 
ATOM      6  N   UNL     1      -0.512  13.199  19.008  0.00  0.00    +0.000 NA
ATOM      7  C   UNL     1      -0.641  12.243  19.943  0.00  0.00    +0.000 A 
ATOM      8  C   UNL     1       0.242  11.148  19.680  0.00  0.00    +0.000 A 
ATOM      9  C   UNL     1       0.541   9.924  20.306  0.00  0.00    +0.000 A 
ATOM     10  H   UNL     1       0.608  13.241  17.317  0.00  0.00    +0.000 HD
ENDROOT
BRANCH   7  11
ATOM     11  C   UNL     1      -1.594  12.360  21.045  0.00  0.00    +0.000 A 
ATOM     12  C   UNL     1      -1.186  12.272  22.382  0.00  0.00    +0.000 A 
ATOM     13  C   UNL     1      -2.121  12.347  23.422  0.00  0.00    +0.000 A 
ATOM     14  C   UNL     1      -3.475  12.525  23.138  0.00  0.00    +0.000 A 
ATOM     15  C   UNL     1      -3.873  12.659  21.809  0.00  0.00    +0.000 A 
ATOM     16  C   UNL     1      -2.948  12.573  20.769  0.00  0.00    +0.000 A 
BRANCH  15  17
ATOM     17  S   UNL     1      -5.549  13.017  21.397  0.00  0.00    +0.000 S 
ATOM     18  O   UNL     1      -6.403  12.017  21.999  0.00  0.00    +0.000 OA
ATOM     19  O   UNL     1      -5.788  14.433  21.538  0.00  0.00    +0.000 OA
BRANCH  17  20
ATOM     20  N   UNL     1      -5.517  12.699  19.752  0.00  0.00    +0.000 NA
ATOM     21  H   UNL     1      -4.858  13.308  19.268  0.00  0.00    +0.000 HD
ATOM     22  H   UNL     1      -5.404  11.702  19.573  0.00  0.00    +0.000 HD
ENDBRANCH  17  20
ENDBRANCH  15  17
ENDBRANCH   7  11
BRANCH   1  24
ATOM     23  N   UNL     1       2.576   6.886  19.674  0.00  0.00    +0.000 N 
ATOM     24  C   UNL     1       1.644   7.688  20.301  0.00  0.00    +0.000 C 
ATOM     25  O   UNL     1       1.023   7.381  21.315  0.00  0.00    +0.000 OA
ATOM     26  H   UNL     1       2.910   7.147  18.760  0.00  0.00    +0.000 HD
BRANCH  23  27
ATOM     27  C   UNL     1       3.078   5.640  20.225  0.00  0.00    +0.000 C 
BRANCH  27  33
ATOM     28  C   UNL     1       1.845   3.591  19.341  0.00  0.00    +0.000 A 
ATOM     29  C   UNL     1       1.649   2.611  18.351  0.00  0.00    +0.000 A 
ATOM     30  C   UNL     1       2.555   2.454  17.314  0.00  0.00    +0.000 A 
ATOM     31  C   UNL     1       3.679   3.267  17.259  0.00  0.00    +0.000 A 
ATOM     32  C   UNL     1       3.887   4.295  18.201  0.00  0.00    +0.000 A 
ATOM     33  C   UNL     1       2.944   4.488  19.247  0.00  0.00    +0.000 A 
BRANCH  28  35
ATOM     34  C   UNL     1       1.538   2.617  21.610  0.00  0.00    +0.000 C 
ATOM     35  C   UNL     1       0.927   3.523  20.545  0.00  0.00    +0.000 C 
ENDBRANCH  28  35
BRANCH  32  36
ATOM     36  C   UNL     1       5.161   5.102  18.047  0.00  0.00    +0.000 C 
ATOM     37  C   UNL     1       6.132   4.498  17.037  0.00  0.00    +0.000 C 
ENDBRANCH  32  36
ENDBRANCH  27  33
ENDBRANCH  23  27
ENDBRANCH   1  24
TORSDOF 8
ENDMDL
MODEL 6
REMARK VINA RESULT:      -8.2      4.563     10.281
REMARK  Name = 
REMARK  10 active torsions:
REMARK  status: ('A' for Active; 'I' for Inactive)
REMARK    1  A    between atoms: C_1  and  C_2
REMARK    2  A    between atoms: C_2  and  C_3
REMARK    3  A    between atoms: C_7  and  C_8
REMARK    4  A    between atoms: C_8  and  C_9
REMARK    5  A    between atoms: C_10  and  C_11
REMARK    6  A    between atoms: C_11  and  N_12
REMARK    7  A    between atoms: C_13  and  C_15
REMARK    8  A    between atoms: C_21  and  C_22
REMARK    9  A    between atoms: C_26  and  S_27
REMARK   10  A    between atoms: S_27  and  N_28
REMARK                            x       y       z     vdW  Elec       q    Type
REMARK                         _______ _______ _______ _____ _____    ______ ____
ROOT
ATOM      1  C   UNL     1      -1.923  11.234  18.106  0.00  0.00    +0.000 A 
ATOM      2  C   UNL     1      -2.300  10.652  16.890  0.00  0.00    +0.000 A 
ATOM      3  C   UNL     1      -3.630  10.690  16.443  0.00  0.00    +0.000 A 
ATOM      4  C   UNL     1      -4.570  11.307  17.281  0.00  0.00    +0.000 A 
ATOM      5  N   UNL     1      -5.924  11.477  17.177  0.00  0.00    +0.000 N 
ATOM      6  N   UNL     1      -6.486  12.119  18.217  0.00  0.00    +0.000 NA
ATOM      7  C   UNL     1      -5.465  12.336  19.062  0.00  0.00    +0.000 A 
ATOM      8  C   UNL     1      -4.232  11.872  18.503  0.00  0.00    +0.000 A 
ATOM      9  C   UNL     1      -2.885  11.853  18.913  0.00  0.00    +0.000 A 
ATOM     10  H   UNL     1      -6.530  11.172  16.424  0.00  0.00    +0.000 HD
ENDROOT
BRANCH   7  11
ATOM     11  C   UNL     1      -5.660  12.951  20.374  0.00  0.00    +0.000 A 
ATOM     12  C   UNL     1      -6.709  13.848  20.616  0.00  0.00    +0.000 A 
ATOM     13  C   UNL     1      -6.855  14.456  21.869  0.00  0.00    +0.000 A 
ATOM     14  C   UNL     1      -5.961  14.164  22.900  0.00  0.00    +0.000 A 
ATOM     15  C   UNL     1      -4.946  13.237  22.670  0.00  0.00    +0.000 A 
ATOM     16  C   UNL     1      -4.790  12.638  21.421  0.00  0.00    +0.000 A 
BRANCH  15  17
ATOM     17  S   UNL     1      -3.870  12.732  23.971  0.00  0.00    +0.000 S 
ATOM     18  O   UNL     1      -3.017  11.669  23.488  0.00  0.00    +0.000 OA
ATOM     19  O   UNL     1      -3.355  13.896  24.651  0.00  0.00    +0.000 OA
BRANCH  17  20
ATOM     20  N   UNL     1      -4.982  12.026  25.008  0.00  0.00    +0.000 NA
ATOM     21  H   UNL     1      -5.911  11.991  24.590  0.00  0.00    +0.000 HD
ATOM     22  H   UNL     1      -4.633  11.141  25.372  0.00  0.00    +0.000 HD
ENDBRANCH  17  20
ENDBRANCH  15  17
ENDBRANCH   7  11
BRANCH   1  24
ATOM     23  N   UNL     1       0.150   9.965  18.200  0.00  0.00    +0.000 N 
ATOM     24  C   UNL     1      -0.531  11.092  18.616  0.00  0.00    +0.000 C 
ATOM     25  O   UNL     1      -0.055  11.978  19.320  0.00  0.00    +0.000 OA
ATOM     26  H   UNL     1      -0.365   9.213  17.769  0.00  0.00    +0.000 HD
BRANCH  23  27
ATOM     27  C   UNL     1       1.574   9.757  18.394  0.00  0.00    +0.000 C 
BRANCH  27  33
ATOM     28  C   UNL     1       1.396   8.201  20.407  0.00  0.00    +0.000 A 
ATOM     29  C   UNL     1       1.552   6.932  20.992  0.00  0.00    +0.000 A 
ATOM     30  C   UNL     1       2.228   5.920  20.329  0.00  0.00    +0.000 A 
ATOM     31  C   UNL     1       2.771   6.167  19.076  0.00  0.00    +0.000 A 
ATOM     32  C   UNL     1       2.594   7.408  18.431  0.00  0.00    +0.000 A 
ATOM     33  C   UNL     1       1.870   8.440  19.088  0.00  0.00    +0.000 A 
BRANCH  28  35
ATOM     34  C   UNL     1      -0.404   8.796  22.019  0.00  0.00    +0.000 C 
ATOM     35  C   UNL     1       0.850   9.293  21.305  0.00  0.00    +0.000 C 
ENDBRANCH  28  35
BRANCH  32  36
ATOM     36  C   UNL     1       3.252   7.562  17.074  0.00  0.00    +0.000 C 
ATOM     37  C   UNL     1       4.549   6.771  16.946  0.00  0.00    +0.000 C 
ENDBRANCH  32  36
ENDBRANCH  27  33
ENDBRANCH  23  27
ENDBRANCH   1  24
TORSDOF 8
ENDMDL
MODEL 7
REMARK VINA RESULT:      -8.1      4.023      9.051
REMARK  Name = 
REMARK  10 active torsions:
REMARK  status: ('A' for Active; 'I' for Inactive)
REMARK    1  A    between atoms: C_1  and  C_2
REMARK    2  A    between atoms: C_2  and  C_3
REMARK    3  A    between atoms: C_7  and  C_8
REMARK    4  A    between atoms: C_8  and  C_9
REMARK    5  A    between atoms: C_10  and  C_11
REMARK    6  A    between atoms: C_11  and  N_12
REMARK    7  A    between atoms: C_13  and  C_15
REMARK    8  A    between atoms: C_21  and  C_22
REMARK    9  A    between atoms: C_26  and  S_27
REMARK   10  A    between atoms: S_27  and  N_28
REMARK                            x       y       z     vdW  Elec       q    Type
REMARK                         _______ _______ _______ _____ _____    ______ ____
ROOT
ATOM      1  C   UNL     1       0.645   9.747  19.524  0.00  0.00    +0.000 A 
ATOM      2  C   UNL     1      -0.542   9.571  18.804  0.00  0.00    +0.000 A 
ATOM      3  C   UNL     1      -1.225  10.662  18.244  0.00  0.00    +0.000 A 
ATOM      4  C   UNL     1      -0.684  11.938  18.463  0.00  0.00    +0.000 A 
ATOM      5  N   UNL     1      -1.107  13.189  18.106  0.00  0.00    +0.000 N 
ATOM      6  N   UNL     1      -0.308  14.187  18.526  0.00  0.00    +0.000 NA
ATOM      7  C   UNL     1       0.654  13.566  19.229  0.00  0.00    +0.000 A 
ATOM      8  C   UNL     1       0.478  12.147  19.192  0.00  0.00    +0.000 A 
ATOM      9  C   UNL     1       1.164  11.034  19.714  0.00  0.00    +0.000 A 
ATOM     10  H   UNL     1      -1.938  13.436  17.580  0.00  0.00    +0.000 HD
ENDROOT
BRANCH   7  11
ATOM     11  C   UNL     1       1.699  14.306  19.935  0.00  0.00    +0.000 A 
ATOM     12  C   UNL     1       1.588  14.617  21.295  0.00  0.00    +0.000 A 
ATOM     13  C   UNL     1       2.583  15.361  21.943  0.00  0.00    +0.000 A 
ATOM     14  C   UNL     1       3.708  15.791  21.239  0.00  0.00    +0.000 A 
ATOM     15  C   UNL     1       3.839  15.440  19.897  0.00  0.00    +0.000 A 
ATOM     16  C   UNL     1       2.846  14.709  19.245  0.00  0.00    +0.000 A 
BRANCH  15  17
ATOM     17  S   UNL     1       5.298  15.842  18.994  0.00  0.00    +0.000 S 
ATOM     18  O   UNL     1       5.250  17.239  18.623  0.00  0.00    +0.000 OA
ATOM     19  O   UNL     1       6.443  15.245  19.638  0.00  0.00    +0.000 OA
BRANCH  17  20
ATOM     20  N   UNL     1       5.024  14.961  17.595  0.00  0.00    +0.000 NA
ATOM     21  H   UNL     1       4.777  15.569  16.815  0.00  0.00    +0.000 HD
ATOM     22  H   UNL     1       5.786  14.309  17.416  0.00  0.00    +0.000 HD
ENDBRANCH  17  20
ENDBRANCH  15  17
ENDBRANCH   7  11
BRANCH   1  24
ATOM     23  N   UNL     1       1.925   7.684  19.373  0.00  0.00    +0.000 N 
ATOM     24  C   UNL     1       1.299   8.593  20.203  0.00  0.00    +0.000 C 
ATOM     25  O   UNL     1       1.292   8.534  21.429  0.00  0.00    +0.000 OA
ATOM     26  H   UNL     1       1.739   7.716  18.383  0.00  0.00    +0.000 HD
BRANCH  23  27
ATOM     27  C   UNL     1       2.806   6.629  19.841  0.00  0.00    +0.000 C 
BRANCH  27  33
ATOM     28  C   UNL     1       1.803   4.379  19.183  0.00  0.00    +0.000 A 
ATOM     29  C   UNL     1       1.669   3.317  18.271  0.00  0.00    +0.000 A 
ATOM     30  C   UNL     1       2.507   3.211  17.172  0.00  0.00    +0.000 A 
ATOM     31  C   UNL     1       3.501   4.160  16.976  0.00  0.00    +0.000 A 
ATOM     32  C   UNL     1       3.637   5.268  17.836  0.00  0.00    +0.000 A 
ATOM     33  C   UNL     1       2.758   5.405  18.946  0.00  0.00    +0.000 A 
BRANCH  28  35
ATOM     34  C   UNL     1       1.351   2.980  21.191  0.00  0.00    +0.000 C 
ATOM     35  C   UNL     1       0.997   4.273  20.462  0.00  0.00    +0.000 C 
ENDBRANCH  28  35
BRANCH  32  36
ATOM     36  C   UNL     1       4.773   6.224  17.530  0.00  0.00    +0.000 C 
ATOM     37  C   UNL     1       5.167   6.229  16.057  0.00  0.00    +0.000 C 
ENDBRANCH  32  36
ENDBRANCH  27  33
ENDBRANCH  23  27
ENDBRANCH   1  24
TORSDOF 8
ENDMDL
MODEL 8
REMARK VINA RESULT:      -8.1      4.344     10.273
REMARK  Name = 
REMARK  10 active torsions:
REMARK  status: ('A' for Active; 'I' for Inactive)
REMARK    1  A    between atoms: C_1  and  C_2
REMARK    2  A    between atoms: C_2  and  C_3
REMARK    3  A    between atoms: C_7  and  C_8
REMARK    4  A    between atoms: C_8  and  C_9
REMARK    5  A    between atoms: C_10  and  C_11
REMARK    6  A    between atoms: C_11  and  N_12
REMARK    7  A    between atoms: C_13  and  C_15
REMARK    8  A    between atoms: C_21  and  C_22
REMARK    9  A    between atoms: C_26  and  S_27
REMARK   10  A    between atoms: S_27  and  N_28
REMARK                            x       y       z     vdW  Elec       q    Type
REMARK                         _______ _______ _______ _____ _____    ______ ____
ROOT
ATOM      1  C   UNL     1       1.561   9.016  19.634  0.00  0.00    +0.000 A 
ATOM      2  C   UNL     1       2.181   9.389  18.437  0.00  0.00    +0.000 A 
ATOM      3  C   UNL     1       1.933  10.636  17.842  0.00  0.00    +0.000 A 
ATOM      4  C   UNL     1       1.012  11.479  18.483  0.00  0.00    +0.000 A 
ATOM      5  N   UNL     1       0.518  12.714  18.161  0.00  0.00    +0.000 N 
ATOM      6  N   UNL     1      -0.381  13.198  19.037  0.00  0.00    +0.000 NA
ATOM      7  C   UNL     1      -0.517  12.218  19.946  0.00  0.00    +0.000 A 
ATOM      8  C   UNL     1       0.363  11.128  19.658  0.00  0.00    +0.000 A 
ATOM      9  C   UNL     1       0.656   9.886  20.253  0.00  0.00    +0.000 A 
ATOM     10  H   UNL     1       0.746  13.281  17.352  0.00  0.00    +0.000 HD
ENDROOT
BRANCH   7  11
ATOM     11  C   UNL     1      -1.475  12.309  21.047  0.00  0.00    +0.000 A 
ATOM     12  C   UNL     1      -1.080  12.143  22.380  0.00  0.00    +0.000 A 
ATOM     13  C   UNL     1      -2.020  12.195  23.417  0.00  0.00    +0.000 A 
ATOM     14  C   UNL     1      -3.366  12.427  23.134  0.00  0.00    +0.000 A 
ATOM     15  C   UNL     1      -3.750  12.638  21.811  0.00  0.00    +0.000 A 
ATOM     16  C   UNL     1      -2.819  12.576  20.774  0.00  0.00    +0.000 A 
BRANCH  15  17
ATOM     17  S   UNL     1      -5.411  13.066  21.407  0.00  0.00    +0.000 S 
ATOM     18  O   UNL     1      -6.203  11.857  21.338  0.00  0.00    +0.000 OA
ATOM     19  O   UNL     1      -5.814  14.218  22.177  0.00  0.00    +0.000 OA
BRANCH  17  20
ATOM     20  N   UNL     1      -5.199  13.595  19.831  0.00  0.00    +0.000 NA
ATOM     21  H   UNL     1      -6.035  13.436  19.270  0.00  0.00    +0.000 HD
ATOM     22  H   UNL     1      -4.832  14.545  19.810  0.00  0.00    +0.000 HD
ENDBRANCH  17  20
ENDBRANCH  15  17
ENDBRANCH   7  11
BRANCH   1  24
ATOM     23  N   UNL     1       2.693   6.865  19.558  0.00  0.00    +0.000 N 
ATOM     24  C   UNL     1       1.752   7.649  20.194  0.00  0.00    +0.000 C 
ATOM     25  O   UNL     1       1.119   7.313  21.191  0.00  0.00    +0.000 OA
ATOM     26  H   UNL     1       3.039   7.150  18.655  0.00  0.00    +0.000 HD
BRANCH  23  27
ATOM     27  C   UNL     1       3.189   5.604  20.081  0.00  0.00    +0.000 C 
BRANCH  27  33
ATOM     28  C   UNL     1       3.731   4.312  17.950  0.00  0.00    +0.000 A 
ATOM     29  C   UNL     1       3.594   3.171  17.141  0.00  0.00    +0.000 A 
ATOM     30  C   UNL     1       2.645   2.202  17.429  0.00  0.00    +0.000 A 
ATOM     31  C   UNL     1       1.808   2.369  18.524  0.00  0.00    +0.000 A 
ATOM     32  C   UNL     1       1.946   3.472  19.390  0.00  0.00    +0.000 A 
ATOM     33  C   UNL     1       2.942   4.452  19.124  0.00  0.00    +0.000 A 
BRANCH  28  35
ATOM     34  C   UNL     1       6.090   5.067  17.711  0.00  0.00    +0.000 C 
ATOM     35  C   UNL     1       4.632   5.409  17.419  0.00  0.00    +0.000 C 
ENDBRANCH  28  35
BRANCH  32  36
ATOM     36  C   UNL     1       0.961   3.554  20.540  0.00  0.00    +0.000 C 
ATOM     37  C   UNL     1       1.354   2.679  21.725  0.00  0.00    +0.000 C 
ENDBRANCH  32  36
ENDBRANCH  27  33
ENDBRANCH  23  27
ENDBRANCH   1  24
TORSDOF 8
ENDMDL
MODEL 9
REMARK VINA RESULT:      -8.1      4.396     10.361
REMARK  Name = 
REMARK  10 active torsions:
REMARK  status: ('A' for Active; 'I' for Inactive)
REMARK    1  A    between atoms: C_1  and  C_2
REMARK    2  A    between atoms: C_2  and  C_3
REMARK    3  A    between atoms: C_7  and  C_8
REMARK    4  A    between atoms: C_8  and  C_9
REMARK    5  A    between atoms: C_10  and  C_11
REMARK    6  A    between atoms: C_11  and  N_12
REMARK    7  A    between atoms: C_13  and  C_15
REMARK    8  A    between atoms: C_21  and  C_22
REMARK    9  A    between atoms: C_26  and  S_27
REMARK   10  A    between atoms: S_27  and  N_28
REMARK                            x       y       z     vdW  Elec       q    Type
REMARK                         _______ _______ _______ _____ _____    ______ ____
ROOT
ATOM      1  C   UNL     1       1.289   9.276  19.699  0.00  0.00    +0.000 A 
ATOM      2  C   UNL     1       1.777   9.624  18.435  0.00  0.00    +0.000 A 
ATOM      3  C   UNL     1       1.410  10.829  17.817  0.00  0.00    +0.000 A 
ATOM      4  C   UNL     1       0.509  11.655  18.506  0.00  0.00    +0.000 A 
ATOM      5  N   UNL     1      -0.076  12.849  18.183  0.00  0.00    +0.000 N 
ATOM      6  N   UNL     1      -0.915  13.328  19.119  0.00  0.00    +0.000 NA
ATOM      7  C   UNL     1      -0.916  12.385  20.076  0.00  0.00    +0.000 A 
ATOM      8  C   UNL     1      -0.010  11.327  19.751  0.00  0.00    +0.000 A 
ATOM      9  C   UNL     1       0.401  10.129  20.366  0.00  0.00    +0.000 A 
ATOM     10  H   UNL     1       0.046  13.389  17.334  0.00  0.00    +0.000 HD
ENDROOT
BRANCH   7  11
ATOM     11  C   UNL     1      -1.772  12.479  21.258  0.00  0.00    +0.000 A 
ATOM     12  C   UNL     1      -1.238  12.490  22.552  0.00  0.00    +0.000 A 
ATOM     13  C   UNL     1      -2.078  12.542  23.672  0.00  0.00    +0.000 A 
ATOM     14  C   UNL     1      -3.462  12.596  23.510  0.00  0.00    +0.000 A 
ATOM     15  C   UNL     1      -3.989  12.631  22.220  0.00  0.00    +0.000 A 
ATOM     16  C   UNL     1      -3.158  12.569  21.102  0.00  0.00    +0.000 A 
BRANCH  15  17
ATOM     17  S   UNL     1      -5.720  12.832  21.954  0.00  0.00    +0.000 S 
ATOM     18  O   UNL     1      -5.998  14.230  21.714  0.00  0.00    +0.000 OA
ATOM     19  O   UNL     1      -6.200  11.782  21.088  0.00  0.00    +0.000 OA
BRANCH  17  20
ATOM     20  N   UNL     1      -6.291  12.482  23.490  0.00  0.00    +0.000 NA
ATOM     21  H   UNL     1      -6.358  11.476  23.642  0.00  0.00    +0.000 HD
ATOM     22  H   UNL     1      -5.774  12.998  24.200  0.00  0.00    +0.000 HD
ENDBRANCH  17  20
ENDBRANCH  15  17
ENDBRANCH   7  11
BRANCH   1  24
ATOM     23  N   UNL     1       2.386   7.112  19.522  0.00  0.00    +0.000 N 
ATOM     24  C   UNL     1       1.602   7.946  20.294  0.00  0.00    +0.000 C 
ATOM     25  O   UNL     1       1.201   7.683  21.424  0.00  0.00    +0.000 OA
ATOM     26  H   UNL     1       2.528   7.335  18.549  0.00  0.00    +0.000 HD
BRANCH  23  27
ATOM     27  C   UNL     1       2.988   5.883  20.008  0.00  0.00    +0.000 C 
BRANCH  27  33
ATOM     28  C   UNL     1       3.528   4.672  17.830  0.00  0.00    +0.000 A 
ATOM     29  C   UNL     1       3.445   3.536  17.006  0.00  0.00    +0.000 A 
ATOM     30  C   UNL     1       2.593   2.488  17.321  0.00  0.00    +0.000 A 
ATOM     31  C   UNL     1       1.800   2.570  18.458  0.00  0.00    +0.000 A 
ATOM     32  C   UNL     1       1.890   3.667  19.338  0.00  0.00    +0.000 A 
ATOM     33  C   UNL     1       2.789   4.729  19.043  0.00  0.00    +0.000 A 
BRANCH  28  35
ATOM     34  C   UNL     1       5.757   5.778  17.756  0.00  0.00    +0.000 C 
ATOM     35  C   UNL     1       4.309   5.847  17.277  0.00  0.00    +0.000 C 
ENDBRANCH  28  35
BRANCH  32  36
ATOM     36  C   UNL     1       0.959   3.651  20.534  0.00  0.00    +0.000 C 
ATOM     37  C   UNL     1       1.430   2.715  21.643  0.00  0.00    +0.000 C 
ENDBRANCH  32  36
ENDBRANCH  27  33
ENDBRANCH  23  27
ENDBRANCH   1  24
TORSDOF 8
ENDMDL
