MODEL 1
REMARK VINA RESULT:      -8.6      0.000      0.000
REMARK  Name = 
REMARK  4 active torsions:
REMARK  status: ('A' for Active; 'I' for Inactive)
REMARK    1  A    between atoms: C_1  and  C_2
REMARK    2  A    between atoms: C_8  and  N_9
REMARK    3  A    between atoms: C_10  and  C_12
REMARK    4  A    between atoms: C_12  and  C_13
REMARK                            x       y       z     vdW  Elec       q    Type
REMARK                         _______ _______ _______ _____ _____    ______ ____
ROOT
ATOM      1  C   UNL     1       3.220   4.885  20.407  0.00  0.00    +0.000 C 
ENDROOT
BRANCH   1   2
ATOM      2  C   UNL     1       3.147   3.938  19.201  0.00  0.00    +0.000 C 
ATOM      3  S   UNL     1       3.144   4.940  17.667  0.00  0.00    +0.000 S 
ATOM      4  C   UNL     1       4.854   5.457  17.739  0.00  0.00    +0.000 A 
ATOM      5  C   UNL     1       5.200   6.706  17.220  0.00  0.00    +0.000 A 
ATOM      6  C   UNL     1       6.520   7.154  17.300  0.00  0.00    +0.000 A 
ATOM      7  C   UNL     1       7.501   6.342  17.866  0.00  0.00    +0.000 A 
ATOM      8  C   UNL     1       7.171   5.076  18.352  0.00  0.00    +0.000 A 
ATOM      9  C   UNL     1       5.844   4.641  18.312  0.00  0.00    +0.000 A 
ATOM     10  N   UNL     1       5.543   3.378  18.847  0.00  0.00    +0.000 N 
ATOM     11  C   UNL     1       4.278   2.914  19.117  0.00  0.00    +0.000 C 
ATOM     12  O   UNL     1       4.096   1.717  19.347  0.00  0.00    +0.000 OA
ATOM     13  H   UNL     1       6.287   2.711  19.012  0.00  0.00    +0.000 HD
ENDBRANCH   1   2
BRANCH   1  15
ATOM     14  N   UNL     1       2.404   7.183  20.435  0.00  0.00    +0.000 N 
ATOM     15  C   UNL     1       2.051   5.841  20.439  0.00  0.00    +0.000 C 
ATOM     16  O   UNL     1       0.912   5.391  20.484  0.00  0.00    +0.000 OA
ATOM     17  H   UNL     1       3.382   7.411  20.319  0.00  0.00    +0.000 HD
BRANCH  14  25
ATOM     18  C   UNL     1       1.831   8.692  17.951  0.00  0.00    +0.000 C 
ATOM     19  C   UNL     1       1.199   8.989  19.286  0.00  0.00    +0.000 A 
ATOM     20  C   UNL     1       0.271  10.049  19.336  0.00  0.00    +0.000 A 
ATOM     21  C   UNL     1      -0.367  10.394  20.526  0.00  0.00    +0.000 A 
ATOM     22  C   UNL     1      -0.059   9.702  21.687  0.00  0.00    +0.000 A 
ATOM     23 CL   UNL     1      -0.827  10.127  23.168  0.00  0.00    +0.000 Cl
ATOM     24  C   UNL     1       0.870   8.665  21.663  0.00  0.00    +0.000 A 
ATOM     25  C   UNL     1       1.496   8.275  20.469  0.00  0.00    +0.000 A 
ENDBRANCH  14  25
ENDBRANCH   1  15
TORSDOF 3
ENDMDL
MODEL 2
REMARK VINA RESULT:      -6.9      1.305      1.869
REMARK  Name = 
REMARK  4 active torsions:
REMARK  status: ('A' for Active; 'I' for Inactive)
REMARK    1  A    between atoms: C_1  and  C_2
REMARK    2  A    between atoms: C_8  and  N_9
REMARK    3  A    between atoms: C_10  and  C_12
REMARK    4  A    between atoms: C_12  and  C_13
REMARK                            x       y       z     vdW  Elec       q    Type
REMARK                         _______ _______ _______ _____ _____    ______ ____
ROOT
ATOM      1  C   UNL     1       3.182   5.263  20.424  0.00  0.00    +0.000 C 
ENDROOT
BRANCH   1   2
ATOM      2  C   UNL     1       3.154   4.223  19.295  0.00  0.00    +0.000 C 
ATOM      3  S   UNL     1       3.229   5.099  17.688  0.00  0.00    +0.000 S 
ATOM      4  C   UNL     1       4.939   5.611  17.796  0.00  0.00    +0.000 A 
ATOM      5  C   UNL     1       5.319   6.814  17.196  0.00  0.00    +0.000 A 
ATOM      6  C   UNL     1       6.638   7.260  17.300  0.00  0.00    +0.000 A 
ATOM      7  C   UNL     1       7.585   6.490  17.973  0.00  0.00    +0.000 A 
ATOM      8  C   UNL     1       7.223   5.268  18.543  0.00  0.00    +0.000 A 
ATOM      9  C   UNL     1       5.895   4.839  18.477  0.00  0.00    +0.000 A 
ATOM     10  N   UNL     1       5.559   3.623  19.096  0.00  0.00    +0.000 N 
ATOM     11  C   UNL     1       4.279   3.190  19.345  0.00  0.00    +0.000 C 
ATOM     12  O   UNL     1       4.076   2.015  19.661  0.00  0.00    +0.000 OA
ATOM     13  H   UNL     1       6.289   2.969  19.348  0.00  0.00    +0.000 HD
ENDBRANCH   1   2
BRANCH   1  15
ATOM     14  N   UNL     1       2.245   7.508  20.255  0.00  0.00    +0.000 N 
ATOM     15  C   UNL     1       1.964   6.156  20.391  0.00  0.00    +0.000 C 
ATOM     16  O   UNL     1       0.851   5.654  20.499  0.00  0.00    +0.000 OA
ATOM     17  H   UNL     1       3.208   7.774  20.099  0.00  0.00    +0.000 HD
BRANCH  14  25
ATOM     18  C   UNL     1       1.619   9.044  22.709  0.00  0.00    +0.000 C 
ATOM     19  C   UNL     1       0.989   9.304  21.365  0.00  0.00    +0.000 A 
ATOM     20  C   UNL     1       0.052  10.354  21.286  0.00  0.00    +0.000 A 
ATOM     21  C   UNL     1      -0.578  10.670  20.084  0.00  0.00    +0.000 A 
ATOM     22  C   UNL     1      -0.302   9.917  18.953  0.00  0.00    +0.000 A 
ATOM     23 CL   UNL     1      -1.084  10.285  17.466  0.00  0.00    +0.000 Cl
ATOM     24  C   UNL     1       0.606   8.862  19.015  0.00  0.00    +0.000 A 
ATOM     25  C   UNL     1       1.281   8.550  20.205  0.00  0.00    +0.000 A 
ENDBRANCH  14  25
ENDBRANCH   1  15
TORSDOF 3
ENDMDL
MODEL 3
REMARK VINA RESULT:      -6.8      3.840      7.012
REMARK  Name = 
REMARK  4 active torsions:
REMARK  status: ('A' for Active; 'I' for Inactive)
REMARK    1  A    between atoms: C_1  and  C_2
REMARK    2  A    between atoms: C_8  and  N_9
REMARK    3  A    between atoms: C_10  and  C_12
REMARK    4  A    between atoms: C_12  and  C_13
REMARK                            x       y       z     vdW  Elec       q    Type
REMARK                         _______ _______ _______ _____ _____    ______ ____
ROOT
ATOM      1  C   UNL     1       0.961   9.984  21.350  0.00  0.00    +0.000 C 
ENDROOT
BRANCH   1   2
ATOM      2  C   UNL     1      -0.264  10.779  20.876  0.00  0.00    +0.000 C 
ATOM      3  S   UNL     1      -0.089  12.515  21.434  0.00  0.00    +0.000 S 
ATOM      4  C   UNL     1       1.220  12.978  20.307  0.00  0.00    +0.000 A 
ATOM      5  C   UNL     1       2.155  13.930  20.719  0.00  0.00    +0.000 A 
ATOM      6  C   UNL     1       3.212  14.280  19.877  0.00  0.00    +0.000 A 
ATOM      7  C   UNL     1       3.318  13.706  18.612  0.00  0.00    +0.000 A 
ATOM      8  C   UNL     1       2.366  12.782  18.177  0.00  0.00    +0.000 A 
ATOM      9  C   UNL     1       1.331  12.398  19.032  0.00  0.00    +0.000 A 
ATOM     10  N   UNL     1       0.415  11.436  18.575  0.00  0.00    +0.000 N 
ATOM     11  C   UNL     1      -0.491  10.769  19.364  0.00  0.00    +0.000 C 
ATOM     12  O   UNL     1      -1.413  10.135  18.845  0.00  0.00    +0.000 OA
ATOM     13  H   UNL     1       0.355  11.227  17.586  0.00  0.00    +0.000 HD
ENDBRANCH   1   2
BRANCH   1  15
ATOM     14  N   UNL     1       1.954   7.971  20.396  0.00  0.00    +0.000 N 
ATOM     15  C   UNL     1       0.838   8.516  21.016  0.00  0.00    +0.000 C 
ATOM     16  O   UNL     1      -0.203   7.927  21.285  0.00  0.00    +0.000 OA
ATOM     17  H   UNL     1       2.773   8.556  20.305  0.00  0.00    +0.000 HD
BRANCH  14  25
ATOM     18  C   UNL     1       3.007   7.374  17.694  0.00  0.00    +0.000 C 
ATOM     19  C   UNL     1       2.607   6.323  18.695  0.00  0.00    +0.000 A 
ATOM     20  C   UNL     1       2.759   4.976  18.310  0.00  0.00    +0.000 A 
ATOM     21  C   UNL     1       2.419   3.936  19.173  0.00  0.00    +0.000 A 
ATOM     22  C   UNL     1       1.891   4.232  20.420  0.00  0.00    +0.000 A 
ATOM     23 CL   UNL     1       1.451   2.958  21.490  0.00  0.00    +0.000 Cl
ATOM     24  C   UNL     1       1.714   5.557  20.812  0.00  0.00    +0.000 A 
ATOM     25  C   UNL     1       2.086   6.620  19.975  0.00  0.00    +0.000 A 
ENDBRANCH  14  25
ENDBRANCH   1  15
TORSDOF 3
ENDMDL
MODEL 4
REMARK VINA RESULT:      -6.7      2.836      4.343
REMARK  Name = 
REMARK  4 active torsions:
REMARK  status: ('A' for Active; 'I' for Inactive)
REMARK    1  A    between atoms: C_1  and  C_2
REMARK    2  A    between atoms: C_8  and  N_9
REMARK    3  A    between atoms: C_10  and  C_12
REMARK    4  A    between atoms: C_12  and  C_13
REMARK                            x       y       z     vdW  Elec       q    Type
REMARK                         _______ _______ _______ _____ _____    ______ ____
ROOT
ATOM      1  C   UNL     1       1.905   7.442  17.723  0.00  0.00    +0.000 C 
ENDROOT
BRANCH   1   2
ATOM      2  C   UNL     1       3.258   7.050  18.333  0.00  0.00    +0.000 C 
ATOM      3  S   UNL     1       2.968   6.332  19.993  0.00  0.00    +0.000 S 
ATOM      4  C   UNL     1       2.252   4.789  19.443  0.00  0.00    +0.000 A 
ATOM      5  C   UNL     1       1.284   4.177  20.242  0.00  0.00    +0.000 A 
ATOM      6  C   UNL     1       0.676   2.994  19.819  0.00  0.00    +0.000 A 
ATOM      7  C   UNL     1       1.058   2.403  18.615  0.00  0.00    +0.000 A 
ATOM      8  C   UNL     1       2.052   2.988  17.829  0.00  0.00    +0.000 A 
ATOM      9  C   UNL     1       2.632   4.194  18.229  0.00  0.00    +0.000 A 
ATOM     10  N   UNL     1       3.601   4.774  17.393  0.00  0.00    +0.000 N 
ATOM     11  C   UNL     1       4.075   6.059  17.504  0.00  0.00    +0.000 C 
ATOM     12  O   UNL     1       5.091   6.397  16.893  0.00  0.00    +0.000 OA
ATOM     13  H   UNL     1       4.043   4.216  16.672  0.00  0.00    +0.000 HD
ENDBRANCH   1   2
BRANCH   1  15
ATOM     14  N   UNL     1       0.531   9.227  18.659  0.00  0.00    +0.000 N 
ATOM     15  C   UNL     1       1.632   8.920  17.871  0.00  0.00    +0.000 C 
ATOM     16  O   UNL     1       2.358   9.722  17.295  0.00  0.00    +0.000 OA
ATOM     17  H   UNL     1       0.068   8.464  19.135  0.00  0.00    +0.000 HD
BRANCH  14  25
ATOM     18  C   UNL     1      -1.914  10.232  17.324  0.00  0.00    +0.000 C 
ATOM     19  C   UNL     1      -1.116  11.019  18.330  0.00  0.00    +0.000 A 
ATOM     20  C   UNL     1      -1.581  12.310  18.653  0.00  0.00    +0.000 A 
ATOM     21  C   UNL     1      -0.911  13.109  19.577  0.00  0.00    +0.000 A 
ATOM     22  C   UNL     1       0.254  12.638  20.164  0.00  0.00    +0.000 A 
ATOM     23 CL   UNL     1       1.102  13.620  21.294  0.00  0.00    +0.000 Cl
ATOM     24  C   UNL     1       0.742  11.373  19.843  0.00  0.00    +0.000 A 
ATOM     25  C   UNL     1       0.062  10.536  18.945  0.00  0.00    +0.000 A 
ENDBRANCH  14  25
ENDBRANCH   1  15
TORSDOF 3
ENDMDL
MODEL 5
REMARK VINA RESULT:      -6.7      3.775      7.504
REMARK  Name = 
REMARK  4 active torsions:
REMARK  status: ('A' for Active; 'I' for Inactive)
REMARK    1  A    between atoms: C_1  and  C_2
REMARK    2  A    between atoms: C_8  and  N_9
REMARK    3  A    between atoms: C_10  and  C_12
REMARK    4  A    between atoms: C_12  and  C_13
REMARK                            x       y       z     vdW  Elec       q    Type
REMARK                         _______ _______ _______ _____ _____    ______ ____
ROOT
ATOM      1  C   UNL     1       1.626   9.456  18.720  0.00  0.00    +0.000 C 
ENDROOT
BRANCH   1   2
ATOM      2  C   UNL     1       0.301   9.795  19.419  0.00  0.00    +0.000 C 
ATOM      3  S   UNL     1       0.665  10.763  20.931  0.00  0.00    +0.000 S 
ATOM      4  C   UNL     1       1.149  12.277  20.112  0.00  0.00    +0.000 A 
ATOM      5  C   UNL     1       2.113  13.087  20.714  0.00  0.00    +0.000 A 
ATOM      6  C   UNL     1       2.542  14.253  20.077  0.00  0.00    +0.000 A 
ATOM      7  C   UNL     1       1.984  14.630  18.857  0.00  0.00    +0.000 A 
ATOM      8  C   UNL     1       0.991  13.845  18.266  0.00  0.00    +0.000 A 
ATOM      9  C   UNL     1       0.590  12.656  18.879  0.00  0.00    +0.000 A 
ATOM     10  N   UNL     1      -0.382  11.872  18.236  0.00  0.00    +0.000 N 
ATOM     11  C   UNL     1      -0.696  10.575  18.563  0.00  0.00    +0.000 C 
ATOM     12  O   UNL     1      -1.721  10.056  18.115  0.00  0.00    +0.000 OA
ATOM     13  H   UNL     1      -0.950  12.277  17.502  0.00  0.00    +0.000 HD
ENDBRANCH   1   2
BRANCH   1  15
ATOM     14  N   UNL     1       2.325   7.285  17.858  0.00  0.00    +0.000 N 
ATOM     15  C   UNL     1       2.055   8.034  18.994  0.00  0.00    +0.000 C 
ATOM     16  O   UNL     1       2.118   7.642  20.154  0.00  0.00    +0.000 OA
ATOM     17  H   UNL     1       2.305   7.761  16.966  0.00  0.00    +0.000 HD
BRANCH  14  25
ATOM     18  C   UNL     1       5.121   6.605  17.157  0.00  0.00    +0.000 C 
ATOM     19  C   UNL     1       4.073   5.590  17.532  0.00  0.00    +0.000 A 
ATOM     20  C   UNL     1       4.466   4.237  17.556  0.00  0.00    +0.000 A 
ATOM     21  C   UNL     1       3.566   3.229  17.896  0.00  0.00    +0.000 A 
ATOM     22  C   UNL     1       2.252   3.561  18.184  0.00  0.00    +0.000 A 
ATOM     23 CL   UNL     1       1.124   2.325  18.590  0.00  0.00    +0.000 Cl
ATOM     24  C   UNL     1       1.837   4.890  18.147  0.00  0.00    +0.000 A 
ATOM     25  C   UNL     1       2.735   5.925  17.845  0.00  0.00    +0.000 A 
ENDBRANCH  14  25
ENDBRANCH   1  15
TORSDOF 3
ENDMDL
MODEL 6
REMARK VINA RESULT:      -6.7      1.669      2.118
REMARK  Name = 
REMARK  4 active torsions:
REMARK  status: ('A' for Active; 'I' for Inactive)
REMARK    1  A    between atoms: C_1  and  C_2
REMARK    2  A    between atoms: C_8  and  N_9
REMARK    3  A    between atoms: C_10  and  C_12
REMARK    4  A    between atoms: C_12  and  C_13
REMARK                            x       y       z     vdW  Elec       q    Type
REMARK                         _______ _______ _______ _____ _____    ______ ____
ROOT
ATOM      1  C   UNL     1       3.373   5.881  19.754  0.00  0.00    +0.000 C 
ENDROOT
BRANCH   1   2
ATOM      2  C   UNL     1       3.073   4.444  19.305  0.00  0.00    +0.000 C 
ATOM      3  S   UNL     1       2.898   4.422  17.482  0.00  0.00    +0.000 S 
ATOM      4  C   UNL     1       4.625   4.671  17.093  0.00  0.00    +0.000 A 
ATOM      5  C   UNL     1       4.958   5.371  15.930  0.00  0.00    +0.000 A 
ATOM      6  C   UNL     1       6.297   5.617  15.622  0.00  0.00    +0.000 A 
ATOM      7  C   UNL     1       7.306   5.136  16.455  0.00  0.00    +0.000 A 
ATOM      8  C   UNL     1       6.984   4.403  17.599  0.00  0.00    +0.000 A 
ATOM      9  C   UNL     1       5.645   4.191  17.932  0.00  0.00    +0.000 A 
ATOM     10  N   UNL     1       5.359   3.483  19.112  0.00  0.00    +0.000 N 
ATOM     11  C   UNL     1       4.124   3.411  19.711  0.00  0.00    +0.000 C 
ATOM     12  O   UNL     1       3.914   2.574  20.592  0.00  0.00    +0.000 OA
ATOM     13  H   UNL     1       6.082   2.931  19.555  0.00  0.00    +0.000 HD
ENDBRANCH   1   2
BRANCH   1  15
ATOM     14  N   UNL     1       2.154   7.990  19.639  0.00  0.00    +0.000 N 
ATOM     15  C   UNL     1       2.106   6.658  20.024  0.00  0.00    +0.000 C 
ATOM     16  O   UNL     1       1.161   6.091  20.561  0.00  0.00    +0.000 OA
ATOM     17  H   UNL     1       2.974   8.304  19.137  0.00  0.00    +0.000 HD
BRANCH  14  25
ATOM     18  C   UNL     1       1.551   9.096  22.319  0.00  0.00    +0.000 C 
ATOM     19  C   UNL     1       0.818   9.481  21.062  0.00  0.00    +0.000 A 
ATOM     20  C   UNL     1      -0.211  10.437  21.184  0.00  0.00    +0.000 A 
ATOM     21  C   UNL     1      -0.941  10.858  20.074  0.00  0.00    +0.000 A 
ATOM     22  C   UNL     1      -0.671  10.302  18.833  0.00  0.00    +0.000 A 
ATOM     23 CL   UNL     1      -1.575  10.800  17.456  0.00  0.00    +0.000 Cl
ATOM     24  C   UNL     1       0.328   9.342  18.694  0.00  0.00    +0.000 A 
ATOM     25  C   UNL     1       1.101   8.931  19.791  0.00  0.00    +0.000 A 
ENDBRANCH  14  25
ENDBRANCH   1  15
TORSDOF 3
ENDMDL
MODEL 7
REMARK VINA RESULT:      -6.7      2.075      2.999
REMARK  Name = 
REMARK  4 active torsions:
REMARK  status: ('A' for Active; 'I' for Inactive)
REMARK    1  A    between atoms: C_1  and  C_2
REMARK    2  A    between atoms: C_8  and  N_9
REMARK    3  A    between atoms: C_10  and  C_12
REMARK    4  A    between atoms: C_12  and  C_13
REMARK                            x       y       z     vdW  Elec       q    Type
REMARK                         _______ _______ _______ _____ _____    ______ ____
ROOT
ATOM      1  C   UNL     1       3.070   7.560  17.717  0.00  0.00    +0.000 C 
ENDROOT
BRANCH   1   2
ATOM      2  C   UNL     1       2.540   6.227  18.264  0.00  0.00    +0.000 C 
ATOM      3  S   UNL     1       3.100   4.875  17.161  0.00  0.00    +0.000 S 
ATOM      4  C   UNL     1       4.824   4.908  17.632  0.00  0.00    +0.000 A 
ATOM      5  C   UNL     1       5.787   4.570  16.678  0.00  0.00    +0.000 A 
ATOM      6  C   UNL     1       7.143   4.628  17.004  0.00  0.00    +0.000 A 
ATOM      7  C   UNL     1       7.538   4.988  18.291  0.00  0.00    +0.000 A 
ATOM      8  C   UNL     1       6.581   5.289  19.263  0.00  0.00    +0.000 A 
ATOM      9  C   UNL     1       5.225   5.274  18.928  0.00  0.00    +0.000 A 
ATOM     10  N   UNL     1       4.293   5.621  19.920  0.00  0.00    +0.000 N 
ATOM     11  C   UNL     1       2.967   5.903  19.695  0.00  0.00    +0.000 C 
ATOM     12  O   UNL     1       2.178   5.953  20.641  0.00  0.00    +0.000 OA
ATOM     13  H   UNL     1       4.572   5.627  20.893  0.00  0.00    +0.000 HD
ENDBRANCH   1   2
BRANCH   1  15
ATOM     14  N   UNL     1       1.504   8.569  19.291  0.00  0.00    +0.000 N 
ATOM     15  C   UNL     1       2.163   8.712  18.078  0.00  0.00    +0.000 C 
ATOM     16  O   UNL     1       2.057   9.655  17.301  0.00  0.00    +0.000 OA
ATOM     17  H   UNL     1       1.747   7.773  19.865  0.00  0.00    +0.000 HD
BRANCH  14  25
ATOM     18  C   UNL     1       1.551   9.097  22.205  0.00  0.00    +0.000 C 
ATOM     19  C   UNL     1       0.621   9.780  21.237  0.00  0.00    +0.000 A 
ATOM     20  C   UNL     1      -0.271  10.735  21.766  0.00  0.00    +0.000 A 
ATOM     21  C   UNL     1      -1.164  11.421  20.946  0.00  0.00    +0.000 A 
ATOM     22  C   UNL     1      -1.199  11.134  19.590  0.00  0.00    +0.000 A 
ATOM     23 CL   UNL     1      -2.309  11.961  18.567  0.00  0.00    +0.000 Cl
ATOM     24  C   UNL     1      -0.341  10.179  19.050  0.00  0.00    +0.000 A 
ATOM     25  C   UNL     1       0.594   9.505  19.851  0.00  0.00    +0.000 A 
ENDBRANCH  14  25
ENDBRANCH   1  15
TORSDOF 3
ENDMDL
MODEL 8
REMARK VINA RESULT:      -6.6      4.485      7.707
REMARK  Name = 
REMARK  4 active torsions:
REMARK  status: ('A' for Active; 'I' for Inactive)
REMARK    1  A    between atoms: C_1  and  C_2
REMARK    2  A    between atoms: C_8  and  N_9
REMARK    3  A    between atoms: C_10  and  C_12
REMARK    4  A    between atoms: C_12  and  C_13
REMARK                            x       y       z     vdW  Elec       q    Type
REMARK                         _______ _______ _______ _____ _____    ______ ____
ROOT
ATOM      1  C   UNL     1       4.128   5.669  18.002  0.00  0.00    +0.000 C 
ENDROOT
BRANCH   1   2
ATOM      2  C   UNL     1       2.695   6.218  18.070  0.00  0.00    +0.000 C 
ATOM      3  S   UNL     1       1.525   4.845  17.752  0.00  0.00    +0.000 S 
ATOM      4  C   UNL     1       1.761   3.991  19.305  0.00  0.00    +0.000 A 
ATOM      5  C   UNL     1       1.636   2.600  19.333  0.00  0.00    +0.000 A 
ATOM      6  C   UNL     1       1.857   1.903  20.522  0.00  0.00    +0.000 A 
ATOM      7  C   UNL     1       2.167   2.595  21.691  0.00  0.00    +0.000 A 
ATOM      8  C   UNL     1       2.256   3.988  21.682  0.00  0.00    +0.000 A 
ATOM      9  C   UNL     1       2.078   4.686  20.485  0.00  0.00    +0.000 A 
ATOM     10  N   UNL     1       2.214   6.084  20.506  0.00  0.00    +0.000 N 
ATOM     11  C   UNL     1       2.324   6.884  19.394  0.00  0.00    +0.000 C 
ATOM     12  O   UNL     1       2.190   8.106  19.497  0.00  0.00    +0.000 OA
ATOM     13  H   UNL     1       2.183   6.580  21.388  0.00  0.00    +0.000 HD
ENDBRANCH   1   2
BRANCH   1  15
ATOM     14  N   UNL     1       4.994   4.519  16.033  0.00  0.00    +0.000 N 
ATOM     15  C   UNL     1       4.691   5.747  16.602  0.00  0.00    +0.000 C 
ATOM     16  O   UNL     1       4.854   6.847  16.085  0.00  0.00    +0.000 OA
ATOM     17  H   UNL     1       4.735   3.687  16.547  0.00  0.00    +0.000 HD
BRANCH  14  25
ATOM     18  C   UNL     1       7.821   5.226  15.510  0.00  0.00    +0.000 C 
ATOM     19  C   UNL     1       6.893   4.637  14.481  0.00  0.00    +0.000 A 
ATOM     20  C   UNL     1       7.422   4.405  13.195  0.00  0.00    +0.000 A 
ATOM     21  C   UNL     1       6.640   3.857  12.180  0.00  0.00    +0.000 A 
ATOM     22  C   UNL     1       5.308   3.567  12.431  0.00  0.00    +0.000 A 
ATOM     23 CL   UNL     1       4.324   2.907  11.183  0.00  0.00    +0.000 Cl
ATOM     24  C   UNL     1       4.760   3.808  13.689  0.00  0.00    +0.000 A 
ATOM     25  C   UNL     1       5.539   4.322  14.737  0.00  0.00    +0.000 A 
ENDBRANCH  14  25
ENDBRANCH   1  15
TORSDOF 3
ENDMDL
MODEL 9
REMARK VINA RESULT:      -6.6      2.592      3.128
REMARK  Name = 
REMARK  4 active torsions:
REMARK  status: ('A' for Active; 'I' for Inactive)
REMARK    1  A    between atoms: C_1  and  C_2
REMARK    2  A    between atoms: C_8  and  N_9
REMARK    3  A    between atoms: C_10  and  C_12
REMARK    4  A    between atoms: C_12  and  C_13
REMARK                            x       y       z     vdW  Elec       q    Type
REMARK                         _______ _______ _______ _____ _____    ______ ____
ROOT
ATOM      1  C   UNL     1       4.147   6.639  17.771  0.00  0.00    +0.000 C 
ENDROOT
BRANCH   1   2
ATOM      2  C   UNL     1       4.617   5.342  18.446  0.00  0.00    +0.000 C 
ATOM      3  S   UNL     1       4.149   3.924  17.385  0.00  0.00    +0.000 S 
ATOM      4  C   UNL     1       5.341   4.220  16.085  0.00  0.00    +0.000 A 
ATOM      5  C   UNL     1       5.008   3.867  14.776  0.00  0.00    +0.000 A 
ATOM      6  C   UNL     1       5.901   4.124  13.734  0.00  0.00    +0.000 A 
ATOM      7  C   UNL     1       7.141   4.702  14.003  0.00  0.00    +0.000 A 
ATOM      8  C   UNL     1       7.498   5.023  15.314  0.00  0.00    +0.000 A 
ATOM      9  C   UNL     1       6.590   4.806  16.353  0.00  0.00    +0.000 A 
ATOM     10  N   UNL     1       6.968   5.178  17.654  0.00  0.00    +0.000 N 
ATOM     11  C   UNL     1       6.117   5.271  18.729  0.00  0.00    +0.000 C 
ATOM     12  O   UNL     1       6.573   5.360  19.871  0.00  0.00    +0.000 OA
ATOM     13  H   UNL     1       7.943   5.350  17.864  0.00  0.00    +0.000 HD
ENDBRANCH   1   2
BRANCH   1  15
ATOM     14  N   UNL     1       2.581   8.376  18.462  0.00  0.00    +0.000 N 
ATOM     15  C   UNL     1       2.753   7.023  18.207  0.00  0.00    +0.000 C 
ATOM     16  O   UNL     1       1.900   6.149  18.320  0.00  0.00    +0.000 OA
ATOM     17  H   UNL     1       3.353   8.994  18.253  0.00  0.00    +0.000 HD
BRANCH  14  25
ATOM     18  C   UNL     1       1.783   8.207  21.310  0.00  0.00    +0.000 C 
ATOM     19  C   UNL     1       0.993   8.931  20.252  0.00  0.00    +0.000 A 
ATOM     20  C   UNL     1      -0.195   9.571  20.661  0.00  0.00    +0.000 A 
ATOM     21  C   UNL     1      -0.988  10.270  19.753  0.00  0.00    +0.000 A 
ATOM     22  C   UNL     1      -0.620  10.306  18.417  0.00  0.00    +0.000 A 
ATOM     23 CL   UNL     1      -1.599  11.151  17.281  0.00  0.00    +0.000 Cl
ATOM     24  C   UNL     1       0.538   9.663  17.988  0.00  0.00    +0.000 A 
ATOM     25  C   UNL     1       1.373   8.987  18.891  0.00  0.00    +0.000 A 
ENDBRANCH  14  25
ENDBRANCH   1  15
TORSDOF 3
ENDMDL
