MODEL 1
REMARK VINA RESULT:      -8.1      0.000      0.000
REMARK  Name = 
REMARK  1 active torsions:
REMARK  status: ('A' for Active; 'I' for Inactive)
REMARK    1  A    between atoms: N_10  and  C_11
REMARK                            x       y       z     vdW  Elec       q    Type
REMARK                         _______ _______ _______ _____ _____    ______ ____
ROOT
ATOM      1  O   UNL     1       2.311   8.851  17.178  0.00  0.00    +0.000 OA
ATOM      2  C   UNL     1       1.947   8.672  18.340  0.00  0.00    +0.000 C 
ATOM      3  N   UNL     1       1.151   9.624  18.924  0.00  0.00    +0.000 N 
ATOM      4  C   UNL     1       0.720   9.692  20.255  0.00  0.00    +0.000 A 
ATOM      5  C   UNL     1      -0.217  10.649  20.630  0.00  0.00    +0.000 A 
ATOM      6  N   UNL     1      -0.679  10.772  21.901  0.00  0.00    +0.000 NA
ATOM      7  C   UNL     1      -0.146   9.915  22.798  0.00  0.00    +0.000 A 
ATOM      8  C   UNL     1       0.798   8.970  22.440  0.00  0.00    +0.000 A 
ATOM      9  N   UNL     1       1.226   8.823  21.164  0.00  0.00    +0.000 NA
ATOM     10  N   UNL     1       2.195   7.562  19.099  0.00  0.00    +0.000 N 
ATOM     11  H   UNL     1       0.883  10.361  18.288  0.00  0.00    +0.000 HD
ATOM     12  H   UNL     1       1.766   7.603  20.018  0.00  0.00    +0.000 HD
ENDROOT
BRANCH  10  13
ATOM     13  C   UNL     1       3.008   6.442  18.826  0.00  0.00    +0.000 A 
ATOM     14  C   UNL     1       4.041   6.523  17.898  0.00  0.00    +0.000 A 
ATOM     15  C   UNL     1       4.874   5.434  17.759  0.00  0.00    +0.000 A 
ATOM     16  N   UNL     1       4.745   4.296  18.465  0.00  0.00    +0.000 NA
ATOM     17  C   UNL     1       3.727   4.188  19.342  0.00  0.00    +0.000 A 
ATOM     18  C   UNL     1       3.562   3.007  20.069  0.00  0.00    +0.000 A 
ATOM     19  F   UNL     1       4.440   2.001  19.913  0.00  0.00    +0.000 F 
ATOM     20  C   UNL     1       2.512   2.806  20.963  0.00  0.00    +0.000 A 
ATOM     21  C   UNL     1       1.575   3.808  21.147  0.00  0.00    +0.000 A 
ATOM     22  C   UNL     1       1.720   5.010  20.454  0.00  0.00    +0.000 A 
ATOM     23  C   UNL     1       2.802   5.235  19.556  0.00  0.00    +0.000 A 
ENDBRANCH  10  13
TORSDOF 1
ENDMDL
MODEL 2
REMARK VINA RESULT:      -8.0      1.298      1.328
REMARK  Name = 
REMARK  1 active torsions:
REMARK  status: ('A' for Active; 'I' for Inactive)
REMARK    1  A    between atoms: N_10  and  C_11
REMARK                            x       y       z     vdW  Elec       q    Type
REMARK                         _______ _______ _______ _____ _____    ______ ____
ROOT
ATOM      1  O   UNL     1       3.036   8.069  16.942  0.00  0.00    +0.000 OA
ATOM      2  C   UNL     1       2.533   7.991  18.063  0.00  0.00    +0.000 C 
ATOM      3  N   UNL     1       1.672   8.983  18.457  0.00  0.00    +0.000 N 
ATOM      4  C   UNL     1       1.084   9.166  19.715  0.00  0.00    +0.000 A 
ATOM      5  C   UNL     1       0.108  10.142  19.886  0.00  0.00    +0.000 A 
ATOM      6  N   UNL     1      -0.506  10.374  21.075  0.00  0.00    +0.000 NA
ATOM      7  C   UNL     1      -0.085   9.607  22.104  0.00  0.00    +0.000 A 
ATOM      8  C   UNL     1       0.896   8.644  21.950  0.00  0.00    +0.000 A 
ATOM      9  N   UNL     1       1.475   8.388  20.753  0.00  0.00    +0.000 NA
ATOM     10  N   UNL     1       2.688   6.957  18.944  0.00  0.00    +0.000 N 
ATOM     11  H   UNL     1       1.484   9.657  17.730  0.00  0.00    +0.000 HD
ATOM     12  H   UNL     1       2.151   7.076  19.796  0.00  0.00    +0.000 HD
ENDROOT
BRANCH  10  13
ATOM     13  C   UNL     1       3.529   5.826  18.874  0.00  0.00    +0.000 A 
ATOM     14  C   UNL     1       4.911   5.964  18.921  0.00  0.00    +0.000 A 
ATOM     15  C   UNL     1       5.676   4.819  18.967  0.00  0.00    +0.000 A 
ATOM     16  N   UNL     1       5.165   3.575  18.965  0.00  0.00    +0.000 NA
ATOM     17  C   UNL     1       3.828   3.423  18.883  0.00  0.00    +0.000 A 
ATOM     18  C   UNL     1       3.278   2.140  18.858  0.00  0.00    +0.000 A 
ATOM     19  F   UNL     1       4.083   1.068  18.949  0.00  0.00    +0.000 F 
ATOM     20  C   UNL     1       1.910   1.903  18.734  0.00  0.00    +0.000 A 
ATOM     21  C   UNL     1       1.041   2.975  18.622  0.00  0.00    +0.000 A 
ATOM     22  C   UNL     1       1.553   4.272  18.666  0.00  0.00    +0.000 A 
ATOM     23  C   UNL     1       2.946   4.526  18.816  0.00  0.00    +0.000 A 
ENDBRANCH  10  13
TORSDOF 1
ENDMDL
MODEL 3
REMARK VINA RESULT:      -8.0      3.635      7.535
REMARK  Name = 
REMARK  1 active torsions:
REMARK  status: ('A' for Active; 'I' for Inactive)
REMARK    1  A    between atoms: N_10  and  C_11
REMARK                            x       y       z     vdW  Elec       q    Type
REMARK                         _______ _______ _______ _____ _____    ______ ____
ROOT
ATOM      1  O   UNL     1       7.168   6.333  17.431  0.00  0.00    +0.000 OA
ATOM      2  C   UNL     1       6.653   5.592  16.593  0.00  0.00    +0.000 C 
ATOM      3  N   UNL     1       7.256   5.485  15.366  0.00  0.00    +0.000 N 
ATOM      4  C   UNL     1       6.792   4.806  14.232  0.00  0.00    +0.000 A 
ATOM      5  C   UNL     1       7.617   4.672  13.120  0.00  0.00    +0.000 A 
ATOM      6  N   UNL     1       7.233   4.028  11.988  0.00  0.00    +0.000 NA
ATOM      7  C   UNL     1       5.973   3.541  11.997  0.00  0.00    +0.000 A 
ATOM      8  C   UNL     1       5.138   3.682  13.090  0.00  0.00    +0.000 A 
ATOM      9  N   UNL     1       5.539   4.289  14.231  0.00  0.00    +0.000 NA
ATOM     10  N   UNL     1       5.564   4.790  16.789  0.00  0.00    +0.000 N 
ATOM     11  H   UNL     1       8.128   5.990  15.307  0.00  0.00    +0.000 HD
ATOM     12  H   UNL     1       5.331   4.228  15.977  0.00  0.00    +0.000 HD
ENDROOT
BRANCH  10  13
ATOM     13  C   UNL     1       4.694   4.699  17.896  0.00  0.00    +0.000 A 
ATOM     14  C   UNL     1       4.692   3.571  18.708  0.00  0.00    +0.000 A 
ATOM     15  C   UNL     1       3.907   3.588  19.840  0.00  0.00    +0.000 A 
ATOM     16  N   UNL     1       3.138   4.630  20.204  0.00  0.00    +0.000 NA
ATOM     17  C   UNL     1       3.101   5.718  19.409  0.00  0.00    +0.000 A 
ATOM     18  C   UNL     1       2.293   6.803  19.758  0.00  0.00    +0.000 A 
ATOM     19  F   UNL     1       1.587   6.766  20.901  0.00  0.00    +0.000 F 
ATOM     20  C   UNL     1       2.172   7.944  18.967  0.00  0.00    +0.000 A 
ATOM     21  C   UNL     1       2.869   8.022  17.774  0.00  0.00    +0.000 A 
ATOM     22  C   UNL     1       3.703   6.966  17.404  0.00  0.00    +0.000 A 
ATOM     23  C   UNL     1       3.854   5.806  18.216  0.00  0.00    +0.000 A 
ENDBRANCH  10  13
TORSDOF 1
ENDMDL
MODEL 4
REMARK VINA RESULT:      -8.0      3.674      7.345
REMARK  Name = 
REMARK  1 active torsions:
REMARK  status: ('A' for Active; 'I' for Inactive)
REMARK    1  A    between atoms: N_10  and  C_11
REMARK                            x       y       z     vdW  Elec       q    Type
REMARK                         _______ _______ _______ _____ _____    ______ ____
ROOT
ATOM      1  O   UNL     1       6.901   6.660  16.903  0.00  0.00    +0.000 OA
ATOM      2  C   UNL     1       6.369   5.848  16.145  0.00  0.00    +0.000 C 
ATOM      3  N   UNL     1       7.056   5.466  15.021  0.00  0.00    +0.000 N 
ATOM      4  C   UNL     1       6.607   4.659  13.968  0.00  0.00    +0.000 A 
ATOM      5  C   UNL     1       7.499   4.246  12.985  0.00  0.00    +0.000 A 
ATOM      6  N   UNL     1       7.134   3.463  11.937  0.00  0.00    +0.000 NA
ATOM      7  C   UNL     1       5.827   3.128  11.891  0.00  0.00    +0.000 A 
ATOM      8  C   UNL     1       4.927   3.546  12.853  0.00  0.00    +0.000 A 
ATOM      9  N   UNL     1       5.303   4.292  13.919  0.00  0.00    +0.000 NA
ATOM     10  N   UNL     1       5.174   5.218  16.352  0.00  0.00    +0.000 N 
ATOM     11  H   UNL     1       7.986   5.853  14.974  0.00  0.00    +0.000 HD
ATOM     12  H   UNL     1       4.942   4.554  15.620  0.00  0.00    +0.000 HD
ENDROOT
BRANCH  10  13
ATOM     13  C   UNL     1       4.209   5.415  17.362  0.00  0.00    +0.000 A 
ATOM     14  C   UNL     1       3.882   6.696  17.791  0.00  0.00    +0.000 A 
ATOM     15  C   UNL     1       2.851   6.834  18.695  0.00  0.00    +0.000 A 
ATOM     16  N   UNL     1       2.145   5.801  19.189  0.00  0.00    +0.000 NA
ATOM     17  C   UNL     1       2.473   4.550  18.811  0.00  0.00    +0.000 A 
ATOM     18  C   UNL     1       1.766   3.463  19.330  0.00  0.00    +0.000 A 
ATOM     19  F   UNL     1       0.743   3.675  20.174  0.00  0.00    +0.000 F 
ATOM     20  C   UNL     1       2.074   2.140  19.017  0.00  0.00    +0.000 A 
ATOM     21  C   UNL     1       3.128   1.869  18.162  0.00  0.00    +0.000 A 
ATOM     22  C   UNL     1       3.842   2.932  17.608  0.00  0.00    +0.000 A 
ATOM     23  C   UNL     1       3.523   4.288  17.901  0.00  0.00    +0.000 A 
ENDBRANCH  10  13
TORSDOF 1
ENDMDL
MODEL 5
REMARK VINA RESULT:      -7.5      2.326      3.847
REMARK  Name = 
REMARK  1 active torsions:
REMARK  status: ('A' for Active; 'I' for Inactive)
REMARK    1  A    between atoms: N_10  and  C_11
REMARK                            x       y       z     vdW  Elec       q    Type
REMARK                         _______ _______ _______ _____ _____    ______ ____
ROOT
ATOM      1  O   UNL     1       1.979   5.134  21.200  0.00  0.00    +0.000 OA
ATOM      2  C   UNL     1       2.038   6.104  20.443  0.00  0.00    +0.000 C 
ATOM      3  N   UNL     1       1.570   7.310  20.899  0.00  0.00    +0.000 N 
ATOM      4  C   UNL     1       1.427   8.506  20.185  0.00  0.00    +0.000 A 
ATOM      5  C   UNL     1       1.083   9.675  20.856  0.00  0.00    +0.000 A 
ATOM      6  N   UNL     1       0.928  10.869  20.228  0.00  0.00    +0.000 NA
ATOM      7  C   UNL     1       1.102  10.848  18.889  0.00  0.00    +0.000 A 
ATOM      8  C   UNL     1       1.428   9.689  18.209  0.00  0.00    +0.000 A 
ATOM      9  N   UNL     1       1.623   8.509  18.844  0.00  0.00    +0.000 NA
ATOM     10  N   UNL     1       2.605   6.121  19.200  0.00  0.00    +0.000 N 
ATOM     11  H   UNL     1       1.282   7.284  21.866  0.00  0.00    +0.000 HD
ATOM     12  H   UNL     1       2.583   7.037  18.764  0.00  0.00    +0.000 HD
ENDROOT
BRANCH  10  13
ATOM     13  C   UNL     1       3.122   5.061  18.426  0.00  0.00    +0.000 A 
ATOM     14  C   UNL     1       2.428   3.861  18.310  0.00  0.00    +0.000 A 
ATOM     15  C   UNL     1       2.923   2.906  17.449  0.00  0.00    +0.000 A 
ATOM     16  N   UNL     1       4.040   3.065  16.716  0.00  0.00    +0.000 NA
ATOM     17  C   UNL     1       4.743   4.207  16.843  0.00  0.00    +0.000 A 
ATOM     18  C   UNL     1       5.917   4.382  16.107  0.00  0.00    +0.000 A 
ATOM     19  F   UNL     1       6.317   3.425  15.253  0.00  0.00    +0.000 F 
ATOM     20  C   UNL     1       6.718   5.518  16.215  0.00  0.00    +0.000 A 
ATOM     21  C   UNL     1       6.356   6.525  17.093  0.00  0.00    +0.000 A 
ATOM     22  C   UNL     1       5.178   6.394  17.828  0.00  0.00    +0.000 A 
ATOM     23  C   UNL     1       4.339   5.249  17.708  0.00  0.00    +0.000 A 
ENDBRANCH  10  13
TORSDOF 1
ENDMDL
MODEL 6
REMARK VINA RESULT:      -7.3      3.649      5.664
REMARK  Name = 
REMARK  1 active torsions:
REMARK  status: ('A' for Active; 'I' for Inactive)
REMARK    1  A    between atoms: N_10  and  C_11
REMARK                            x       y       z     vdW  Elec       q    Type
REMARK                         _______ _______ _______ _____ _____    ______ ____
ROOT
ATOM      1  O   UNL     1       2.780   7.454  17.864  0.00  0.00    +0.000 OA
ATOM      2  C   UNL     1       3.020   6.346  18.347  0.00  0.00    +0.000 C 
ATOM      3  N   UNL     1       2.053   5.754  19.120  0.00  0.00    +0.000 N 
ATOM      4  C   UNL     1       2.146   4.569  19.861  0.00  0.00    +0.000 A 
ATOM      5  C   UNL     1       1.009   4.037  20.458  0.00  0.00    +0.000 A 
ATOM      6  N   UNL     1       1.025   2.892  21.190  0.00  0.00    +0.000 NA
ATOM      7  C   UNL     1       2.235   2.309  21.327  0.00  0.00    +0.000 A 
ATOM      8  C   UNL     1       3.376   2.838  20.751  0.00  0.00    +0.000 A 
ATOM      9  N   UNL     1       3.348   3.956  19.988  0.00  0.00    +0.000 NA
ATOM     10  N   UNL     1       4.141   5.598  18.126  0.00  0.00    +0.000 N 
ATOM     11  H   UNL     1       1.192   6.280  19.150  0.00  0.00    +0.000 HD
ATOM     12  H   UNL     1       4.116   4.695  18.589  0.00  0.00    +0.000 HD
ENDROOT
BRANCH  10  13
ATOM     13  C   UNL     1       5.327   5.926  17.436  0.00  0.00    +0.000 A 
ATOM     14  C   UNL     1       6.255   6.800  17.994  0.00  0.00    +0.000 A 
ATOM     15  C   UNL     1       7.446   6.991  17.329  0.00  0.00    +0.000 A 
ATOM     16  N   UNL     1       7.764   6.387  16.170  0.00  0.00    +0.000 NA
ATOM     17  C   UNL     1       6.861   5.565  15.598  0.00  0.00    +0.000 A 
ATOM     18  C   UNL     1       7.163   4.944  14.384  0.00  0.00    +0.000 A 
ATOM     19  F   UNL     1       8.363   5.144  13.813  0.00  0.00    +0.000 F 
ATOM     20  C   UNL     1       6.266   4.115  13.713  0.00  0.00    +0.000 A 
ATOM     21  C   UNL     1       5.012   3.889  14.253  0.00  0.00    +0.000 A 
ATOM     22  C   UNL     1       4.685   4.475  15.476  0.00  0.00    +0.000 A 
ATOM     23  C   UNL     1       5.601   5.306  16.183  0.00  0.00    +0.000 A 
ENDBRANCH  10  13
TORSDOF 1
ENDMDL
MODEL 7
REMARK VINA RESULT:      -7.2      2.866      6.337
REMARK  Name = 
REMARK  1 active torsions:
REMARK  status: ('A' for Active; 'I' for Inactive)
REMARK    1  A    between atoms: N_10  and  C_11
REMARK                            x       y       z     vdW  Elec       q    Type
REMARK                         _______ _______ _______ _____ _____    ______ ____
ROOT
ATOM      1  O   UNL     1       3.763   7.612  17.560  0.00  0.00    +0.000 OA
ATOM      2  C   UNL     1       3.192   6.970  18.442  0.00  0.00    +0.000 C 
ATOM      3  N   UNL     1       3.632   5.698  18.705  0.00  0.00    +0.000 N 
ATOM      4  C   UNL     1       3.067   4.750  19.567  0.00  0.00    +0.000 A 
ATOM      5  C   UNL     1       3.744   3.564  19.830  0.00  0.00    +0.000 A 
ATOM      6  N   UNL     1       3.257   2.601  20.655  0.00  0.00    +0.000 NA
ATOM      7  C   UNL     1       2.044   2.857  21.191  0.00  0.00    +0.000 A 
ATOM      8  C   UNL     1       1.354   4.025  20.925  0.00  0.00    +0.000 A 
ATOM      9  N   UNL     1       1.862   5.000  20.135  0.00  0.00    +0.000 NA
ATOM     10  N   UNL     1       2.194   7.430  19.253  0.00  0.00    +0.000 N 
ATOM     11  H   UNL     1       4.454   5.445  18.176  0.00  0.00    +0.000 HD
ATOM     12  H   UNL     1       1.892   6.748  19.942  0.00  0.00    +0.000 HD
ENDROOT
BRANCH  10  13
ATOM     13  C   UNL     1       1.486   8.650  19.215  0.00  0.00    +0.000 A 
ATOM     14  C   UNL     1       1.303   9.329  18.016  0.00  0.00    +0.000 A 
ATOM     15  C   UNL     1       0.506  10.452  18.021  0.00  0.00    +0.000 A 
ATOM     16  N   UNL     1      -0.103  10.934  19.119  0.00  0.00    +0.000 NA
ATOM     17  C   UNL     1       0.093  10.310  20.297  0.00  0.00    +0.000 A 
ATOM     18  C   UNL     1      -0.513  10.806  21.454  0.00  0.00    +0.000 A 
ATOM     19  F   UNL     1      -1.313  11.883  21.376  0.00  0.00    +0.000 F 
ATOM     20  C   UNL     1      -0.324  10.239  22.712  0.00  0.00    +0.000 A 
ATOM     21  C   UNL     1       0.503   9.137  22.846  0.00  0.00    +0.000 A 
ATOM     22  C   UNL     1       1.107   8.600  21.709  0.00  0.00    +0.000 A 
ATOM     23  C   UNL     1       0.903   9.157  20.414  0.00  0.00    +0.000 A 
ENDBRANCH  10  13
TORSDOF 1
ENDMDL
MODEL 8
REMARK VINA RESULT:      -7.1      2.936      6.500
REMARK  Name = 
REMARK  1 active torsions:
REMARK  status: ('A' for Active; 'I' for Inactive)
REMARK    1  A    between atoms: N_10  and  C_11
REMARK                            x       y       z     vdW  Elec       q    Type
REMARK                         _______ _______ _______ _____ _____    ______ ____
ROOT
ATOM      1  O   UNL     1       2.713   8.722  17.150  0.00  0.00    +0.000 OA
ATOM      2  C   UNL     1       2.479   8.018  18.133  0.00  0.00    +0.000 C 
ATOM      3  N   UNL     1       3.064   6.779  18.196  0.00  0.00    +0.000 N 
ATOM      4  C   UNL     1       2.851   5.771  19.144  0.00  0.00    +0.000 A 
ATOM      5  C   UNL     1       3.656   4.636  19.139  0.00  0.00    +0.000 A 
ATOM      6  N   UNL     1       3.506   3.620  20.028  0.00  0.00    +0.000 NA
ATOM      7  C   UNL     1       2.497   3.768  20.913  0.00  0.00    +0.000 A 
ATOM      8  C   UNL     1       1.681   4.884  20.918  0.00  0.00    +0.000 A 
ATOM      9  N   UNL     1       1.859   5.913  20.057  0.00  0.00    +0.000 NA
ATOM     10  N   UNL     1       1.742   8.380  19.226  0.00  0.00    +0.000 N 
ATOM     11  H   UNL     1       3.703   6.603  17.435  0.00  0.00    +0.000 HD
ATOM     12  H   UNL     1       1.710   7.662  19.941  0.00  0.00    +0.000 HD
ENDROOT
BRANCH  10  13
ATOM     13  C   UNL     1       0.975   9.541  19.455  0.00  0.00    +0.000 A 
ATOM     14  C   UNL     1       0.700  10.428  18.420  0.00  0.00    +0.000 A 
ATOM     15  C   UNL     1      -0.151  11.481  18.677  0.00  0.00    +0.000 A 
ATOM     16  N   UNL     1      -0.728  11.705  19.871  0.00  0.00    +0.000 NA
ATOM     17  C   UNL     1      -0.444  10.876  20.894  0.00  0.00    +0.000 A 
ATOM     18  C   UNL     1      -1.016  11.103  22.148  0.00  0.00    +0.000 A 
ATOM     19  F   UNL     1      -1.871  12.126  22.315  0.00  0.00    +0.000 F 
ATOM     20  C   UNL     1      -0.738  10.314  23.263  0.00  0.00    +0.000 A 
ATOM     21  C   UNL     1       0.148   9.257  23.145  0.00  0.00    +0.000 A 
ATOM     22  C   UNL     1       0.721   8.987  21.903  0.00  0.00    +0.000 A 
ATOM     23  C   UNL     1       0.427   9.771  20.751  0.00  0.00    +0.000 A 
ENDBRANCH  10  13
TORSDOF 1
ENDMDL
MODEL 9
REMARK VINA RESULT:      -7.0      3.091      6.901
REMARK  Name = 
REMARK  1 active torsions:
REMARK  status: ('A' for Active; 'I' for Inactive)
REMARK    1  A    between atoms: N_10  and  C_11
REMARK                            x       y       z     vdW  Elec       q    Type
REMARK                         _______ _______ _______ _____ _____    ______ ____
ROOT
ATOM      1  O   UNL     1       1.674   4.813  17.558  0.00  0.00    +0.000 OA
ATOM      2  C   UNL     1       2.790   5.207  17.899  0.00  0.00    +0.000 C 
ATOM      3  N   UNL     1       3.888   4.635  17.309  0.00  0.00    +0.000 N 
ATOM      4  C   UNL     1       5.238   4.835  17.621  0.00  0.00    +0.000 A 
ATOM      5  C   UNL     1       6.224   4.288  16.806  0.00  0.00    +0.000 A 
ATOM      6  N   UNL     1       7.552   4.442  17.048  0.00  0.00    +0.000 NA
ATOM      7  C   UNL     1       7.862   5.144  18.159  0.00  0.00    +0.000 A 
ATOM      8  C   UNL     1       6.890   5.679  18.985  0.00  0.00    +0.000 A 
ATOM      9  N   UNL     1       5.569   5.559  18.718  0.00  0.00    +0.000 NA
ATOM     10  N   UNL     1       3.051   6.230  18.767  0.00  0.00    +0.000 N 
ATOM     11  H   UNL     1       3.649   3.979  16.580  0.00  0.00    +0.000 HD
ATOM     12  H   UNL     1       4.042   6.418  18.876  0.00  0.00    +0.000 HD
ENDROOT
BRANCH  10  13
ATOM     13  C   UNL     1       2.169   6.981  19.573  0.00  0.00    +0.000 A 
ATOM     14  C   UNL     1       1.627   6.436  20.732  0.00  0.00    +0.000 A 
ATOM     15  C   UNL     1       0.867   7.254  21.539  0.00  0.00    +0.000 A 
ATOM     16  N   UNL     1       0.614   8.547  21.270  0.00  0.00    +0.000 NA
ATOM     17  C   UNL     1       1.101   9.081  20.132  0.00  0.00    +0.000 A 
ATOM     18  C   UNL     1       0.832  10.416  19.823  0.00  0.00    +0.000 A 
ATOM     19  F   UNL     1       0.119  11.167  20.679  0.00  0.00    +0.000 F 
ATOM     20  C   UNL     1       1.268  11.026  18.648  0.00  0.00    +0.000 A 
ATOM     21  C   UNL     1       1.994  10.290  17.728  0.00  0.00    +0.000 A 
ATOM     22  C   UNL     1       2.300   8.959  18.014  0.00  0.00    +0.000 A 
ATOM     23  C   UNL     1       1.882   8.332  19.222  0.00  0.00    +0.000 A 
ENDBRANCH  10  13
TORSDOF 1
ENDMDL
