MODEL 1
REMARK VINA RESULT:      -7.1      0.000      0.000
REMARK  Name = 
REMARK  5 active torsions:
REMARK  status: ('A' for Active; 'I' for Inactive)
REMARK    1  A    between atoms: C_1  and  N_2
REMARK    2  A    between atoms: N_2  and  C_3
REMARK    3  A    between atoms: N_2  and  C_4
REMARK    4  A    between atoms: C_8  and  N_9
REMARK    5  A    between atoms: N_9  and  C_12
REMARK                            x       y       z     vdW  Elec       q    Type
REMARK                         _______ _______ _______ _____ _____    ______ ____
ROOT
ATOM      1  N   UNL     1       3.788   5.309  19.730  0.00  0.00    +0.000 N 
ATOM      2  C   UNL     1       5.141   5.305  19.401  0.00  0.00    +0.000 C 
ATOM      3  O   UNL     1       5.861   4.326  19.278  0.00  0.00    +0.000 OA
ENDROOT
BRANCH   1   4
ATOM      4  C   UNL     1       3.054   6.486  19.407  0.00  0.00    +0.000 A 
ATOM      5  C   UNL     1       3.161   7.037  18.129  0.00  0.00    +0.000 A 
ATOM      6  C   UNL     1       2.458   8.199  17.803  0.00  0.00    +0.000 A 
ATOM      7  C   UNL     1       1.617   8.805  18.742  0.00  0.00    +0.000 A 
ATOM      8 CL   UNL     1       0.792  10.251  18.281  0.00  0.00    +0.000 Cl
ATOM      9  C   UNL     1       1.469   8.230  20.007  0.00  0.00    +0.000 A 
ATOM     10 CL   UNL     1       0.404   8.881  21.205  0.00  0.00    +0.000 Cl
ATOM     11  C   UNL     1       2.188   7.076  20.338  0.00  0.00    +0.000 A 
ENDBRANCH   1   4
BRANCH   1  16
ATOM     12  C   UNL     1       2.153   3.619  18.584  0.00  0.00    +0.000 C 
ATOM     13  C   UNL     1       1.053   2.774  19.254  0.00  0.00    +0.000 C 
ATOM     14  C   UNL     1       0.741   3.474  20.557  0.00  0.00    +0.000 C 
ATOM     15  C   UNL     1       2.065   4.037  21.033  0.00  0.00    +0.000 C 
ATOM     16  C   UNL     1       3.030   4.037  19.829  0.00  0.00    +0.000 C 
BRANCH  12  18
ATOM     17  C   UNL     1       3.656   3.606  16.663  0.00  0.00    +0.000 C 
ATOM     18  N   UNL     1       2.780   2.790  17.521  0.00  0.00    +0.000 NA
ATOM     19  C   UNL     1       3.541   1.647  18.019  0.00  0.00    +0.000 C 
ENDBRANCH  12  18
ENDBRANCH   1  16
TORSDOF 3
ENDMDL
MODEL 2
REMARK VINA RESULT:      -6.7      0.953      2.325
REMARK  Name = 
REMARK  5 active torsions:
REMARK  status: ('A' for Active; 'I' for Inactive)
REMARK    1  A    between atoms: C_1  and  N_2
REMARK    2  A    between atoms: N_2  and  C_3
REMARK    3  A    between atoms: N_2  and  C_4
REMARK    4  A    between atoms: C_8  and  N_9
REMARK    5  A    between atoms: N_9  and  C_12
REMARK                            x       y       z     vdW  Elec       q    Type
REMARK                         _______ _______ _______ _____ _____    ______ ____
ROOT
ATOM      1  N   UNL     1       3.683   5.315  19.212  0.00  0.00    +0.000 N 
ATOM      2  C   UNL     1       5.070   5.378  19.327  0.00  0.00    +0.000 C 
ATOM      3  O   UNL     1       5.864   4.475  19.115  0.00  0.00    +0.000 OA
ENDROOT
BRANCH   1   4
ATOM      4  C   UNL     1       2.994   6.554  19.087  0.00  0.00    +0.000 A 
ATOM      5  C   UNL     1       3.100   7.286  17.904  0.00  0.00    +0.000 A 
ATOM      6  C   UNL     1       2.441   8.511  17.772  0.00  0.00    +0.000 A 
ATOM      7  C   UNL     1       1.644   9.001  18.812  0.00  0.00    +0.000 A 
ATOM      8 CL   UNL     1       0.872  10.531  18.593  0.00  0.00    +0.000 Cl
ATOM      9  C   UNL     1       1.495   8.249  19.980  0.00  0.00    +0.000 A 
ATOM     10 CL   UNL     1       0.481   8.753  21.287  0.00  0.00    +0.000 Cl
ATOM     11  C   UNL     1       2.171   7.031  20.117  0.00  0.00    +0.000 A 
ENDBRANCH   1   4
BRANCH   1  16
ATOM     12  C   UNL     1       3.008   2.811  19.555  0.00  0.00    +0.000 C 
ATOM     13  C   UNL     1       2.951   1.699  18.491  0.00  0.00    +0.000 C 
ATOM     14  C   UNL     1       3.843   2.169  17.365  0.00  0.00    +0.000 C 
ATOM     15  C   UNL     1       3.665   3.673  17.317  0.00  0.00    +0.000 C 
ATOM     16  C   UNL     1       3.026   4.107  18.653  0.00  0.00    +0.000 C 
BRANCH  12  18
ATOM     17  C   UNL     1       2.232   2.990  21.861  0.00  0.00    +0.000 C 
ATOM     18  N   UNL     1       1.866   2.609  20.486  0.00  0.00    +0.000 NA
ATOM     19  C   UNL     1       0.649   3.323  20.108  0.00  0.00    +0.000 C 
ENDBRANCH  12  18
ENDBRANCH   1  16
TORSDOF 3
ENDMDL
MODEL 3
REMARK VINA RESULT:      -6.5      2.002      3.717
REMARK  Name = 
REMARK  5 active torsions:
REMARK  status: ('A' for Active; 'I' for Inactive)
REMARK    1  A    between atoms: C_1  and  N_2
REMARK    2  A    between atoms: N_2  and  C_3
REMARK    3  A    between atoms: N_2  and  C_4
REMARK    4  A    between atoms: C_8  and  N_9
REMARK    5  A    between atoms: N_9  and  C_12
REMARK                            x       y       z     vdW  Elec       q    Type
REMARK                         _______ _______ _______ _____ _____    ______ ____
ROOT
ATOM      1  N   UNL     1       4.095   4.963  18.758  0.00  0.00    +0.000 N 
ATOM      2  C   UNL     1       4.028   3.785  19.498  0.00  0.00    +0.000 C 
ATOM      3  O   UNL     1       4.881   2.913  19.564  0.00  0.00    +0.000 OA
ENDROOT
BRANCH   1   4
ATOM      4  C   UNL     1       3.214   6.012  19.144  0.00  0.00    +0.000 A 
ATOM      5  C   UNL     1       2.540   5.934  20.364  0.00  0.00    +0.000 A 
ATOM      6  C   UNL     1       1.661   6.949  20.749  0.00  0.00    +0.000 A 
ATOM      7  C   UNL     1       1.472   8.069  19.933  0.00  0.00    +0.000 A 
ATOM      8 CL   UNL     1       0.356   9.278  20.459  0.00  0.00    +0.000 Cl
ATOM      9  C   UNL     1       2.180   8.176  18.733  0.00  0.00    +0.000 A 
ATOM     10 CL   UNL     1       2.048   9.553  17.696  0.00  0.00    +0.000 Cl
ATOM     11  C   UNL     1       3.046   7.149  18.340  0.00  0.00    +0.000 A 
ENDBRANCH   1   4
BRANCH   1  16
ATOM     12  C   UNL     1       5.869   4.367  16.931  0.00  0.00    +0.000 C 
ATOM     13  C   UNL     1       7.384   4.645  16.966  0.00  0.00    +0.000 C 
ATOM     14  C   UNL     1       7.729   4.829  18.426  0.00  0.00    +0.000 C 
ATOM     15  C   UNL     1       6.524   5.516  19.036  0.00  0.00    +0.000 C 
ATOM     16  C   UNL     1       5.345   5.344  18.055  0.00  0.00    +0.000 C 
BRANCH  12  18
ATOM     17  C   UNL     1       5.274   6.011  15.229  0.00  0.00    +0.000 C 
ATOM     18  N   UNL     1       5.401   4.575  15.535  0.00  0.00    +0.000 NA
ATOM     19  C   UNL     1       6.242   3.951  14.518  0.00  0.00    +0.000 C 
ENDBRANCH  12  18
ENDBRANCH   1  16
TORSDOF 3
ENDMDL
MODEL 4
REMARK VINA RESULT:      -6.4      1.963      3.368
REMARK  Name = 
REMARK  5 active torsions:
REMARK  status: ('A' for Active; 'I' for Inactive)
REMARK    1  A    between atoms: C_1  and  N_2
REMARK    2  A    between atoms: N_2  and  C_3
REMARK    3  A    between atoms: N_2  and  C_4
REMARK    4  A    between atoms: C_8  and  N_9
REMARK    5  A    between atoms: N_9  and  C_12
REMARK                            x       y       z     vdW  Elec       q    Type
REMARK                         _______ _______ _______ _____ _____    ______ ____
ROOT
ATOM      1  N   UNL     1       3.956   5.446  18.509  0.00  0.00    +0.000 N 
ATOM      2  C   UNL     1       3.717   4.399  19.395  0.00  0.00    +0.000 C 
ATOM      3  O   UNL     1       4.471   3.474  19.655  0.00  0.00    +0.000 OA
ENDROOT
BRANCH   1   4
ATOM      4  C   UNL     1       3.157   6.614  18.668  0.00  0.00    +0.000 A 
ATOM      5  C   UNL     1       3.084   7.547  17.633  0.00  0.00    +0.000 A 
ATOM      6  C   UNL     1       2.315   8.704  17.782  0.00  0.00    +0.000 A 
ATOM      7  C   UNL     1       1.587   8.925  18.955  0.00  0.00    +0.000 A 
ATOM      8 CL   UNL     1       0.674  10.386  19.082  0.00  0.00    +0.000 Cl
ATOM      9  C   UNL     1       1.619   7.971  19.976  0.00  0.00    +0.000 A 
ATOM     10 CL   UNL     1       0.701   8.138  21.433  0.00  0.00    +0.000 Cl
ATOM     11  C   UNL     1       2.403   6.821  19.832  0.00  0.00    +0.000 A 
ENDBRANCH   1   4
BRANCH   1  16
ATOM     12  C   UNL     1       5.758   4.475  16.881  0.00  0.00    +0.000 C 
ATOM     13  C   UNL     1       7.290   4.576  17.007  0.00  0.00    +0.000 C 
ATOM     14  C   UNL     1       7.559   4.858  18.467  0.00  0.00    +0.000 C 
ATOM     15  C   UNL     1       6.411   5.737  18.922  0.00  0.00    +0.000 C 
ATOM     16  C   UNL     1       5.286   5.610  17.872  0.00  0.00    +0.000 C 
BRANCH  12  18
ATOM     17  C   UNL     1       5.294   6.016  15.048  0.00  0.00    +0.000 C 
ATOM     18  N   UNL     1       5.410   4.601  15.441  0.00  0.00    +0.000 NA
ATOM     19  C   UNL     1       6.344   3.937  14.536  0.00  0.00    +0.000 C 
ENDBRANCH  12  18
ENDBRANCH   1  16
TORSDOF 3
ENDMDL
MODEL 5
REMARK VINA RESULT:      -6.3      1.249      2.341
REMARK  Name = 
REMARK  5 active torsions:
REMARK  status: ('A' for Active; 'I' for Inactive)
REMARK    1  A    between atoms: C_1  and  N_2
REMARK    2  A    between atoms: N_2  and  C_3
REMARK    3  A    between atoms: N_2  and  C_4
REMARK    4  A    between atoms: C_8  and  N_9
REMARK    5  A    between atoms: N_9  and  C_12
REMARK                            x       y       z     vdW  Elec       q    Type
REMARK                         _______ _______ _______ _____ _____    ______ ____
ROOT
ATOM      1  N   UNL     1       3.649   5.820  18.633  0.00  0.00    +0.000 N 
ATOM      2  C   UNL     1       4.915   5.958  18.069  0.00  0.00    +0.000 C 
ATOM      3  O   UNL     1       5.594   5.074  17.571  0.00  0.00    +0.000 OA
ENDROOT
BRANCH   1   4
ATOM      4  C   UNL     1       2.872   7.006  18.761  0.00  0.00    +0.000 A 
ATOM      5  C   UNL     1       2.761   7.879  17.678  0.00  0.00    +0.000 A 
ATOM      6  C   UNL     1       2.014   9.054  17.794  0.00  0.00    +0.000 A 
ATOM      7  C   UNL     1       1.344   9.352  18.985  0.00  0.00    +0.000 A 
ATOM      8 CL   UNL     1       0.455  10.830  19.068  0.00  0.00    +0.000 Cl
ATOM      9  C   UNL     1       1.413   8.459  20.057  0.00  0.00    +0.000 A 
ATOM     10 CL   UNL     1       0.567   8.723  21.542  0.00  0.00    +0.000 Cl
ATOM     11  C   UNL     1       2.176   7.291  19.945  0.00  0.00    +0.000 A 
ENDBRANCH   1   4
BRANCH   1  16
ATOM     12  C   UNL     1       3.080   3.525  19.752  0.00  0.00    +0.000 C 
ATOM     13  C   UNL     1       2.849   2.171  19.055  0.00  0.00    +0.000 C 
ATOM     14  C   UNL     1       3.520   2.290  17.706  0.00  0.00    +0.000 C 
ATOM     15  C   UNL     1       3.316   3.732  17.286  0.00  0.00    +0.000 C 
ATOM     16  C   UNL     1       2.919   4.531  18.546  0.00  0.00    +0.000 C 
BRANCH  12  18
ATOM     17  C   UNL     1       0.768   3.940  20.411  0.00  0.00    +0.000 C 
ATOM     18  N   UNL     1       2.124   3.621  20.888  0.00  0.00    +0.000 NA
ATOM     19  C   UNL     1       2.060   2.425  21.723  0.00  0.00    +0.000 C 
ENDBRANCH  12  18
ENDBRANCH   1  16
TORSDOF 3
ENDMDL
MODEL 6
REMARK VINA RESULT:      -6.3      2.185      3.991
REMARK  Name = 
REMARK  5 active torsions:
REMARK  status: ('A' for Active; 'I' for Inactive)
REMARK    1  A    between atoms: C_1  and  N_2
REMARK    2  A    between atoms: N_2  and  C_3
REMARK    3  A    between atoms: N_2  and  C_4
REMARK    4  A    between atoms: C_8  and  N_9
REMARK    5  A    between atoms: N_9  and  C_12
REMARK                            x       y       z     vdW  Elec       q    Type
REMARK                         _______ _______ _______ _____ _____    ______ ____
ROOT
ATOM      1  N   UNL     1       4.437   4.453  18.404  0.00  0.00    +0.000 N 
ATOM      2  C   UNL     1       4.391   3.661  19.549  0.00  0.00    +0.000 C 
ATOM      3  O   UNL     1       5.158   2.759  19.846  0.00  0.00    +0.000 OA
ENDROOT
BRANCH   1   4
ATOM      4  C   UNL     1       3.737   5.692  18.454  0.00  0.00    +0.000 A 
ATOM      5  C   UNL     1       3.773   6.550  17.354  0.00  0.00    +0.000 A 
ATOM      6  C   UNL     1       3.102   7.775  17.394  0.00  0.00    +0.000 A 
ATOM      7  C   UNL     1       2.362   8.139  18.524  0.00  0.00    +0.000 A 
ATOM      8 CL   UNL     1       1.573   9.676  18.516  0.00  0.00    +0.000 Cl
ATOM      9  C   UNL     1       2.282   7.263  19.609  0.00  0.00    +0.000 A 
ATOM     10 CL   UNL     1       1.341   7.611  21.017  0.00  0.00    +0.000 Cl
ATOM     11  C   UNL     1       2.970   6.044  19.574  0.00  0.00    +0.000 A 
ENDBRANCH   1   4
BRANCH   1  16
ATOM     12  C   UNL     1       6.344   5.683  17.104  0.00  0.00    +0.000 C 
ATOM     13  C   UNL     1       6.881   5.362  15.697  0.00  0.00    +0.000 C 
ATOM     14  C   UNL     1       5.783   4.582  15.012  0.00  0.00    +0.000 C 
ATOM     15  C   UNL     1       5.146   3.747  16.106  0.00  0.00    +0.000 C 
ATOM     16  C   UNL     1       5.577   4.350  17.460  0.00  0.00    +0.000 C 
BRANCH  12  18
ATOM     17  C   UNL     1       7.730   7.538  17.874  0.00  0.00    +0.000 C 
ATOM     18  N   UNL     1       7.499   6.085  17.951  0.00  0.00    +0.000 NA
ATOM     19  C   UNL     1       7.377   5.702  19.355  0.00  0.00    +0.000 C 
ENDBRANCH  12  18
ENDBRANCH   1  16
TORSDOF 3
ENDMDL
MODEL 7
REMARK VINA RESULT:      -6.2      4.060      5.665
REMARK  Name = 
REMARK  5 active torsions:
REMARK  status: ('A' for Active; 'I' for Inactive)
REMARK    1  A    between atoms: C_1  and  N_2
REMARK    2  A    between atoms: N_2  and  C_3
REMARK    3  A    between atoms: N_2  and  C_4
REMARK    4  A    between atoms: C_8  and  N_9
REMARK    5  A    between atoms: N_9  and  C_12
REMARK                            x       y       z     vdW  Elec       q    Type
REMARK                         _______ _______ _______ _____ _____    ______ ____
ROOT
ATOM      1  N   UNL     1       6.060   5.340  17.796  0.00  0.00    +0.000 N 
ATOM      2  C   UNL     1       7.238   5.227  18.530  0.00  0.00    +0.000 C 
ATOM      3  O   UNL     1       7.347   5.239  19.746  0.00  0.00    +0.000 OA
ENDROOT
BRANCH   1   4
ATOM      4  C   UNL     1       6.099   4.882  16.448  0.00  0.00    +0.000 A 
ATOM      5  C   UNL     1       5.167   3.939  16.013  0.00  0.00    +0.000 A 
ATOM      6  C   UNL     1       5.202   3.471  14.697  0.00  0.00    +0.000 A 
ATOM      7  C   UNL     1       6.151   3.964  13.795  0.00  0.00    +0.000 A 
ATOM      8 CL   UNL     1       6.153   3.328  12.189  0.00  0.00    +0.000 Cl
ATOM      9  C   UNL     1       7.055   4.943  14.213  0.00  0.00    +0.000 A 
ATOM     10 CL   UNL     1       8.220   5.649  13.146  0.00  0.00    +0.000 Cl
ATOM     11  C   UNL     1       7.030   5.398  15.536  0.00  0.00    +0.000 A 
ENDBRANCH   1   4
BRANCH   1  16
ATOM     12  C   UNL     1       3.808   4.091  18.257  0.00  0.00    +0.000 C 
ATOM     13  C   UNL     1       2.412   4.712  18.449  0.00  0.00    +0.000 C 
ATOM     14  C   UNL     1       2.484   6.079  17.809  0.00  0.00    +0.000 C 
ATOM     15  C   UNL     1       3.893   6.569  18.075  0.00  0.00    +0.000 C 
ATOM     16  C   UNL     1       4.742   5.345  18.478  0.00  0.00    +0.000 C 
BRANCH  12  18
ATOM     17  C   UNL     1       3.088   3.144  20.387  0.00  0.00    +0.000 C 
ATOM     18  N   UNL     1       3.929   2.943  19.194  0.00  0.00    +0.000 NA
ATOM     19  C   UNL     1       3.604   1.647  18.603  0.00  0.00    +0.000 C 
ENDBRANCH  12  18
ENDBRANCH   1  16
TORSDOF 3
ENDMDL
MODEL 8
REMARK VINA RESULT:      -6.2      2.136      4.261
REMARK  Name = 
REMARK  5 active torsions:
REMARK  status: ('A' for Active; 'I' for Inactive)
REMARK    1  A    between atoms: C_1  and  N_2
REMARK    2  A    between atoms: N_2  and  C_3
REMARK    3  A    between atoms: N_2  and  C_4
REMARK    4  A    between atoms: C_8  and  N_9
REMARK    5  A    between atoms: N_9  and  C_12
REMARK                            x       y       z     vdW  Elec       q    Type
REMARK                         _______ _______ _______ _____ _____    ______ ____
ROOT
ATOM      1  N   UNL     1       3.551   3.784  17.698  0.00  0.00    +0.000 N 
ATOM      2  C   UNL     1       3.142   2.518  18.110  0.00  0.00    +0.000 C 
ATOM      3  O   UNL     1       3.682   1.454  17.849  0.00  0.00    +0.000 OA
ENDROOT
BRANCH   1   4
ATOM      4  C   UNL     1       3.054   4.891  18.443  0.00  0.00    +0.000 A 
ATOM      5  C   UNL     1       2.745   4.730  19.794  0.00  0.00    +0.000 A 
ATOM      6  C   UNL     1       2.242   5.804  20.534  0.00  0.00    +0.000 A 
ATOM      7  C   UNL     1       2.075   7.057  19.937  0.00  0.00    +0.000 A 
ATOM      8 CL   UNL     1       1.431   8.337  20.902  0.00  0.00    +0.000 Cl
ATOM      9  C   UNL     1       2.428   7.236  18.597  0.00  0.00    +0.000 A 
ATOM     10 CL   UNL     1       2.308   8.767  17.801  0.00  0.00    +0.000 Cl
ATOM     11  C   UNL     1       2.914   6.155  17.853  0.00  0.00    +0.000 A 
ENDBRANCH   1   4
BRANCH   1  16
ATOM     12  C   UNL     1       5.821   5.072  17.526  0.00  0.00    +0.000 C 
ATOM     13  C   UNL     1       6.586   5.461  16.247  0.00  0.00    +0.000 C 
ATOM     14  C   UNL     1       5.559   5.443  15.138  0.00  0.00    +0.000 C 
ATOM     15  C   UNL     1       4.614   4.311  15.490  0.00  0.00    +0.000 C 
ATOM     16  C   UNL     1       4.836   3.966  16.978  0.00  0.00    +0.000 C 
BRANCH  12  18
ATOM     17  C   UNL     1       8.128   4.391  17.936  0.00  0.00    +0.000 C 
ATOM     18  N   UNL     1       6.823   4.682  18.554  0.00  0.00    +0.000 NA
ATOM     19  C   UNL     1       7.013   5.670  19.613  0.00  0.00    +0.000 C 
ENDBRANCH  12  18
ENDBRANCH   1  16
TORSDOF 3
ENDMDL
MODEL 9
REMARK VINA RESULT:      -6.2      1.484      2.197
REMARK  Name = 
REMARK  5 active torsions:
REMARK  status: ('A' for Active; 'I' for Inactive)
REMARK    1  A    between atoms: C_1  and  N_2
REMARK    2  A    between atoms: N_2  and  C_3
REMARK    3  A    between atoms: N_2  and  C_4
REMARK    4  A    between atoms: C_8  and  N_9
REMARK    5  A    between atoms: N_9  and  C_12
REMARK                            x       y       z     vdW  Elec       q    Type
REMARK                         _______ _______ _______ _____ _____    ______ ____
ROOT
ATOM      1  N   UNL     1       3.407   5.901  18.726  0.00  0.00    +0.000 N 
ATOM      2  C   UNL     1       4.542   5.996  17.924  0.00  0.00    +0.000 C 
ATOM      3  O   UNL     1       5.122   5.077  17.366  0.00  0.00    +0.000 OA
ENDROOT
BRANCH   1   4
ATOM      4  C   UNL     1       2.659   7.097  18.921  0.00  0.00    +0.000 A 
ATOM      5  C   UNL     1       2.558   8.024  17.883  0.00  0.00    +0.000 A 
ATOM      6  C   UNL     1       1.840   9.209  18.064  0.00  0.00    +0.000 A 
ATOM      7  C   UNL     1       1.190   9.463  19.276  0.00  0.00    +0.000 A 
ATOM      8 CL   UNL     1       0.336  10.956  19.442  0.00  0.00    +0.000 Cl
ATOM      9  C   UNL     1       1.248   8.517  20.302  0.00  0.00    +0.000 A 
ATOM     10 CL   UNL     1       0.423   8.727  21.808  0.00  0.00    +0.000 Cl
ATOM     11  C   UNL     1       1.982   7.339  20.124  0.00  0.00    +0.000 A 
ENDBRANCH   1   4
BRANCH   1  16
ATOM     12  C   UNL     1       3.547   3.327  19.171  0.00  0.00    +0.000 C 
ATOM     13  C   UNL     1       2.676   2.218  18.552  0.00  0.00    +0.000 C 
ATOM     14  C   UNL     1       2.110   2.808  17.281  0.00  0.00    +0.000 C 
ATOM     15  C   UNL     1       1.874   4.273  17.593  0.00  0.00    +0.000 C 
ATOM     16  C   UNL     1       2.683   4.613  18.863  0.00  0.00    +0.000 C 
BRANCH  12  18
ATOM     17  C   UNL     1       2.537   2.796  21.327  0.00  0.00    +0.000 C 
ATOM     18  N   UNL     1       3.801   2.967  20.591  0.00  0.00    +0.000 NA
ATOM     19  C   UNL     1       4.615   1.768  20.771  0.00  0.00    +0.000 C 
ENDBRANCH  12  18
ENDBRANCH   1  16
TORSDOF 3
ENDMDL
