MODEL 1
REMARK VINA RESULT:      -7.4      0.000      0.000
REMARK  Name = 
REMARK  12 active torsions:
REMARK  status: ('A' for Active; 'I' for Inactive)
REMARK    1  A    between atoms: C_1  and  C_2
REMARK    2  A    between atoms: C_2  and  C_3
REMARK    3  A    between atoms: C_3  and  N_4
REMARK    4  A    between atoms: N_4  and  C_5
REMARK    5  A    between atoms: N_4  and  C_8
REMARK    6  A    between atoms: C_5  and  C_6
REMARK    7  A    between atoms: C_6  and  C_7
REMARK    8  A    between atoms: C_8  and  C_9
REMARK    9  A    between atoms: N_11  and  C_12
REMARK   10  A    between atoms: C_21  and  C_22
REMARK   11  A    between atoms: C_22  and  O_24
REMARK   12  A    between atoms: N_26  and  C_27
REMARK                            x       y       z     vdW  Elec       q    Type
REMARK                         _______ _______ _______ _____ _____    ______ ____
ROOT
ATOM      1  C   UNL     1       1.301   8.464  20.502  0.00  0.00    +0.000 A 
ATOM      2  C   UNL     1       1.587   7.104  20.758  0.00  0.00    +0.000 A 
ATOM      3  C   UNL     1       2.340   6.344  19.847  0.00  0.00    +0.000 A 
ATOM      4  C   UNL     1       2.806   6.989  18.684  0.00  0.00    +0.000 A 
ATOM      5  C   UNL     1       2.493   8.320  18.405  0.00  0.00    +0.000 A 
ATOM      6  C   UNL     1       1.741   9.047  19.313  0.00  0.00    +0.000 A 
ATOM      7  F   UNL     1       1.495  10.324  19.003  0.00  0.00    +0.000 F 
ATOM      8  C   UNL     1       3.692   6.264  17.749  0.00  0.00    +0.000 A 
ATOM      9  O   UNL     1       4.084   6.783  16.706  0.00  0.00    +0.000 OA
ATOM     10  C   UNL     1       4.147   4.912  18.122  0.00  0.00    +0.000 A 
ATOM     11  C   UNL     1       3.607   4.374  19.227  0.00  0.00    +0.000 A 
ATOM     12  N   UNL     1       2.668   4.974  20.053  0.00  0.00    +0.000 N 
ENDROOT
BRANCH   1  15
ATOM     13  C   UNL     1      -0.731  10.578  22.551  0.00  0.00    +0.000 A 
ATOM     14  C   UNL     1      -0.479  10.061  21.302  0.00  0.00    +0.000 A 
ATOM     15  N   UNL     1       0.602   9.231  21.466  0.00  0.00    +0.000 N 
ATOM     16  N   UNL     1       0.986   9.254  22.769  0.00  0.00    +0.000 NA
ATOM     17  N   UNL     1       0.184  10.075  23.432  0.00  0.00    +0.000 NA
BRANCH  13  18
ATOM     18  C   UNL     1      -1.820  11.498  22.985  0.00  0.00    +0.000 C 
BRANCH  18  19
ATOM     19  N   UNL     1      -1.853  12.737  22.159  0.00  0.00    +0.000 NA
BRANCH  19  20
ATOM     20  C   UNL     1      -3.203  13.352  22.256  0.00  0.00    +0.000 C 
BRANCH  20  22
ATOM     21  C   UNL     1      -3.571  12.478  19.875  0.00  0.00    +0.000 C 
ATOM     22  C   UNL     1      -4.207  13.044  21.135  0.00  0.00    +0.000 C 
ENDBRANCH  20  22
ENDBRANCH  19  20
BRANCH  19  23
ATOM     23  C   UNL     1      -0.806  13.676  22.622  0.00  0.00    +0.000 C 
BRANCH  23  24
ATOM     24  C   UNL     1       0.334  13.964  21.626  0.00  0.00    +0.000 C 
ATOM     25  C   UNL     1      -0.025  13.661  20.179  0.00  0.00    +0.000 C 
ENDBRANCH  23  24
ENDBRANCH  19  23
ENDBRANCH  18  19
ENDBRANCH  13  18
ENDBRANCH   1  15
BRANCH  12  26
ATOM     26  C   UNL     1       2.194   4.213  21.226  0.00  0.00    +0.000 C 
ATOM     27  C   UNL     1       1.219   3.067  21.108  0.00  0.00    +0.000 C 
ATOM     28  C   UNL     1       2.643   2.789  21.469  0.00  0.00    +0.000 C 
ENDBRANCH  12  26
BRANCH  10  29
ATOM     29  C   UNL     1       5.155   4.157  17.353  0.00  0.00    +0.000 C 
ATOM     30  O   UNL     1       4.978   3.780  16.204  0.00  0.00    +0.000 OA
BRANCH  29  31
ATOM     31  O   UNL     1       6.297   3.896  18.027  0.00  0.00    +0.000 OA
ATOM     32  H   UNL     1       6.733   3.045  17.774  0.00  0.00    +0.000 HD
ENDBRANCH  29  31
ENDBRANCH  10  29
TORSDOF 10
ENDMDL
MODEL 2
REMARK VINA RESULT:      -7.4      4.029      9.666
REMARK  Name = 
REMARK  12 active torsions:
REMARK  status: ('A' for Active; 'I' for Inactive)
REMARK    1  A    between atoms: C_1  and  C_2
REMARK    2  A    between atoms: C_2  and  C_3
REMARK    3  A    between atoms: C_3  and  N_4
REMARK    4  A    between atoms: N_4  and  C_5
REMARK    5  A    between atoms: N_4  and  C_8
REMARK    6  A    between atoms: C_5  and  C_6
REMARK    7  A    between atoms: C_6  and  C_7
REMARK    8  A    between atoms: C_8  and  C_9
REMARK    9  A    between atoms: N_11  and  C_12
REMARK   10  A    between atoms: C_21  and  C_22
REMARK   11  A    between atoms: C_22  and  O_24
REMARK   12  A    between atoms: N_26  and  C_27
REMARK                            x       y       z     vdW  Elec       q    Type
REMARK                         _______ _______ _______ _____ _____    ______ ____
ROOT
ATOM      1  C   UNL     1       1.806   8.106  19.619  0.00  0.00    +0.000 A 
ATOM      2  C   UNL     1       1.486   9.445  19.299  0.00  0.00    +0.000 A 
ATOM      3  C   UNL     1       0.689  10.220  20.159  0.00  0.00    +0.000 A 
ATOM      4  C   UNL     1       0.235   9.618  21.350  0.00  0.00    +0.000 A 
ATOM      5  C   UNL     1       0.512   8.285  21.652  0.00  0.00    +0.000 A 
ATOM      6  C   UNL     1       1.292   7.537  20.785  0.00  0.00    +0.000 A 
ATOM      7  F   UNL     1       1.544   6.273  21.141  0.00  0.00    +0.000 F 
ATOM      8  C   UNL     1      -0.513  10.423  22.337  0.00  0.00    +0.000 A 
ATOM      9  O   UNL     1      -0.959   9.921  23.367  0.00  0.00    +0.000 OA
ATOM     10  C   UNL     1      -0.671  11.867  22.088  0.00  0.00    +0.000 A 
ATOM     11  C   UNL     1      -0.242  12.329  20.903  0.00  0.00    +0.000 A 
ATOM     12  N   UNL     1       0.342  11.575  19.896  0.00  0.00    +0.000 N 
ENDROOT
BRANCH   1  15
ATOM     13  C   UNL     1       3.928   5.862  17.814  0.00  0.00    +0.000 A 
ATOM     14  C   UNL     1       3.065   6.054  18.867  0.00  0.00    +0.000 A 
ATOM     15  N   UNL     1       2.668   7.365  18.774  0.00  0.00    +0.000 N 
ATOM     16  N   UNL     1       3.276   7.939  17.704  0.00  0.00    +0.000 NA
ATOM     17  N   UNL     1       4.049   7.033  17.120  0.00  0.00    +0.000 NA
BRANCH  13  18
ATOM     18  C   UNL     1       4.627   4.618  17.387  0.00  0.00    +0.000 C 
BRANCH  18  19
ATOM     19  N   UNL     1       5.715   4.906  16.411  0.00  0.00    +0.000 NA
BRANCH  19  20
ATOM     20  C   UNL     1       7.029   4.791  17.097  0.00  0.00    +0.000 C 
BRANCH  20  22
ATOM     21  C   UNL     1       7.752   5.781  19.347  0.00  0.00    +0.000 C 
ATOM     22  C   UNL     1       7.543   6.020  17.860  0.00  0.00    +0.000 C 
ENDBRANCH  20  22
ENDBRANCH  19  20
BRANCH  19  23
ATOM     23  C   UNL     1       5.626   3.968  15.269  0.00  0.00    +0.000 C 
BRANCH  23  24
ATOM     24  C   UNL     1       6.487   4.315  14.039  0.00  0.00    +0.000 C 
ATOM     25  C   UNL     1       6.096   3.550  12.783  0.00  0.00    +0.000 C 
ENDBRANCH  23  24
ENDBRANCH  19  23
ENDBRANCH  18  19
ENDBRANCH  13  18
ENDBRANCH   1  15
BRANCH  12  26
ATOM     26  C   UNL     1       0.747  12.271  18.659  0.00  0.00    +0.000 C 
ATOM     27  C   UNL     1       0.779  13.776  18.549  0.00  0.00    +0.000 C 
ATOM     28  C   UNL     1       2.063  13.011  18.572  0.00  0.00    +0.000 C 
ENDBRANCH  12  26
BRANCH  10  29
ATOM     29  C   UNL     1      -1.256  12.799  23.072  0.00  0.00    +0.000 C 
ATOM     30  O   UNL     1      -0.642  13.741  23.551  0.00  0.00    +0.000 OA
BRANCH  29  31
ATOM     31  O   UNL     1      -2.531  12.520  23.421  0.00  0.00    +0.000 OA
ATOM     32  H   UNL     1      -2.843  11.624  23.141  0.00  0.00    +0.000 HD
ENDBRANCH  29  31
ENDBRANCH  10  29
TORSDOF 10
ENDMDL
MODEL 3
REMARK VINA RESULT:      -7.3      1.417      2.024
REMARK  Name = 
REMARK  12 active torsions:
REMARK  status: ('A' for Active; 'I' for Inactive)
REMARK    1  A    between atoms: C_1  and  C_2
REMARK    2  A    between atoms: C_2  and  C_3
REMARK    3  A    between atoms: C_3  and  N_4
REMARK    4  A    between atoms: N_4  and  C_5
REMARK    5  A    between atoms: N_4  and  C_8
REMARK    6  A    between atoms: C_5  and  C_6
REMARK    7  A    between atoms: C_6  and  C_7
REMARK    8  A    between atoms: C_8  and  C_9
REMARK    9  A    between atoms: N_11  and  C_12
REMARK   10  A    between atoms: C_21  and  C_22
REMARK   11  A    between atoms: C_22  and  O_24
REMARK   12  A    between atoms: N_26  and  C_27
REMARK                            x       y       z     vdW  Elec       q    Type
REMARK                         _______ _______ _______ _____ _____    ______ ____
ROOT
ATOM      1  C   UNL     1       1.457   8.857  19.364  0.00  0.00    +0.000 A 
ATOM      2  C   UNL     1       1.714   7.568  19.882  0.00  0.00    +0.000 A 
ATOM      3  C   UNL     1       2.634   6.710  19.254  0.00  0.00    +0.000 A 
ATOM      4  C   UNL     1       3.294   7.188  18.104  0.00  0.00    +0.000 A 
ATOM      5  C   UNL     1       3.014   8.443  17.563  0.00  0.00    +0.000 A 
ATOM      6  C   UNL     1       2.097   9.267  18.193  0.00  0.00    +0.000 A 
ATOM      7  F   UNL     1       1.890  10.468  17.643  0.00  0.00    +0.000 F 
ATOM      8  C   UNL     1       4.348   6.368  17.471  0.00  0.00    +0.000 A 
ATOM      9  O   UNL     1       4.915   6.735  16.444  0.00  0.00    +0.000 OA
ATOM     10  C   UNL     1       4.749   5.113  18.132  0.00  0.00    +0.000 A 
ATOM     11  C   UNL     1       4.027   4.729  19.195  0.00  0.00    +0.000 A 
ATOM     12  N   UNL     1       2.942   5.406  19.733  0.00  0.00    +0.000 N 
ENDROOT
BRANCH   1  15
ATOM     13  C   UNL     1      -0.475  10.976  21.503  0.00  0.00    +0.000 A 
ATOM     14  C   UNL     1       0.640  10.187  21.345  0.00  0.00    +0.000 A 
ATOM     15  N   UNL     1       0.580   9.731  20.051  0.00  0.00    +0.000 N 
ATOM     16  N   UNL     1      -0.536  10.228  19.456  0.00  0.00    +0.000 NA
ATOM     17  N   UNL     1      -1.184  10.980  20.335  0.00  0.00    +0.000 NA
BRANCH  13  18
ATOM     18  C   UNL     1      -0.902  11.772  22.687  0.00  0.00    +0.000 C 
BRANCH  18  19
ATOM     19  N   UNL     1      -1.499  13.076  22.285  0.00  0.00    +0.000 NA
BRANCH  19  20
ATOM     20  C   UNL     1      -2.921  13.116  22.718  0.00  0.00    +0.000 C 
BRANCH  20  22
ATOM     21  C   UNL     1      -4.588  12.561  24.584  0.00  0.00    +0.000 C 
ATOM     22  C   UNL     1      -3.364  12.118  23.798  0.00  0.00    +0.000 C 
ENDBRANCH  20  22
ENDBRANCH  19  20
BRANCH  19  23
ATOM     23  C   UNL     1      -0.729  14.188  22.887  0.00  0.00    +0.000 C 
BRANCH  23  24
ATOM     24  C   UNL     1      -1.553  15.267  23.615  0.00  0.00    +0.000 C 
ATOM     25  C   UNL     1      -1.294  15.329  25.113  0.00  0.00    +0.000 C 
ENDBRANCH  23  24
ENDBRANCH  19  23
ENDBRANCH  18  19
ENDBRANCH  13  18
ENDBRANCH   1  15
BRANCH  12  26
ATOM     26  C   UNL     1       2.274   4.816  20.910  0.00  0.00    +0.000 C 
ATOM     27  C   UNL     1       1.132   3.838  20.788  0.00  0.00    +0.000 C 
ATOM     28  C   UNL     1       2.464   3.359  21.269  0.00  0.00    +0.000 C 
ENDBRANCH  12  26
BRANCH  10  29
ATOM     29  C   UNL     1       5.894   4.294  17.687  0.00  0.00    +0.000 C 
ATOM     30  O   UNL     1       6.962   4.256  18.278  0.00  0.00    +0.000 OA
BRANCH  29  31
ATOM     31  O   UNL     1       5.675   3.593  16.552  0.00  0.00    +0.000 OA
ATOM     32  H   UNL     1       6.498   3.326  16.074  0.00  0.00    +0.000 HD
ENDBRANCH  29  31
ENDBRANCH  10  29
TORSDOF 10
ENDMDL
MODEL 4
REMARK VINA RESULT:      -7.3      2.350      3.943
REMARK  Name = 
REMARK  12 active torsions:
REMARK  status: ('A' for Active; 'I' for Inactive)
REMARK    1  A    between atoms: C_1  and  C_2
REMARK    2  A    between atoms: C_2  and  C_3
REMARK    3  A    between atoms: C_3  and  N_4
REMARK    4  A    between atoms: N_4  and  C_5
REMARK    5  A    between atoms: N_4  and  C_8
REMARK    6  A    between atoms: C_5  and  C_6
REMARK    7  A    between atoms: C_6  and  C_7
REMARK    8  A    between atoms: C_8  and  C_9
REMARK    9  A    between atoms: N_11  and  C_12
REMARK   10  A    between atoms: C_21  and  C_22
REMARK   11  A    between atoms: C_22  and  O_24
REMARK   12  A    between atoms: N_26  and  C_27
REMARK                            x       y       z     vdW  Elec       q    Type
REMARK                         _______ _______ _______ _____ _____    ______ ____
ROOT
ATOM      1  C   UNL     1       1.826   8.170  19.418  0.00  0.00    +0.000 A 
ATOM      2  C   UNL     1       2.761   7.568  18.546  0.00  0.00    +0.000 A 
ATOM      3  C   UNL     1       3.212   6.256  18.769  0.00  0.00    +0.000 A 
ATOM      4  C   UNL     1       2.689   5.564  19.880  0.00  0.00    +0.000 A 
ATOM      5  C   UNL     1       1.797   6.166  20.768  0.00  0.00    +0.000 A 
ATOM      6  C   UNL     1       1.374   7.464  20.534  0.00  0.00    +0.000 A 
ATOM      7  F   UNL     1       0.500   7.977  21.405  0.00  0.00    +0.000 F 
ATOM      8  C   UNL     1       3.047   4.147  20.095  0.00  0.00    +0.000 A 
ATOM      9  O   UNL     1       2.641   3.525  21.075  0.00  0.00    +0.000 OA
ATOM     10  C   UNL     1       3.865   3.469  19.073  0.00  0.00    +0.000 A 
ATOM     11  C   UNL     1       4.349   4.230  18.080  0.00  0.00    +0.000 A 
ATOM     12  N   UNL     1       4.145   5.593  17.922  0.00  0.00    +0.000 N 
ENDROOT
BRANCH   1  15
ATOM     13  C   UNL     1       0.134  11.271  18.856  0.00  0.00    +0.000 A 
ATOM     14  C   UNL     1       0.077   9.985  19.340  0.00  0.00    +0.000 A 
ATOM     15  N   UNL     1       1.332   9.467  19.136  0.00  0.00    +0.000 N 
ATOM     16  N   UNL     1       2.112  10.410  18.547  0.00  0.00    +0.000 NA
ATOM     17  N   UNL     1       1.388  11.506  18.368  0.00  0.00    +0.000 NA
BRANCH  13  18
ATOM     18  C   UNL     1      -0.921  12.324  18.861  0.00  0.00    +0.000 C 
BRANCH  18  19
ATOM     19  N   UNL     1      -2.048  11.967  19.766  0.00  0.00    +0.000 NA
BRANCH  19  20
ATOM     20  C   UNL     1      -2.093  12.934  20.894  0.00  0.00    +0.000 C 
BRANCH  20  22
ATOM     21  C   UNL     1      -1.219  11.468  22.805  0.00  0.00    +0.000 C 
ATOM     22  C   UNL     1      -1.065  12.761  22.021  0.00  0.00    +0.000 C 
ENDBRANCH  20  22
ENDBRANCH  19  20
BRANCH  19  23
ATOM     23  C   UNL     1      -3.320  11.972  19.010  0.00  0.00    +0.000 C 
BRANCH  23  24
ATOM     24  C   UNL     1      -3.267  11.376  17.589  0.00  0.00    +0.000 C 
ATOM     25  C   UNL     1      -3.311   9.856  17.561  0.00  0.00    +0.000 C 
ENDBRANCH  23  24
ENDBRANCH  19  23
ENDBRANCH  18  19
ENDBRANCH  13  18
ENDBRANCH   1  15
BRANCH  12  26
ATOM     26  C   UNL     1       4.767   6.255  16.758  0.00  0.00    +0.000 C 
ATOM     27  C   UNL     1       6.255   6.231  16.512  0.00  0.00    +0.000 C 
ATOM     28  C   UNL     1       5.348   5.448  15.617  0.00  0.00    +0.000 C 
ENDBRANCH  12  26
BRANCH  10  29
ATOM     29  C   UNL     1       4.152   2.021  19.096  0.00  0.00    +0.000 C 
ATOM     30  O   UNL     1       3.624   1.220  18.339  0.00  0.00    +0.000 OA
BRANCH  29  31
ATOM     31  O   UNL     1       5.041   1.639  20.039  0.00  0.00    +0.000 OA
ATOM     32  H   UNL     1       5.412   2.384  20.574  0.00  0.00    +0.000 HD
ENDBRANCH  29  31
ENDBRANCH  10  29
TORSDOF 10
ENDMDL
MODEL 5
REMARK VINA RESULT:      -7.2      2.602      4.086
REMARK  Name = 
REMARK  12 active torsions:
REMARK  status: ('A' for Active; 'I' for Inactive)
REMARK    1  A    between atoms: C_1  and  C_2
REMARK    2  A    between atoms: C_2  and  C_3
REMARK    3  A    between atoms: C_3  and  N_4
REMARK    4  A    between atoms: N_4  and  C_5
REMARK    5  A    between atoms: N_4  and  C_8
REMARK    6  A    between atoms: C_5  and  C_6
REMARK    7  A    between atoms: C_6  and  C_7
REMARK    8  A    between atoms: C_8  and  C_9
REMARK    9  A    between atoms: N_11  and  C_12
REMARK   10  A    between atoms: C_21  and  C_22
REMARK   11  A    between atoms: C_22  and  O_24
REMARK   12  A    between atoms: N_26  and  C_27
REMARK                            x       y       z     vdW  Elec       q    Type
REMARK                         _______ _______ _______ _____ _____    ______ ____
ROOT
ATOM      1  C   UNL     1       1.541   8.324  19.529  0.00  0.00    +0.000 A 
ATOM      2  C   UNL     1       2.484   7.752  18.646  0.00  0.00    +0.000 A 
ATOM      3  C   UNL     1       2.995   6.463  18.876  0.00  0.00    +0.000 A 
ATOM      4  C   UNL     1       2.524   5.764  20.005  0.00  0.00    +0.000 A 
ATOM      5  C   UNL     1       1.624   6.338  20.903  0.00  0.00    +0.000 A 
ATOM      6  C   UNL     1       1.141   7.613  20.662  0.00  0.00    +0.000 A 
ATOM      7  F   UNL     1       0.263   8.100  21.544  0.00  0.00    +0.000 F 
ATOM      8  C   UNL     1       2.948   4.366  20.230  0.00  0.00    +0.000 A 
ATOM      9  O   UNL     1       2.588   3.740  21.225  0.00  0.00    +0.000 OA
ATOM     10  C   UNL     1       3.774   3.711  19.200  0.00  0.00    +0.000 A 
ATOM     11  C   UNL     1       4.205   4.480  18.189  0.00  0.00    +0.000 A 
ATOM     12  N   UNL     1       3.939   5.830  18.019  0.00  0.00    +0.000 N 
ENDROOT
BRANCH   1  15
ATOM     13  C   UNL     1      -0.284  11.287  18.697  0.00  0.00    +0.000 A 
ATOM     14  C   UNL     1      -0.302   9.927  18.903  0.00  0.00    +0.000 A 
ATOM     15  N   UNL     1       0.986   9.595  19.241  0.00  0.00    +0.000 N 
ATOM     16  N   UNL     1       1.750  10.718  19.235  0.00  0.00    +0.000 NA
ATOM     17  N   UNL     1       0.986  11.748  18.899  0.00  0.00    +0.000 NA
BRANCH  13  18
ATOM     18  C   UNL     1      -1.410  12.201  18.358  0.00  0.00    +0.000 C 
BRANCH  18  19
ATOM     19  N   UNL     1      -2.730  11.532  18.529  0.00  0.00    +0.000 NA
BRANCH  19  20
ATOM     20  C   UNL     1      -3.558  12.321  19.478  0.00  0.00    +0.000 C 
BRANCH  20  22
ATOM     21  C   UNL     1      -2.640  12.549  21.860  0.00  0.00    +0.000 C 
ATOM     22  C   UNL     1      -2.825  13.203  20.499  0.00  0.00    +0.000 C 
ENDBRANCH  20  22
ENDBRANCH  19  20
BRANCH  19  23
ATOM     23  C   UNL     1      -3.402  11.405  17.216  0.00  0.00    +0.000 C 
BRANCH  23  24
ATOM     24  C   UNL     1      -2.615  10.658  16.122  0.00  0.00    +0.000 C 
ATOM     25  C   UNL     1      -3.417  10.406  14.854  0.00  0.00    +0.000 C 
ENDBRANCH  23  24
ENDBRANCH  19  23
ENDBRANCH  18  19
ENDBRANCH  13  18
ENDBRANCH   1  15
BRANCH  12  26
ATOM     26  C   UNL     1       4.509   6.503  16.834  0.00  0.00    +0.000 C 
ATOM     27  C   UNL     1       5.994   6.707  16.655  0.00  0.00    +0.000 C 
ATOM     28  C   UNL     1       5.275   5.726  15.786  0.00  0.00    +0.000 C 
ENDBRANCH  12  26
BRANCH  10  29
ATOM     29  C   UNL     1       4.123   2.277  19.235  0.00  0.00    +0.000 C 
ATOM     30  O   UNL     1       3.635   1.449  18.481  0.00  0.00    +0.000 OA
BRANCH  29  31
ATOM     31  O   UNL     1       5.024   1.941  20.185  0.00  0.00    +0.000 OA
ATOM     32  H   UNL     1       5.914   2.358  20.068  0.00  0.00    +0.000 HD
ENDBRANCH  29  31
ENDBRANCH  10  29
TORSDOF 10
ENDMDL
MODEL 6
REMARK VINA RESULT:      -7.2      2.719      4.127
REMARK  Name = 
REMARK  12 active torsions:
REMARK  status: ('A' for Active; 'I' for Inactive)
REMARK    1  A    between atoms: C_1  and  C_2
REMARK    2  A    between atoms: C_2  and  C_3
REMARK    3  A    between atoms: C_3  and  N_4
REMARK    4  A    between atoms: N_4  and  C_5
REMARK    5  A    between atoms: N_4  and  C_8
REMARK    6  A    between atoms: C_5  and  C_6
REMARK    7  A    between atoms: C_6  and  C_7
REMARK    8  A    between atoms: C_8  and  C_9
REMARK    9  A    between atoms: N_11  and  C_12
REMARK   10  A    between atoms: C_21  and  C_22
REMARK   11  A    between atoms: C_22  and  O_24
REMARK   12  A    between atoms: N_26  and  C_27
REMARK                            x       y       z     vdW  Elec       q    Type
REMARK                         _______ _______ _______ _____ _____    ______ ____
ROOT
ATOM      1  C   UNL     1       1.388   8.467  19.583  0.00  0.00    +0.000 A 
ATOM      2  C   UNL     1       2.365   7.892  18.739  0.00  0.00    +0.000 A 
ATOM      3  C   UNL     1       2.892   6.618  19.011  0.00  0.00    +0.000 A 
ATOM      4  C   UNL     1       2.402   5.935  20.142  0.00  0.00    +0.000 A 
ATOM      5  C   UNL     1       1.468   6.513  21.003  0.00  0.00    +0.000 A 
ATOM      6  C   UNL     1       0.970   7.774  20.720  0.00  0.00    +0.000 A 
ATOM      7  F   UNL     1       0.059   8.264  21.567  0.00  0.00    +0.000 F 
ATOM      8  C   UNL     1       2.843   4.550  20.410  0.00  0.00    +0.000 A 
ATOM      9  O   UNL     1       2.467   3.940  21.409  0.00  0.00    +0.000 OA
ATOM     10  C   UNL     1       3.708   3.888  19.418  0.00  0.00    +0.000 A 
ATOM     11  C   UNL     1       4.154   4.642  18.401  0.00  0.00    +0.000 A 
ATOM     12  N   UNL     1       3.870   5.984  18.194  0.00  0.00    +0.000 N 
ENDROOT
BRANCH   1  15
ATOM     13  C   UNL     1      -0.484  11.390  18.718  0.00  0.00    +0.000 A 
ATOM     14  C   UNL     1      -0.496  10.054  19.046  0.00  0.00    +0.000 A 
ATOM     15  N   UNL     1       0.819   9.721  19.252  0.00  0.00    +0.000 N 
ATOM     16  N   UNL     1       1.593  10.819  19.051  0.00  0.00    +0.000 NA
ATOM     17  N   UNL     1       0.808  11.835  18.720  0.00  0.00    +0.000 NA
BRANCH  13  18
ATOM     18  C   UNL     1      -1.630  12.299  18.439  0.00  0.00    +0.000 C 
BRANCH  18  19
ATOM     19  N   UNL     1      -2.936  11.607  18.624  0.00  0.00    +0.000 NA
BRANCH  19  20
ATOM     20  C   UNL     1      -3.779  12.396  19.560  0.00  0.00    +0.000 C 
BRANCH  20  22
ATOM     21  C   UNL     1      -6.173  11.882  20.315  0.00  0.00    +0.000 C 
ATOM     22  C   UNL     1      -5.279  12.501  19.252  0.00  0.00    +0.000 C 
ENDBRANCH  20  22
ENDBRANCH  19  20
BRANCH  19  23
ATOM     23  C   UNL     1      -3.607  11.444  17.314  0.00  0.00    +0.000 C 
BRANCH  23  24
ATOM     24  C   UNL     1      -3.281  10.151  16.542  0.00  0.00    +0.000 C 
ATOM     25  C   UNL     1      -2.898  10.385  15.089  0.00  0.00    +0.000 C 
ENDBRANCH  23  24
ENDBRANCH  19  23
ENDBRANCH  18  19
ENDBRANCH  13  18
ENDBRANCH   1  15
BRANCH  12  26
ATOM     26  C   UNL     1       4.461   6.640  17.011  0.00  0.00    +0.000 C 
ATOM     27  C   UNL     1       5.950   6.806  16.836  0.00  0.00    +0.000 C 
ATOM     28  C   UNL     1       5.209   5.843  15.966  0.00  0.00    +0.000 C 
ENDBRANCH  12  26
BRANCH  10  29
ATOM     29  C   UNL     1       4.081   2.462  19.494  0.00  0.00    +0.000 C 
ATOM     30  O   UNL     1       4.919   2.027  20.269  0.00  0.00    +0.000 OA
BRANCH  29  31
ATOM     31  O   UNL     1       3.429   1.663  18.619  0.00  0.00    +0.000 OA
ATOM     32  H   UNL     1       2.944   0.910  19.040  0.00  0.00    +0.000 HD
ENDBRANCH  29  31
ENDBRANCH  10  29
TORSDOF 10
ENDMDL
MODEL 7
REMARK VINA RESULT:      -7.2      0.776      1.081
REMARK  Name = 
REMARK  12 active torsions:
REMARK  status: ('A' for Active; 'I' for Inactive)
REMARK    1  A    between atoms: C_1  and  C_2
REMARK    2  A    between atoms: C_2  and  C_3
REMARK    3  A    between atoms: C_3  and  N_4
REMARK    4  A    between atoms: N_4  and  C_5
REMARK    5  A    between atoms: N_4  and  C_8
REMARK    6  A    between atoms: C_5  and  C_6
REMARK    7  A    between atoms: C_6  and  C_7
REMARK    8  A    between atoms: C_8  and  C_9
REMARK    9  A    between atoms: N_11  and  C_12
REMARK   10  A    between atoms: C_21  and  C_22
REMARK   11  A    between atoms: C_22  and  O_24
REMARK   12  A    between atoms: N_26  and  C_27
REMARK                            x       y       z     vdW  Elec       q    Type
REMARK                         _______ _______ _______ _____ _____    ______ ____
ROOT
ATOM      1  C   UNL     1       1.322   8.396  20.524  0.00  0.00    +0.000 A 
ATOM      2  C   UNL     1       1.564   7.026  20.769  0.00  0.00    +0.000 A 
ATOM      3  C   UNL     1       2.296   6.250  19.854  0.00  0.00    +0.000 A 
ATOM      4  C   UNL     1       2.787   6.890  18.698  0.00  0.00    +0.000 A 
ATOM      5  C   UNL     1       2.517   8.232  18.430  0.00  0.00    +0.000 A 
ATOM      6  C   UNL     1       1.785   8.975  19.341  0.00  0.00    +0.000 A 
ATOM      7  F   UNL     1       1.580  10.262  19.042  0.00  0.00    +0.000 F 
ATOM      8  C   UNL     1       3.653   6.146  17.760  0.00  0.00    +0.000 A 
ATOM      9  O   UNL     1       4.065   6.661  16.723  0.00  0.00    +0.000 OA
ATOM     10  C   UNL     1       4.064   4.777  18.123  0.00  0.00    +0.000 A 
ATOM     11  C   UNL     1       3.503   4.247  19.221  0.00  0.00    +0.000 A 
ATOM     12  N   UNL     1       2.581   4.869  20.049  0.00  0.00    +0.000 N 
ENDROOT
BRANCH   1  15
ATOM     13  C   UNL     1      -0.665  10.539  22.588  0.00  0.00    +0.000 A 
ATOM     14  C   UNL     1      -0.440  10.005  21.340  0.00  0.00    +0.000 A 
ATOM     15  N   UNL     1       0.643   9.176  21.493  0.00  0.00    +0.000 N 
ATOM     16  N   UNL     1       1.054   9.215  22.786  0.00  0.00    +0.000 NA
ATOM     17  N   UNL     1       0.267  10.046  23.455  0.00  0.00    +0.000 NA
BRANCH  13  18
ATOM     18  C   UNL     1      -1.744  11.466  23.032  0.00  0.00    +0.000 C 
BRANCH  18  19
ATOM     19  N   UNL     1      -2.229  12.319  21.912  0.00  0.00    +0.000 NA
BRANCH  19  20
ATOM     20  C   UNL     1      -3.639  12.712  22.172  0.00  0.00    +0.000 C 
BRANCH  20  22
ATOM     21  C   UNL     1      -5.567  13.143  23.805  0.00  0.00    +0.000 C 
ATOM     22  C   UNL     1      -4.104  12.765  23.635  0.00  0.00    +0.000 C 
ENDBRANCH  20  22
ENDBRANCH  19  20
BRANCH  19  23
ATOM     23  C   UNL     1      -1.362  13.511  21.778  0.00  0.00    +0.000 C 
BRANCH  23  24
ATOM     24  C   UNL     1      -1.044  13.960  20.338  0.00  0.00    +0.000 C 
ATOM     25  C   UNL     1      -1.285  12.882  19.293  0.00  0.00    +0.000 C 
ENDBRANCH  23  24
ENDBRANCH  19  23
ENDBRANCH  18  19
ENDBRANCH  13  18
ENDBRANCH   1  15
BRANCH  12  26
ATOM     26  C   UNL     1       2.078   4.113  21.213  0.00  0.00    +0.000 C 
ATOM     27  C   UNL     1       1.219   2.881  21.070  0.00  0.00    +0.000 C 
ATOM     28  C   UNL     1       2.627   2.745  21.555  0.00  0.00    +0.000 C 
ENDBRANCH  12  26
BRANCH  10  29
ATOM     29  C   UNL     1       5.050   3.997  17.351  0.00  0.00    +0.000 C 
ATOM     30  O   UNL     1       4.743   3.089  16.594  0.00  0.00    +0.000 OA
BRANCH  29  31
ATOM     31  O   UNL     1       6.337   4.357  17.557  0.00  0.00    +0.000 OA
ATOM     32  H   UNL     1       6.754   4.831  16.796  0.00  0.00    +0.000 HD
ENDBRANCH  29  31
ENDBRANCH  10  29
TORSDOF 10
ENDMDL
MODEL 8
REMARK VINA RESULT:      -7.1      1.131      1.971
REMARK  Name = 
REMARK  12 active torsions:
REMARK  status: ('A' for Active; 'I' for Inactive)
REMARK    1  A    between atoms: C_1  and  C_2
REMARK    2  A    between atoms: C_2  and  C_3
REMARK    3  A    between atoms: C_3  and  N_4
REMARK    4  A    between atoms: N_4  and  C_5
REMARK    5  A    between atoms: N_4  and  C_8
REMARK    6  A    between atoms: C_5  and  C_6
REMARK    7  A    between atoms: C_6  and  C_7
REMARK    8  A    between atoms: C_8  and  C_9
REMARK    9  A    between atoms: N_11  and  C_12
REMARK   10  A    between atoms: C_21  and  C_22
REMARK   11  A    between atoms: C_22  and  O_24
REMARK   12  A    between atoms: N_26  and  C_27
REMARK                            x       y       z     vdW  Elec       q    Type
REMARK                         _______ _______ _______ _____ _____    ______ ____
ROOT
ATOM      1  C   UNL     1       1.515   8.834  19.632  0.00  0.00    +0.000 A 
ATOM      2  C   UNL     1       1.762   7.513  20.068  0.00  0.00    +0.000 A 
ATOM      3  C   UNL     1       2.586   6.652  19.323  0.00  0.00    +0.000 A 
ATOM      4  C   UNL     1       3.161   7.157  18.140  0.00  0.00    +0.000 A 
ATOM      5  C   UNL     1       2.888   8.446  17.682  0.00  0.00    +0.000 A 
ATOM      6  C   UNL     1       2.066   9.275  18.428  0.00  0.00    +0.000 A 
ATOM      7  F   UNL     1       1.862  10.507  17.951  0.00  0.00    +0.000 F 
ATOM      8  C   UNL     1       4.119   6.329  17.380  0.00  0.00    +0.000 A 
ATOM      9  O   UNL     1       4.609   6.722  16.323  0.00  0.00    +0.000 OA
ATOM     10  C   UNL     1       4.524   5.029  17.946  0.00  0.00    +0.000 A 
ATOM     11  C   UNL     1       3.883   4.623  19.052  0.00  0.00    +0.000 A 
ATOM     12  N   UNL     1       2.880   5.315  19.715  0.00  0.00    +0.000 N 
ENDROOT
BRANCH   1  15
ATOM     13  C   UNL     1      -0.722  11.111  21.247  0.00  0.00    +0.000 A 
ATOM     14  C   UNL     1      -0.415  10.381  20.123  0.00  0.00    +0.000 A 
ATOM     15  N   UNL     1       0.740   9.708  20.434  0.00  0.00    +0.000 N 
ATOM     16  N   UNL     1       1.114  10.027  21.700  0.00  0.00    +0.000 NA
ATOM     17  N   UNL     1       0.234  10.885  22.197  0.00  0.00    +0.000 NA
BRANCH  13  18
ATOM     18  C   UNL     1      -1.897  11.991  21.505  0.00  0.00    +0.000 C 
BRANCH  18  19
ATOM     19  N   UNL     1      -1.496  13.260  22.174  0.00  0.00    +0.000 NA
BRANCH  19  20
ATOM     20  C   UNL     1      -1.762  14.400  21.257  0.00  0.00    +0.000 C 
BRANCH  20  22
ATOM     21  C   UNL     1       0.568  14.520  20.199  0.00  0.00    +0.000 C 
ATOM     22  C   UNL     1      -0.934  14.484  19.967  0.00  0.00    +0.000 C 
ENDBRANCH  20  22
ENDBRANCH  19  20
BRANCH  19  23
ATOM     23  C   UNL     1      -2.239  13.414  23.444  0.00  0.00    +0.000 C 
BRANCH  23  24
ATOM     24  C   UNL     1      -3.276  12.319  23.760  0.00  0.00    +0.000 C 
ATOM     25  C   UNL     1      -4.657  12.862  24.094  0.00  0.00    +0.000 C 
ENDBRANCH  23  24
ENDBRANCH  19  23
ENDBRANCH  18  19
ENDBRANCH  13  18
ENDBRANCH   1  15
BRANCH  12  26
ATOM     26  C   UNL     1       2.294   4.696  20.921  0.00  0.00    +0.000 C 
ATOM     27  C   UNL     1       1.117   3.753  20.857  0.00  0.00    +0.000 C 
ATOM     28  C   UNL     1       2.470   3.221  21.207  0.00  0.00    +0.000 C 
ENDBRANCH  12  26
BRANCH  10  29
ATOM     29  C   UNL     1       5.589   4.189  17.364  0.00  0.00    +0.000 C 
ATOM     30  O   UNL     1       5.483   3.621  16.287  0.00  0.00    +0.000 OA
BRANCH  29  31
ATOM     31  O   UNL     1       6.700   4.081  18.126  0.00  0.00    +0.000 OA
ATOM     32  H   UNL     1       6.652   4.567  18.986  0.00  0.00    +0.000 HD
ENDBRANCH  29  31
ENDBRANCH  10  29
TORSDOF 10
ENDMDL
MODEL 9
REMARK VINA RESULT:      -7.1      1.241      1.918
REMARK  Name = 
REMARK  12 active torsions:
REMARK  status: ('A' for Active; 'I' for Inactive)
REMARK    1  A    between atoms: C_1  and  C_2
REMARK    2  A    between atoms: C_2  and  C_3
REMARK    3  A    between atoms: C_3  and  N_4
REMARK    4  A    between atoms: N_4  and  C_5
REMARK    5  A    between atoms: N_4  and  C_8
REMARK    6  A    between atoms: C_5  and  C_6
REMARK    7  A    between atoms: C_6  and  C_7
REMARK    8  A    between atoms: C_8  and  C_9
REMARK    9  A    between atoms: N_11  and  C_12
REMARK   10  A    between atoms: C_21  and  C_22
REMARK   11  A    between atoms: C_22  and  O_24
REMARK   12  A    between atoms: N_26  and  C_27
REMARK                            x       y       z     vdW  Elec       q    Type
REMARK                         _______ _______ _______ _____ _____    ______ ____
ROOT
ATOM      1  C   UNL     1       1.505   8.906  19.575  0.00  0.00    +0.000 A 
ATOM      2  C   UNL     1       1.747   7.596  20.045  0.00  0.00    +0.000 A 
ATOM      3  C   UNL     1       2.602   6.726  19.346  0.00  0.00    +0.000 A 
ATOM      4  C   UNL     1       3.214   7.213  18.173  0.00  0.00    +0.000 A 
ATOM      5  C   UNL     1       2.948   8.491  17.681  0.00  0.00    +0.000 A 
ATOM      6  C   UNL     1       2.094   9.327  18.381  0.00  0.00    +0.000 A 
ATOM      7  F   UNL     1       1.898  10.548  17.874  0.00  0.00    +0.000 F 
ATOM      8  C   UNL     1       4.204   6.377  17.462  0.00  0.00    +0.000 A 
ATOM      9  O   UNL     1       4.726   6.754  16.415  0.00  0.00    +0.000 OA
ATOM     10  C   UNL     1       4.598   5.092  18.068  0.00  0.00    +0.000 A 
ATOM     11  C   UNL     1       3.922   4.703  19.159  0.00  0.00    +0.000 A 
ATOM     12  N   UNL     1       2.892   5.400  19.774  0.00  0.00    +0.000 N 
ENDROOT
BRANCH   1  15
ATOM     13  C   UNL     1      -0.814  11.180  21.074  0.00  0.00    +0.000 A 
ATOM     14  C   UNL     1      -0.476  10.410  19.985  0.00  0.00    +0.000 A 
ATOM     15  N   UNL     1       0.697   9.789  20.332  0.00  0.00    +0.000 N 
ATOM     16  N   UNL     1       1.052  10.176  21.585  0.00  0.00    +0.000 NA
ATOM     17  N   UNL     1       0.141  11.026  22.039  0.00  0.00    +0.000 NA
BRANCH  13  18
ATOM     18  C   UNL     1      -2.018  12.032  21.285  0.00  0.00    +0.000 C 
BRANCH  18  19
ATOM     19  N   UNL     1      -1.673  13.308  21.972  0.00  0.00    +0.000 NA
BRANCH  19  20
ATOM     20  C   UNL     1      -2.261  14.444  21.214  0.00  0.00    +0.000 C 
BRANCH  20  22
ATOM     21  C   UNL     1      -4.584  15.488  21.497  0.00  0.00    +0.000 C 
ATOM     22  C   UNL     1      -3.756  14.374  20.874  0.00  0.00    +0.000 C 
ENDBRANCH  20  22
ENDBRANCH  19  20
BRANCH  19  23
ATOM     23  C   UNL     1      -2.176  13.280  23.364  0.00  0.00    +0.000 C 
BRANCH  23  24
ATOM     24  C   UNL     1      -3.156  12.141  23.708  0.00  0.00    +0.000 C 
ATOM     25  C   UNL     1      -4.314  12.576  24.593  0.00  0.00    +0.000 C 
ENDBRANCH  23  24
ENDBRANCH  19  23
ENDBRANCH  18  19
ENDBRANCH  13  18
ENDBRANCH   1  15
BRANCH  12  26
ATOM     26  C   UNL     1       2.270   4.800  20.971  0.00  0.00    +0.000 C 
ATOM     27  C   UNL     1       1.124   3.821  20.884  0.00  0.00    +0.000 C 
ATOM     28  C   UNL     1       2.473   3.340  21.310  0.00  0.00    +0.000 C 
ENDBRANCH  12  26
BRANCH  10  29
ATOM     29  C   UNL     1       5.688   4.250  17.539  0.00  0.00    +0.000 C 
ATOM     30  O   UNL     1       6.796   4.186  18.050  0.00  0.00    +0.000 OA
BRANCH  29  31
ATOM     31  O   UNL     1       5.371   3.556  16.423  0.00  0.00    +0.000 OA
ATOM     32  H   UNL     1       4.455   3.720  16.088  0.00  0.00    +0.000 HD
ENDBRANCH  29  31
ENDBRANCH  10  29
TORSDOF 10
ENDMDL
