MODEL 1
REMARK VINA RESULT:      -6.8      0.000      0.000
REMARK  Name = 
REMARK  7 active torsions:
REMARK  status: ('A' for Active; 'I' for Inactive)
REMARK    1  A    between atoms: C_1  and  O_2
REMARK    2  A    between atoms: O_2  and  C_3
REMARK    3  A    between atoms: C_14  and  O_15
REMARK    4  A    between atoms: O_15  and  C_16
REMARK    5  A    between atoms: C_21  and  N_22
REMARK    6  A    between atoms: N_22  and  C_23
REMARK    7  A    between atoms: N_22  and  C_24
REMARK                            x       y       z     vdW  Elec       q    Type
REMARK                         _______ _______ _______ _____ _____    ______ ____
ROOT
ATOM      1  C   UNL     1       2.279   4.358  20.034  0.00  0.00    +0.000 A 
ATOM      2  C   UNL     1       1.654   4.938  18.930  0.00  0.00    +0.000 A 
ATOM      3  C   UNL     1       2.369   5.151  17.751  0.00  0.00    +0.000 A 
ATOM      4  C   UNL     1       3.720   4.798  17.656  0.00  0.00    +0.000 A 
ATOM      5  C   UNL     1       4.362   4.237  18.774  0.00  0.00    +0.000 A 
ATOM      6  C   UNL     1       3.630   4.006  19.951  0.00  0.00    +0.000 A 
ATOM      7  C   UNL     1       5.835   3.886  18.698  0.00  0.00    +0.000 C 
ATOM      8  N   UNL     1       6.475   4.436  17.482  0.00  0.00    +0.000 N 
ATOM      9  C   UNL     1       6.805   5.801  17.673  0.00  0.00    +0.000 A 
ATOM     10  C   UNL     1       7.955   6.141  18.395  0.00  0.00    +0.000 A 
ATOM     11  C   UNL     1       8.342   7.479  18.507  0.00  0.00    +0.000 A 
ATOM     12  C   UNL     1       7.591   8.492  17.908  0.00  0.00    +0.000 A 
ATOM     13  C   UNL     1       6.424   8.162  17.217  0.00  0.00    +0.000 A 
ATOM     14  C   UNL     1       6.023   6.821  17.107  0.00  0.00    +0.000 A 
ATOM     15  C   UNL     1       4.781   6.463  16.321  0.00  0.00    +0.000 C 
ATOM     16  N   UNL     1       4.423   5.044  16.451  0.00  0.00    +0.000 N 
ATOM     17  C   UNL     1       5.604   4.204  16.338  0.00  0.00    +0.000 C 
ENDROOT
BRANCH  17  18
ATOM     18  N   UNL     1       6.209   4.378  15.009  0.00  0.00    +0.000 NA
ATOM     19  C   UNL     1       5.411   3.977  13.845  0.00  0.00    +0.000 C 
ATOM     20  C   UNL     1       7.574   4.857  14.793  0.00  0.00    +0.000 C 
ENDBRANCH  17  18
BRANCH   1  22
ATOM     21  C   UNL     1       1.611   2.713  21.611  0.00  0.00    +0.000 C 
ATOM     22  O   UNL     1       1.684   4.084  21.235  0.00  0.00    +0.000 OA
ENDBRANCH   1  22
BRANCH  12  23
ATOM     23  O   UNL     1       8.099   9.751  18.057  0.00  0.00    +0.000 OA
ATOM     24  C   UNL     1       9.128   9.916  19.022  0.00  0.00    +0.000 C 
ENDBRANCH  12  23
TORSDOF 3
ENDMDL
MODEL 2
REMARK VINA RESULT:      -6.2      7.629     10.596
REMARK  Name = 
REMARK  7 active torsions:
REMARK  status: ('A' for Active; 'I' for Inactive)
REMARK    1  A    between atoms: C_1  and  O_2
REMARK    2  A    between atoms: O_2  and  C_3
REMARK    3  A    between atoms: C_14  and  O_15
REMARK    4  A    between atoms: O_15  and  C_16
REMARK    5  A    between atoms: C_21  and  N_22
REMARK    6  A    between atoms: N_22  and  C_23
REMARK    7  A    between atoms: N_22  and  C_24
REMARK                            x       y       z     vdW  Elec       q    Type
REMARK                         _______ _______ _______ _____ _____    ______ ____
ROOT
ATOM      1  C   UNL     1       2.702  14.586  18.450  0.00  0.00    +0.000 A 
ATOM      2  C   UNL     1       1.963  15.137  19.496  0.00  0.00    +0.000 A 
ATOM      3  C   UNL     1       1.136  14.326  20.275  0.00  0.00    +0.000 A 
ATOM      4  C   UNL     1       1.028  12.954  20.019  0.00  0.00    +0.000 A 
ATOM      5  C   UNL     1       1.751  12.398  18.949  0.00  0.00    +0.000 A 
ATOM      6  C   UNL     1       2.596  13.217  18.182  0.00  0.00    +0.000 A 
ATOM      7  C   UNL     1       1.613  10.920  18.635  0.00  0.00    +0.000 C 
ATOM      8  N   UNL     1       0.497  10.297  19.382  0.00  0.00    +0.000 N 
ATOM      9  C   UNL     1      -0.735  10.555  18.732  0.00  0.00    +0.000 A 
ATOM     10  C   UNL     1      -1.101   9.798  17.613  0.00  0.00    +0.000 A 
ATOM     11  C   UNL     1      -2.354   9.978  17.024  0.00  0.00    +0.000 A 
ATOM     12  C   UNL     1      -3.257  10.913  17.536  0.00  0.00    +0.000 A 
ATOM     13  C   UNL     1      -2.884  11.695  18.630  0.00  0.00    +0.000 A 
ATOM     14  C   UNL     1      -1.623  11.527  19.222  0.00  0.00    +0.000 A 
ATOM     15  C   UNL     1      -1.239  12.347  20.434  0.00  0.00    +0.000 C 
ATOM     16  N   UNL     1       0.168  12.160  20.817  0.00  0.00    +0.000 N 
ATOM     17  C   UNL     1       0.533  10.755  20.763  0.00  0.00    +0.000 C 
ENDROOT
BRANCH  17  18
ATOM     18  N   UNL     1      -0.282   9.996  21.724  0.00  0.00    +0.000 NA
ATOM     19  C   UNL     1      -0.777  10.713  22.905  0.00  0.00    +0.000 C 
ATOM     20  C   UNL     1      -0.562   8.566  21.605  0.00  0.00    +0.000 C 
ENDBRANCH  17  18
BRANCH   1  22
ATOM     21  C   UNL     1       4.361  16.271  18.239  0.00  0.00    +0.000 C 
ATOM     22  O   UNL     1       3.554  15.270  17.628  0.00  0.00    +0.000 OA
ENDBRANCH   1  22
BRANCH  12  23
ATOM     23  O   UNL     1      -4.462  10.962  16.895  0.00  0.00    +0.000 OA
ATOM     24  C   UNL     1      -5.467  11.775  17.482  0.00  0.00    +0.000 C 
ENDBRANCH  12  23
TORSDOF 3
ENDMDL
MODEL 3
REMARK VINA RESULT:      -6.0      7.387      8.912
REMARK  Name = 
REMARK  7 active torsions:
REMARK  status: ('A' for Active; 'I' for Inactive)
REMARK    1  A    between atoms: C_1  and  O_2
REMARK    2  A    between atoms: O_2  and  C_3
REMARK    3  A    between atoms: C_14  and  O_15
REMARK    4  A    between atoms: O_15  and  C_16
REMARK    5  A    between atoms: C_21  and  N_22
REMARK    6  A    between atoms: N_22  and  C_23
REMARK    7  A    between atoms: N_22  and  C_24
REMARK                            x       y       z     vdW  Elec       q    Type
REMARK                         _______ _______ _______ _____ _____    ______ ____
ROOT
ATOM      1  C   UNL     1      -3.656  11.326  16.986  0.00  0.00    +0.000 A 
ATOM      2  C   UNL     1      -2.906  10.345  16.340  0.00  0.00    +0.000 A 
ATOM      3  C   UNL     1      -1.777   9.805  16.958  0.00  0.00    +0.000 A 
ATOM      4  C   UNL     1      -1.374  10.239  18.225  0.00  0.00    +0.000 A 
ATOM      5  C   UNL     1      -2.113  11.246  18.871  0.00  0.00    +0.000 A 
ATOM      6  C   UNL     1      -3.259  11.771  18.252  0.00  0.00    +0.000 A 
ATOM      7  C   UNL     1      -1.666  11.755  20.228  0.00  0.00    +0.000 C 
ATOM      8  N   UNL     1      -0.314  11.267  20.585  0.00  0.00    +0.000 N 
ATOM      9  C   UNL     1       0.678  12.060  19.956  0.00  0.00    +0.000 A 
ATOM     10  C   UNL     1       1.017  13.305  20.497  0.00  0.00    +0.000 A 
ATOM     11  C   UNL     1       2.059  14.050  19.942  0.00  0.00    +0.000 A 
ATOM     12  C   UNL     1       2.774  13.571  18.843  0.00  0.00    +0.000 A 
ATOM     13  C   UNL     1       2.417  12.347  18.276  0.00  0.00    +0.000 A 
ATOM     14  C   UNL     1       1.365  11.595  18.822  0.00  0.00    +0.000 A 
ATOM     15  C   UNL     1       1.009  10.249  18.232  0.00  0.00    +0.000 C 
ATOM     16  N   UNL     1      -0.214   9.683  18.819  0.00  0.00    +0.000 N 
ATOM     17  C   UNL     1      -0.217   9.851  20.262  0.00  0.00    +0.000 C 
ENDROOT
BRANCH  17  18
ATOM     18  N   UNL     1       0.920   9.123  20.846  0.00  0.00    +0.000 NA
ATOM     19  C   UNL     1       1.351   9.512  22.194  0.00  0.00    +0.000 C 
ATOM     20  C   UNL     1       1.680   8.096  20.136  0.00  0.00    +0.000 C 
ENDBRANCH  17  18
BRANCH   1  22
ATOM     21  C   UNL     1      -5.741  12.364  17.453  0.00  0.00    +0.000 C 
ATOM     22  O   UNL     1      -4.786  11.920  16.495  0.00  0.00    +0.000 OA
ENDBRANCH   1  22
BRANCH  12  23
ATOM     23  O   UNL     1       3.794  14.376  18.422  0.00  0.00    +0.000 OA
ATOM     24  C   UNL     1       3.430  15.601  17.803  0.00  0.00    +0.000 C 
ENDBRANCH  12  23
TORSDOF 3
ENDMDL
MODEL 4
REMARK VINA RESULT:      -6.0      2.247      4.399
REMARK  Name = 
REMARK  7 active torsions:
REMARK  status: ('A' for Active; 'I' for Inactive)
REMARK    1  A    between atoms: C_1  and  O_2
REMARK    2  A    between atoms: O_2  and  C_3
REMARK    3  A    between atoms: C_14  and  O_15
REMARK    4  A    between atoms: O_15  and  C_16
REMARK    5  A    between atoms: C_21  and  N_22
REMARK    6  A    between atoms: N_22  and  C_23
REMARK    7  A    between atoms: N_22  and  C_24
REMARK                            x       y       z     vdW  Elec       q    Type
REMARK                         _______ _______ _______ _____ _____    ______ ____
ROOT
ATOM      1  C   UNL     1       2.040   3.480  19.585  0.00  0.00    +0.000 A 
ATOM      2  C   UNL     1       3.149   2.803  20.091  0.00  0.00    +0.000 A 
ATOM      3  C   UNL     1       4.436   3.286  19.850  0.00  0.00    +0.000 A 
ATOM      4  C   UNL     1       4.638   4.447  19.096  0.00  0.00    +0.000 A 
ATOM      5  C   UNL     1       3.524   5.120  18.561  0.00  0.00    +0.000 A 
ATOM      6  C   UNL     1       2.231   4.638  18.824  0.00  0.00    +0.000 A 
ATOM      7  C   UNL     1       3.730   6.357  17.709  0.00  0.00    +0.000 C 
ATOM      8  N   UNL     1       5.152   6.547  17.341  0.00  0.00    +0.000 N 
ATOM      9  C   UNL     1       5.490   5.724  16.238  0.00  0.00    +0.000 A 
ATOM     10  C   UNL     1       5.134   6.119  14.943  0.00  0.00    +0.000 A 
ATOM     11  C   UNL     1       5.546   5.366  13.842  0.00  0.00    +0.000 A 
ATOM     12  C   UNL     1       6.312   4.211  14.013  0.00  0.00    +0.000 A 
ATOM     13  C   UNL     1       6.640   3.793  15.303  0.00  0.00    +0.000 A 
ATOM     14  C   UNL     1       6.222   4.539  16.416  0.00  0.00    +0.000 A 
ATOM     15  C   UNL     1       6.615   4.106  17.811  0.00  0.00    +0.000 C 
ATOM     16  N   UNL     1       5.957   4.903  18.854  0.00  0.00    +0.000 N 
ATOM     17  C   UNL     1       5.982   6.316  18.514  0.00  0.00    +0.000 C 
ENDROOT
BRANCH  17  18
ATOM     18  N   UNL     1       7.376   6.779  18.430  0.00  0.00    +0.000 NA
ATOM     19  C   UNL     1       8.356   6.139  19.316  0.00  0.00    +0.000 C 
ATOM     20  C   UNL     1       7.818   7.877  17.572  0.00  0.00    +0.000 C 
ENDBRANCH  17  18
BRANCH   1  22
ATOM     21  C   UNL     1       0.256   2.041  18.963  0.00  0.00    +0.000 C 
ATOM     22  O   UNL     1       0.733   3.116  19.764  0.00  0.00    +0.000 OA
ENDBRANCH   1  22
BRANCH  12  23
ATOM     23  O   UNL     1       6.684   3.589  12.855  0.00  0.00    +0.000 OA
ATOM     24  C   UNL     1       5.640   3.072  12.042  0.00  0.00    +0.000 C 
ENDBRANCH  12  23
TORSDOF 3
ENDMDL
MODEL 5
REMARK VINA RESULT:      -5.9      8.527     11.237
REMARK  Name = 
REMARK  7 active torsions:
REMARK  status: ('A' for Active; 'I' for Inactive)
REMARK    1  A    between atoms: C_1  and  O_2
REMARK    2  A    between atoms: O_2  and  C_3
REMARK    3  A    between atoms: C_14  and  O_15
REMARK    4  A    between atoms: O_15  and  C_16
REMARK    5  A    between atoms: C_21  and  N_22
REMARK    6  A    between atoms: N_22  and  C_23
REMARK    7  A    between atoms: N_22  and  C_24
REMARK                            x       y       z     vdW  Elec       q    Type
REMARK                         _______ _______ _______ _____ _____    ______ ____
ROOT
ATOM      1  C   UNL     1       1.413  16.200  18.712  0.00  0.00    +0.000 A 
ATOM      2  C   UNL     1       0.202  16.600  19.277  0.00  0.00    +0.000 A 
ATOM      3  C   UNL     1      -0.545  15.703  20.041  0.00  0.00    +0.000 A 
ATOM      4  C   UNL     1      -0.102  14.391  20.248  0.00  0.00    +0.000 A 
ATOM      5  C   UNL     1       1.105  13.975  19.659  0.00  0.00    +0.000 A 
ATOM      6  C   UNL     1       1.862  14.889  18.908  0.00  0.00    +0.000 A 
ATOM      7  C   UNL     1       1.578  12.546  19.842  0.00  0.00    +0.000 C 
ATOM      8  N   UNL     1       0.530  11.687  20.438  0.00  0.00    +0.000 N 
ATOM      9  C   UNL     1      -0.384  11.262  19.442  0.00  0.00    +0.000 A 
ATOM     10  C   UNL     1      -0.042  10.203  18.592  0.00  0.00    +0.000 A 
ATOM     11  C   UNL     1      -0.971   9.714  17.672  0.00  0.00    +0.000 A 
ATOM     12  C   UNL     1      -2.248  10.271  17.582  0.00  0.00    +0.000 A 
ATOM     13  C   UNL     1      -2.584  11.349  18.402  0.00  0.00    +0.000 A 
ATOM     14  C   UNL     1      -1.652  11.854  19.322  0.00  0.00    +0.000 A 
ATOM     15  C   UNL     1      -2.033  12.995  20.239  0.00  0.00    +0.000 C 
ATOM     16  N   UNL     1      -0.892  13.499  21.015  0.00  0.00    +0.000 N 
ATOM     17  C   UNL     1      -0.101  12.399  21.540  0.00  0.00    +0.000 C 
ENDROOT
BRANCH  17  18
ATOM     18  N   UNL     1      -0.924  11.592  22.454  0.00  0.00    +0.000 NA
ATOM     19  C   UNL     1      -2.008  12.275  23.169  0.00  0.00    +0.000 C 
ATOM     20  C   UNL     1      -0.676  10.179  22.739  0.00  0.00    +0.000 C 
ENDBRANCH  17  18
BRANCH   1  22
ATOM     21  C   UNL     1       3.425  16.372  17.462  0.00  0.00    +0.000 C 
ATOM     22  O   UNL     1       2.240  16.986  17.959  0.00  0.00    +0.000 OA
ENDBRANCH   1  22
BRANCH  12  23
ATOM     23  O   UNL     1      -3.075   9.675  16.672  0.00  0.00    +0.000 OA
ATOM     24  C   UNL     1      -2.959  10.105  15.324  0.00  0.00    +0.000 C 
ENDBRANCH  12  23
TORSDOF 3
ENDMDL
MODEL 6
REMARK VINA RESULT:      -5.8      8.952     11.579
REMARK  Name = 
REMARK  7 active torsions:
REMARK  status: ('A' for Active; 'I' for Inactive)
REMARK    1  A    between atoms: C_1  and  O_2
REMARK    2  A    between atoms: O_2  and  C_3
REMARK    3  A    between atoms: C_14  and  O_15
REMARK    4  A    between atoms: O_15  and  C_16
REMARK    5  A    between atoms: C_21  and  N_22
REMARK    6  A    between atoms: N_22  and  C_23
REMARK    7  A    between atoms: N_22  and  C_24
REMARK                            x       y       z     vdW  Elec       q    Type
REMARK                         _______ _______ _______ _____ _____    ______ ____
ROOT
ATOM      1  C   UNL     1       0.937  16.517  18.923  0.00  0.00    +0.000 A 
ATOM      2  C   UNL     1      -0.290  16.839  19.501  0.00  0.00    +0.000 A 
ATOM      3  C   UNL     1      -0.991  15.883  20.238  0.00  0.00    +0.000 A 
ATOM      4  C   UNL     1      -0.484  14.590  20.404  0.00  0.00    +0.000 A 
ATOM      5  C   UNL     1       0.742  14.252  19.802  0.00  0.00    +0.000 A 
ATOM      6  C   UNL     1       1.450  15.225  19.079  0.00  0.00    +0.000 A 
ATOM      7  C   UNL     1       1.285  12.843  19.940  0.00  0.00    +0.000 C 
ATOM      8  N   UNL     1       0.282  11.915  20.510  0.00  0.00    +0.000 N 
ATOM      9  C   UNL     1      -0.613  11.477  19.502  0.00  0.00    +0.000 A 
ATOM     10  C   UNL     1      -0.221  10.463  18.620  0.00  0.00    +0.000 A 
ATOM     11  C   UNL     1      -1.127   9.957  17.687  0.00  0.00    +0.000 A 
ATOM     12  C   UNL     1      -2.430  10.453  17.615  0.00  0.00    +0.000 A 
ATOM     13  C   UNL     1      -2.816  11.487  18.467  0.00  0.00    +0.000 A 
ATOM     14  C   UNL     1      -1.909  12.009  19.402  0.00  0.00    +0.000 A 
ATOM     15  C   UNL     1      -2.344  13.101  20.354  0.00  0.00    +0.000 C 
ATOM     16  N   UNL     1      -1.227  13.637  21.144  0.00  0.00    +0.000 N 
ATOM     17  C   UNL     1      -0.381  12.561  21.634  0.00  0.00    +0.000 C 
ENDROOT
BRANCH  17  18
ATOM     18  N   UNL     1      -1.161  11.687  22.523  0.00  0.00    +0.000 NA
ATOM     19  C   UNL     1      -0.672  10.318  22.725  0.00  0.00    +0.000 C 
ATOM     20  C   UNL     1      -2.421  12.081  23.153  0.00  0.00    +0.000 C 
ENDBRANCH  17  18
BRANCH   1  22
ATOM     21  C   UNL     1       1.091  18.055  17.120  0.00  0.00    +0.000 C 
ATOM     22  O   UNL     1       1.723  17.367  18.194  0.00  0.00    +0.000 OA
ENDBRANCH   1  22
BRANCH  12  23
ATOM     23  O   UNL     1      -3.228   9.844  16.687  0.00  0.00    +0.000 OA
ATOM     24  C   UNL     1      -2.918  10.082  15.322  0.00  0.00    +0.000 C 
ENDBRANCH  12  23
TORSDOF 3
ENDMDL
MODEL 7
REMARK VINA RESULT:      -5.7      2.776      5.565
REMARK  Name = 
REMARK  7 active torsions:
REMARK  status: ('A' for Active; 'I' for Inactive)
REMARK    1  A    between atoms: C_1  and  O_2
REMARK    2  A    between atoms: O_2  and  C_3
REMARK    3  A    between atoms: C_14  and  O_15
REMARK    4  A    between atoms: O_15  and  C_16
REMARK    5  A    between atoms: C_21  and  N_22
REMARK    6  A    between atoms: N_22  and  C_23
REMARK    7  A    between atoms: N_22  and  C_24
REMARK                            x       y       z     vdW  Elec       q    Type
REMARK                         _______ _______ _______ _____ _____    ______ ____
ROOT
ATOM      1  C   UNL     1       6.127   3.584  12.977  0.00  0.00    +0.000 A 
ATOM      2  C   UNL     1       6.870   4.759  12.863  0.00  0.00    +0.000 A 
ATOM      3  C   UNL     1       7.210   5.487  14.005  0.00  0.00    +0.000 A 
ATOM      4  C   UNL     1       6.807   5.061  15.275  0.00  0.00    +0.000 A 
ATOM      5  C   UNL     1       6.036   3.891  15.393  0.00  0.00    +0.000 A 
ATOM      6  C   UNL     1       5.715   3.153  14.242  0.00  0.00    +0.000 A 
ATOM      7  C   UNL     1       5.560   3.438  16.760  0.00  0.00    +0.000 C 
ATOM      8  N   UNL     1       5.778   4.474  17.795  0.00  0.00    +0.000 N 
ATOM      9  C   UNL     1       4.745   5.442  17.750  0.00  0.00    +0.000 A 
ATOM     10  C   UNL     1       3.505   5.162  18.337  0.00  0.00    +0.000 A 
ATOM     11  C   UNL     1       2.513   6.143  18.383  0.00  0.00    +0.000 A 
ATOM     12  C   UNL     1       2.737   7.412  17.845  0.00  0.00    +0.000 A 
ATOM     13  C   UNL     1       3.958   7.687  17.227  0.00  0.00    +0.000 A 
ATOM     14  C   UNL     1       4.958   6.703  17.167  0.00  0.00    +0.000 A 
ATOM     15  C   UNL     1       6.295   7.018  16.535  0.00  0.00    +0.000 C 
ATOM     16  N   UNL     1       7.153   5.831  16.413  0.00  0.00    +0.000 N 
ATOM     17  C   UNL     1       7.111   5.039  17.630  0.00  0.00    +0.000 C 
ENDROOT
BRANCH  17  18
ATOM     18  N   UNL     1       7.627   5.833  18.755  0.00  0.00    +0.000 NA
ATOM     19  C   UNL     1       7.458   5.284  20.105  0.00  0.00    +0.000 C 
ATOM     20  C   UNL     1       8.229   7.158  18.607  0.00  0.00    +0.000 C 
ENDBRANCH  17  18
BRANCH   1  22
ATOM     21  C   UNL     1       4.461   3.025  11.379  0.00  0.00    +0.000 C 
ATOM     22  O   UNL     1       5.746   2.778  11.940  0.00  0.00    +0.000 OA
ENDBRANCH   1  22
BRANCH  12  23
ATOM     23  O   UNL     1       1.702   8.291  17.991  0.00  0.00    +0.000 OA
ATOM     24  C   UNL     1       2.018   9.673  17.899  0.00  0.00    +0.000 C 
ENDBRANCH  12  23
TORSDOF 3
ENDMDL
MODEL 8
REMARK VINA RESULT:      -5.6      8.446     10.345
REMARK  Name = 
REMARK  7 active torsions:
REMARK  status: ('A' for Active; 'I' for Inactive)
REMARK    1  A    between atoms: C_1  and  O_2
REMARK    2  A    between atoms: O_2  and  C_3
REMARK    3  A    between atoms: C_14  and  O_15
REMARK    4  A    between atoms: O_15  and  C_16
REMARK    5  A    between atoms: C_21  and  N_22
REMARK    6  A    between atoms: N_22  and  C_23
REMARK    7  A    between atoms: N_22  and  C_24
REMARK                            x       y       z     vdW  Elec       q    Type
REMARK                         _______ _______ _______ _____ _____    ______ ____
ROOT
ATOM      1  C   UNL     1       8.523  11.714  22.634  0.00  0.00    +0.000 A 
ATOM      2  C   UNL     1       8.943  11.049  21.482  0.00  0.00    +0.000 A 
ATOM      3  C   UNL     1       9.243  11.771  20.326  0.00  0.00    +0.000 A 
ATOM      4  C   UNL     1       9.122  13.164  20.297  0.00  0.00    +0.000 A 
ATOM      5  C   UNL     1       8.673  13.837  21.448  0.00  0.00    +0.000 A 
ATOM      6  C   UNL     1       8.393  13.106  22.613  0.00  0.00    +0.000 A 
ATOM      7  C   UNL     1       8.499  15.344  21.418  0.00  0.00    +0.000 C 
ATOM      8  N   UNL     1       8.596  15.887  20.044  0.00  0.00    +0.000 N 
ATOM      9  C   UNL     1       7.364  15.726  19.363  0.00  0.00    +0.000 A 
ATOM     10  C   UNL     1       6.314  16.619  19.609  0.00  0.00    +0.000 A 
ATOM     11  C   UNL     1       5.131  16.528  18.873  0.00  0.00    +0.000 A 
ATOM     12  C   UNL     1       4.975  15.551  17.888  0.00  0.00    +0.000 A 
ATOM     13  C   UNL     1       6.004  14.636  17.663  0.00  0.00    +0.000 A 
ATOM     14  C   UNL     1       7.193  14.714  18.405  0.00  0.00    +0.000 A 
ATOM     15  C   UNL     1       8.324  13.748  18.128  0.00  0.00    +0.000 C 
ATOM     16  N   UNL     1       9.417  13.867  19.103  0.00  0.00    +0.000 N 
ATOM     17  C   UNL     1       9.723  15.264  19.364  0.00  0.00    +0.000 C 
ENDROOT
BRANCH  17  18
ATOM     18  N   UNL     1      10.175  15.911  18.123  0.00  0.00    +0.000 NA
ATOM     19  C   UNL     1      11.133  15.176  17.288  0.00  0.00    +0.000 C 
ATOM     20  C   UNL     1       9.783  17.260  17.718  0.00  0.00    +0.000 C 
ENDBRANCH  17  18
BRANCH   1  22
ATOM     21  C   UNL     1       7.006  11.542  24.453  0.00  0.00    +0.000 C 
ATOM     22  O   UNL     1       8.215  11.123  23.828  0.00  0.00    +0.000 OA
ENDBRANCH   1  22
BRANCH  12  23
ATOM     23  O   UNL     1       3.787  15.596  17.214  0.00  0.00    +0.000 OA
ATOM     24  C   UNL     1       2.911  16.667  17.533  0.00  0.00    +0.000 C 
ENDBRANCH  12  23
TORSDOF 3
ENDMDL
MODEL 9
REMARK VINA RESULT:      -5.5     10.527     12.718
REMARK  Name = 
REMARK  7 active torsions:
REMARK  status: ('A' for Active; 'I' for Inactive)
REMARK    1  A    between atoms: C_1  and  O_2
REMARK    2  A    between atoms: O_2  and  C_3
REMARK    3  A    between atoms: C_14  and  O_15
REMARK    4  A    between atoms: O_15  and  C_16
REMARK    5  A    between atoms: C_21  and  N_22
REMARK    6  A    between atoms: N_22  and  C_23
REMARK    7  A    between atoms: N_22  and  C_24
REMARK                            x       y       z     vdW  Elec       q    Type
REMARK                         _______ _______ _______ _____ _____    ______ ____
ROOT
ATOM      1  C   UNL     1      -6.702  12.408  20.210  0.00  0.00    +0.000 A 
ATOM      2  C   UNL     1      -7.019  12.179  21.548  0.00  0.00    +0.000 A 
ATOM      3  C   UNL     1      -6.131  12.565  22.554  0.00  0.00    +0.000 A 
ATOM      4  C   UNL     1      -4.913  13.177  22.242  0.00  0.00    +0.000 A 
ATOM      5  C   UNL     1      -4.578  13.387  20.892  0.00  0.00    +0.000 A 
ATOM      6  C   UNL     1      -5.484  13.014  19.887  0.00  0.00    +0.000 A 
ATOM      7  C   UNL     1      -3.243  14.014  20.537  0.00  0.00    +0.000 C 
ATOM      8  N   UNL     1      -2.339  14.094  21.707  0.00  0.00    +0.000 N 
ATOM      9  C   UNL     1      -1.701  12.847  21.923  0.00  0.00    +0.000 A 
ATOM     10  C   UNL     1      -0.602  12.485  21.137  0.00  0.00    +0.000 A 
ATOM     11  C   UNL     1       0.093  11.303  21.405  0.00  0.00    +0.000 A 
ATOM     12  C   UNL     1      -0.297  10.467  22.453  0.00  0.00    +0.000 A 
ATOM     13  C   UNL     1      -1.413  10.805  23.219  0.00  0.00    +0.000 A 
ATOM     14  C   UNL     1      -2.124  11.986  22.950  0.00  0.00    +0.000 A 
ATOM     15  C   UNL     1      -3.308  12.371  23.808  0.00  0.00    +0.000 C 
ATOM     16  N   UNL     1      -4.026  13.541  23.285  0.00  0.00    +0.000 N 
ATOM     17  C   UNL     1      -3.091  14.570  22.859  0.00  0.00    +0.000 C 
ENDROOT
BRANCH  17  18
ATOM     18  N   UNL     1      -2.301  15.026  24.012  0.00  0.00    +0.000 NA
ATOM     19  C   UNL     1      -3.012  15.236  25.279  0.00  0.00    +0.000 C 
ATOM     20  C   UNL     1      -0.876  15.348  23.947  0.00  0.00    +0.000 C 
ENDBRANCH  17  18
BRANCH   1  22
ATOM     21  C   UNL     1      -6.822  11.839  17.907  0.00  0.00    +0.000 C 
ATOM     22  O   UNL     1      -7.492  12.091  19.138  0.00  0.00    +0.000 OA
ENDBRANCH   1  22
BRANCH  12  23
ATOM     23  O   UNL     1       0.490   9.366  22.635  0.00  0.00    +0.000 OA
ATOM     24  C   UNL     1       1.022   8.758  21.467  0.00  0.00    +0.000 C 
ENDBRANCH  12  23
TORSDOF 3
ENDMDL
