MODEL 1
REMARK VINA RESULT:      -6.7      0.000      0.000
REMARK  Name = 
REMARK  9 active torsions:
REMARK  status: ('A' for Active; 'I' for Inactive)
REMARK    1  A    between atoms: C_1  and  C_2
REMARK    2  A    between atoms: N_5  and  C_6
REMARK    3  A    between atoms: C_6  and  C_7
REMARK    4  A    between atoms: C_7  and  O_8
REMARK    5  A    between atoms: C_7  and  C_9
REMARK    6  A    between atoms: C_9  and  O_10
REMARK    7  A    between atoms: O_10  and  C_11
REMARK    8  A    between atoms: C_11  and  C_12
REMARK    9  A    between atoms: C_20  and  C_21
REMARK                            x       y       z     vdW  Elec       q    Type
REMARK                         _______ _______ _______ _____ _____    ______ ____
ROOT
ATOM      1  C   UNL     1       2.063   3.424  20.808  0.00  0.00    +0.000 C 
ENDROOT
BRANCH   1   2
ATOM      2  O   UNL     1       1.259   2.515  21.581  0.00  0.00    +0.000 OA
ATOM      3  H   UNL     1       0.477   2.269  21.059  0.00  0.00    +0.000 HD
ENDBRANCH   1   2
BRANCH   1   4
ATOM      4  C   UNL     1       2.560   2.673  19.563  0.00  0.00    +0.000 C 
BRANCH   4   9
ATOM      5  C   UNL     1       7.340   4.809  17.374  0.00  0.00    +0.000 C 
ATOM      6  C   UNL     1       6.000   4.319  17.865  0.00  0.00    +0.000 A 
ATOM      7  N   UNL     1       5.941   4.084  19.213  0.00  0.00    +0.000 NA
ATOM      8  C   UNL     1       4.824   3.625  19.684  0.00  0.00    +0.000 A 
ATOM      9  N   UNL     1       3.729   3.299  18.940  0.00  0.00    +0.000 N 
ATOM     10  C   UNL     1       3.711   3.556  17.588  0.00  0.00    +0.000 A 
ATOM     11  O   UNL     1       2.755   3.295  16.864  0.00  0.00    +0.000 OA
ATOM     12  C   UNL     1       4.951   4.151  17.032  0.00  0.00    +0.000 A 
ATOM     13  C   UNL     1       4.964   4.551  15.585  0.00  0.00    +0.000 C 
ENDBRANCH   4   9
ENDBRANCH   1   4
BRANCH   1  14
ATOM     14  C   UNL     1       1.253   4.676  20.416  0.00  0.00    +0.000 C 
BRANCH  14  15
ATOM     15  O   UNL     1       2.014   5.840  20.751  0.00  0.00    +0.000 OA
BRANCH  15  16
ATOM     16  C   UNL     1       2.620   6.446  19.607  0.00  0.00    +0.000 C 
BRANCH  16  17
ATOM     17  C   UNL     1       2.021   7.806  19.337  0.00  0.00    +0.000 A 
ATOM     18  C   UNL     1       1.336   8.484  20.357  0.00  0.00    +0.000 A 
ATOM     19  C   UNL     1       0.817   9.763  20.143  0.00  0.00    +0.000 A 
ATOM     20  C   UNL     1       0.984  10.385  18.907  0.00  0.00    +0.000 A 
ATOM     21  C   UNL     1       1.668   9.728  17.886  0.00  0.00    +0.000 A 
ATOM     22  C   UNL     1       2.189   8.450  18.102  0.00  0.00    +0.000 A 
ENDBRANCH  16  17
ENDBRANCH  15  16
ENDBRANCH  14  15
ENDBRANCH   1  14
TORSDOF 7
ENDMDL
MODEL 2
REMARK VINA RESULT:      -6.7      1.952      2.953
REMARK  Name = 
REMARK  9 active torsions:
REMARK  status: ('A' for Active; 'I' for Inactive)
REMARK    1  A    between atoms: C_1  and  C_2
REMARK    2  A    between atoms: N_5  and  C_6
REMARK    3  A    between atoms: C_6  and  C_7
REMARK    4  A    between atoms: C_7  and  O_8
REMARK    5  A    between atoms: C_7  and  C_9
REMARK    6  A    between atoms: C_9  and  O_10
REMARK    7  A    between atoms: O_10  and  C_11
REMARK    8  A    between atoms: C_11  and  C_12
REMARK    9  A    between atoms: C_20  and  C_21
REMARK                            x       y       z     vdW  Elec       q    Type
REMARK                         _______ _______ _______ _____ _____    ______ ____
ROOT
ATOM      1  C   UNL     1       4.367   2.470  20.701  0.00  0.00    +0.000 C 
ENDROOT
BRANCH   1   2
ATOM      2  O   UNL     1       5.391   1.571  21.162  0.00  0.00    +0.000 OA
ATOM      3  H   UNL     1       5.662   1.001  20.423  0.00  0.00    +0.000 HD
ENDBRANCH   1   2
BRANCH   1   4
ATOM      4  C   UNL     1       4.432   2.514  19.166  0.00  0.00    +0.000 C 
BRANCH   4   9
ATOM      5  C   UNL     1       7.077   7.219  17.415  0.00  0.00    +0.000 C 
ATOM      6  C   UNL     1       6.280   5.992  17.783  0.00  0.00    +0.000 A 
ATOM      7  N   UNL     1       6.264   5.705  19.122  0.00  0.00    +0.000 NA
ATOM      8  C   UNL     1       5.625   4.640  19.490  0.00  0.00    +0.000 A 
ATOM      9  N   UNL     1       5.023   3.752  18.650  0.00  0.00    +0.000 N 
ATOM     10  C   UNL     1       4.963   4.010  17.299  0.00  0.00    +0.000 A 
ATOM     11  O   UNL     1       4.429   3.257  16.491  0.00  0.00    +0.000 OA
ATOM     12  C   UNL     1       5.624   5.261  16.856  0.00  0.00    +0.000 A 
ATOM     13  C   UNL     1       5.509   5.657  15.412  0.00  0.00    +0.000 C 
ENDBRANCH   4   9
ENDBRANCH   1   4
BRANCH   1  14
ATOM     14  C   UNL     1       2.976   2.012  21.186  0.00  0.00    +0.000 C 
BRANCH  14  15
ATOM     15  O   UNL     1       2.344   3.100  21.864  0.00  0.00    +0.000 OA
BRANCH  15  16
ATOM     16  C   UNL     1       1.215   3.610  21.149  0.00  0.00    +0.000 C 
BRANCH  16  17
ATOM     17  C   UNL     1       1.647   4.606  20.099  0.00  0.00    +0.000 A 
ATOM     18  C   UNL     1       1.449   4.318  18.740  0.00  0.00    +0.000 A 
ATOM     19  C   UNL     1       1.797   5.245  17.754  0.00  0.00    +0.000 A 
ATOM     20  C   UNL     1       2.341   6.477  18.116  0.00  0.00    +0.000 A 
ATOM     21  C   UNL     1       2.538   6.779  19.462  0.00  0.00    +0.000 A 
ATOM     22  C   UNL     1       2.187   5.853  20.447  0.00  0.00    +0.000 A 
ENDBRANCH  16  17
ENDBRANCH  15  16
ENDBRANCH  14  15
ENDBRANCH   1  14
TORSDOF 7
ENDMDL
MODEL 3
REMARK VINA RESULT:      -6.7      2.943      6.674
REMARK  Name = 
REMARK  9 active torsions:
REMARK  status: ('A' for Active; 'I' for Inactive)
REMARK    1  A    between atoms: C_1  and  C_2
REMARK    2  A    between atoms: N_5  and  C_6
REMARK    3  A    between atoms: C_6  and  C_7
REMARK    4  A    between atoms: C_7  and  O_8
REMARK    5  A    between atoms: C_7  and  C_9
REMARK    6  A    between atoms: C_9  and  O_10
REMARK    7  A    between atoms: O_10  and  C_11
REMARK    8  A    between atoms: C_11  and  C_12
REMARK    9  A    between atoms: C_20  and  C_21
REMARK                            x       y       z     vdW  Elec       q    Type
REMARK                         _______ _______ _______ _____ _____    ______ ____
ROOT
ATOM      1  C   UNL     1       5.776   5.830  17.767  0.00  0.00    +0.000 C 
ENDROOT
BRANCH   1   2
ATOM      2  O   UNL     1       5.893   5.640  19.189  0.00  0.00    +0.000 OA
ATOM      3  H   UNL     1       5.003   5.532  19.563  0.00  0.00    +0.000 HD
ENDBRANCH   1   2
BRANCH   1   4
ATOM      4  C   UNL     1       4.330   6.255  17.464  0.00  0.00    +0.000 C 
BRANCH   4   9
ATOM      5  C   UNL     1       0.806   2.002  18.762  0.00  0.00    +0.000 C 
ATOM      6  C   UNL     1       1.651   3.218  18.475  0.00  0.00    +0.000 A 
ATOM      7  N   UNL     1       2.345   3.162  17.295  0.00  0.00    +0.000 NA
ATOM      8  C   UNL     1       3.118   4.164  17.016  0.00  0.00    +0.000 A 
ATOM      9  N   UNL     1       3.342   5.237  17.827  0.00  0.00    +0.000 N 
ATOM     10  C   UNL     1       2.638   5.373  19.002  0.00  0.00    +0.000 A 
ATOM     11  O   UNL     1       2.786   6.318  19.771  0.00  0.00    +0.000 OA
ATOM     12  C   UNL     1       1.691   4.276  19.313  0.00  0.00    +0.000 A 
ATOM     13  C   UNL     1       0.817   4.410  20.527  0.00  0.00    +0.000 C 
ENDBRANCH   4   9
ENDBRANCH   1   4
BRANCH   1  14
ATOM     14  C   UNL     1       6.784   6.886  17.270  0.00  0.00    +0.000 C 
BRANCH  14  15
ATOM     15  O   UNL     1       7.537   6.331  16.189  0.00  0.00    +0.000 OA
BRANCH  15  16
ATOM     16  C   UNL     1       7.269   4.940  15.992  0.00  0.00    +0.000 C 
BRANCH  16  17
ATOM     17  C   UNL     1       7.026   4.640  14.532  0.00  0.00    +0.000 A 
ATOM     18  C   UNL     1       5.979   3.783  14.160  0.00  0.00    +0.000 A 
ATOM     19  C   UNL     1       5.706   3.530  12.813  0.00  0.00    +0.000 A 
ATOM     20  C   UNL     1       6.472   4.137  11.820  0.00  0.00    +0.000 A 
ATOM     21  C   UNL     1       7.512   4.996  12.174  0.00  0.00    +0.000 A 
ATOM     22  C   UNL     1       7.782   5.251  13.520  0.00  0.00    +0.000 A 
ENDBRANCH  16  17
ENDBRANCH  15  16
ENDBRANCH  14  15
ENDBRANCH   1  14
TORSDOF 7
ENDMDL
MODEL 4
REMARK VINA RESULT:      -6.7      3.120      6.598
REMARK  Name = 
REMARK  9 active torsions:
REMARK  status: ('A' for Active; 'I' for Inactive)
REMARK    1  A    between atoms: C_1  and  C_2
REMARK    2  A    between atoms: N_5  and  C_6
REMARK    3  A    between atoms: C_6  and  C_7
REMARK    4  A    between atoms: C_7  and  O_8
REMARK    5  A    between atoms: C_7  and  C_9
REMARK    6  A    between atoms: C_9  and  O_10
REMARK    7  A    between atoms: O_10  and  C_11
REMARK    8  A    between atoms: C_11  and  C_12
REMARK    9  A    between atoms: C_20  and  C_21
REMARK                            x       y       z     vdW  Elec       q    Type
REMARK                         _______ _______ _______ _____ _____    ______ ____
ROOT
ATOM      1  C   UNL     1       7.283   5.380  18.603  0.00  0.00    +0.000 C 
ENDROOT
BRANCH   1   2
ATOM      2  O   UNL     1       8.538   5.305  19.305  0.00  0.00    +0.000 OA
ATOM      3  H   UNL     1       9.038   4.542  18.968  0.00  0.00    +0.000 HD
ENDBRANCH   1   2
BRANCH   1   4
ATOM      4  C   UNL     1       6.162   5.481  19.649  0.00  0.00    +0.000 C 
BRANCH   4   9
ATOM      5  C   UNL     1       1.202   4.032  17.305  0.00  0.00    +0.000 C 
ATOM      6  C   UNL     1       2.494   4.324  18.027  0.00  0.00    +0.000 A 
ATOM      7  N   UNL     1       2.886   5.636  17.980  0.00  0.00    +0.000 NA
ATOM      8  C   UNL     1       4.009   5.938  18.552  0.00  0.00    +0.000 A 
ATOM      9  N   UNL     1       4.859   5.048  19.139  0.00  0.00    +0.000 N 
ATOM     10  C   UNL     1       4.499   3.725  19.259  0.00  0.00    +0.000 A 
ATOM     11  O   UNL     1       5.213   2.876  19.784  0.00  0.00    +0.000 OA
ATOM     12  C   UNL     1       3.183   3.363  18.678  0.00  0.00    +0.000 A 
ATOM     13  C   UNL     1       2.682   1.960  18.863  0.00  0.00    +0.000 C 
ENDBRANCH   4   9
ENDBRANCH   1   4
BRANCH   1  14
ATOM     14  C   UNL     1       7.263   6.590  17.646  0.00  0.00    +0.000 C 
BRANCH  14  15
ATOM     15  O   UNL     1       7.489   6.125  16.313  0.00  0.00    +0.000 OA
BRANCH  15  16
ATOM     16  C   UNL     1       6.735   4.950  16.007  0.00  0.00    +0.000 C 
BRANCH  16  17
ATOM     17  C   UNL     1       6.811   4.629  14.533  0.00  0.00    +0.000 A 
ATOM     18  C   UNL     1       5.935   3.684  13.977  0.00  0.00    +0.000 A 
ATOM     19  C   UNL     1       5.956   3.408  12.608  0.00  0.00    +0.000 A 
ATOM     20  C   UNL     1       6.849   4.079  11.775  0.00  0.00    +0.000 A 
ATOM     21  C   UNL     1       7.721   5.024  12.311  0.00  0.00    +0.000 A 
ATOM     22  C   UNL     1       7.698   5.302  13.680  0.00  0.00    +0.000 A 
ENDBRANCH  16  17
ENDBRANCH  15  16
ENDBRANCH  14  15
ENDBRANCH   1  14
TORSDOF 7
ENDMDL
MODEL 5
REMARK VINA RESULT:      -6.6      1.784      2.561
REMARK  Name = 
REMARK  9 active torsions:
REMARK  status: ('A' for Active; 'I' for Inactive)
REMARK    1  A    between atoms: C_1  and  C_2
REMARK    2  A    between atoms: N_5  and  C_6
REMARK    3  A    between atoms: C_6  and  C_7
REMARK    4  A    between atoms: C_7  and  O_8
REMARK    5  A    between atoms: C_7  and  C_9
REMARK    6  A    between atoms: C_9  and  O_10
REMARK    7  A    between atoms: O_10  and  C_11
REMARK    8  A    between atoms: C_11  and  C_12
REMARK    9  A    between atoms: C_20  and  C_21
REMARK                            x       y       z     vdW  Elec       q    Type
REMARK                         _______ _______ _______ _____ _____    ______ ____
ROOT
ATOM      1  C   UNL     1       2.773   3.269  18.898  0.00  0.00    +0.000 C 
ENDROOT
BRANCH   1   2
ATOM      2  O   UNL     1       2.365   1.915  19.164  0.00  0.00    +0.000 OA
ATOM      3  H   UNL     1       3.041   1.487  19.715  0.00  0.00    +0.000 HD
ENDBRANCH   1   2
BRANCH   1   4
ATOM      4  C   UNL     1       3.588   3.270  17.595  0.00  0.00    +0.000 C 
BRANCH   4   9
ATOM      5  C   UNL     1       7.264   7.586  17.369  0.00  0.00    +0.000 C 
ATOM      6  C   UNL     1       6.389   6.362  17.482  0.00  0.00    +0.000 A 
ATOM      7  N   UNL     1       5.471   6.226  16.475  0.00  0.00    +0.000 NA
ATOM      8  C   UNL     1       4.667   5.212  16.542  0.00  0.00    +0.000 A 
ATOM      9  N   UNL     1       4.620   4.309  17.561  0.00  0.00    +0.000 N 
ATOM     10  C   UNL     1       5.547   4.365  18.577  0.00  0.00    +0.000 A 
ATOM     11  O   UNL     1       5.566   3.578  19.518  0.00  0.00    +0.000 OA
ATOM     12  C   UNL     1       6.529   5.474  18.489  0.00  0.00    +0.000 A 
ATOM     13  C   UNL     1       7.631   5.535  19.507  0.00  0.00    +0.000 C 
ENDBRANCH   4   9
ENDBRANCH   1   4
BRANCH   1  14
ATOM     14  C   UNL     1       1.548   4.201  18.791  0.00  0.00    +0.000 C 
BRANCH  14  15
ATOM     15  O   UNL     1       1.492   5.023  19.959  0.00  0.00    +0.000 OA
BRANCH  15  16
ATOM     16  C   UNL     1       2.587   5.939  20.038  0.00  0.00    +0.000 C 
BRANCH  16  17
ATOM     17  C   UNL     1       2.177   7.312  19.563  0.00  0.00    +0.000 A 
ATOM     18  C   UNL     1       2.479   7.718  18.254  0.00  0.00    +0.000 A 
ATOM     19  C   UNL     1       2.066   8.965  17.779  0.00  0.00    +0.000 A 
ATOM     20  C   UNL     1       1.338   9.820  18.604  0.00  0.00    +0.000 A 
ATOM     21  C   UNL     1       1.025   9.429  19.904  0.00  0.00    +0.000 A 
ATOM     22  C   UNL     1       1.435   8.180  20.378  0.00  0.00    +0.000 A 
ENDBRANCH  16  17
ENDBRANCH  15  16
ENDBRANCH  14  15
ENDBRANCH   1  14
TORSDOF 7
ENDMDL
MODEL 6
REMARK VINA RESULT:      -6.6      1.936      4.189
REMARK  Name = 
REMARK  9 active torsions:
REMARK  status: ('A' for Active; 'I' for Inactive)
REMARK    1  A    between atoms: C_1  and  C_2
REMARK    2  A    between atoms: N_5  and  C_6
REMARK    3  A    between atoms: C_6  and  C_7
REMARK    4  A    between atoms: C_7  and  O_8
REMARK    5  A    between atoms: C_7  and  C_9
REMARK    6  A    between atoms: C_9  and  O_10
REMARK    7  A    between atoms: O_10  and  C_11
REMARK    8  A    between atoms: C_11  and  C_12
REMARK    9  A    between atoms: C_20  and  C_21
REMARK                            x       y       z     vdW  Elec       q    Type
REMARK                         _______ _______ _______ _____ _____    ______ ____
ROOT
ATOM      1  C   UNL     1       5.227   5.600  16.177  0.00  0.00    +0.000 C 
ENDROOT
BRANCH   1   2
ATOM      2  O   UNL     1       6.203   5.708  15.124  0.00  0.00    +0.000 OA
ATOM      3  H   UNL     1       6.584   6.601  15.143  0.00  0.00    +0.000 HD
ENDBRANCH   1   2
BRANCH   1   4
ATOM      4  C   UNL     1       5.378   4.213  16.821  0.00  0.00    +0.000 C 
BRANCH   4   9
ATOM      5  C   UNL     1       0.626   2.223  19.198  0.00  0.00    +0.000 C 
ATOM      6  C   UNL     1       1.916   2.813  18.687  0.00  0.00    +0.000 A 
ATOM      7  N   UNL     1       1.888   3.183  17.368  0.00  0.00    +0.000 NA
ATOM      8  C   UNL     1       2.982   3.662  16.865  0.00  0.00    +0.000 A 
ATOM      9  N   UNL     1       4.171   3.770  17.523  0.00  0.00    +0.000 N 
ATOM     10  C   UNL     1       4.251   3.459  18.862  0.00  0.00    +0.000 A 
ATOM     11  O   UNL     1       5.287   3.542  19.514  0.00  0.00    +0.000 OA
ATOM     12  C   UNL     1       2.994   2.977  19.484  0.00  0.00    +0.000 A 
ATOM     13  C   UNL     1       2.983   2.718  20.963  0.00  0.00    +0.000 C 
ENDBRANCH   4   9
ENDBRANCH   1   4
BRANCH   1  14
ATOM     14  C   UNL     1       5.419   6.722  17.218  0.00  0.00    +0.000 C 
BRANCH  14  15
ATOM     15  O   UNL     1       4.237   6.814  18.018  0.00  0.00    +0.000 OA
BRANCH  15  16
ATOM     16  C   UNL     1       3.232   7.636  17.419  0.00  0.00    +0.000 C 
BRANCH  16  17
ATOM     17  C   UNL     1       2.283   8.175  18.462  0.00  0.00    +0.000 A 
ATOM     18  C   UNL     1       2.237   7.586  19.735  0.00  0.00    +0.000 A 
ATOM     19  C   UNL     1       1.402   8.099  20.730  0.00  0.00    +0.000 A 
ATOM     20  C   UNL     1       0.606   9.213  20.468  0.00  0.00    +0.000 A 
ATOM     21  C   UNL     1       0.646   9.813  19.210  0.00  0.00    +0.000 A 
ATOM     22  C   UNL     1       1.484   9.301  18.217  0.00  0.00    +0.000 A 
ENDBRANCH  16  17
ENDBRANCH  15  16
ENDBRANCH  14  15
ENDBRANCH   1  14
TORSDOF 7
ENDMDL
MODEL 7
REMARK VINA RESULT:      -6.5      2.308      5.877
REMARK  Name = 
REMARK  9 active torsions:
REMARK  status: ('A' for Active; 'I' for Inactive)
REMARK    1  A    between atoms: C_1  and  C_2
REMARK    2  A    between atoms: N_5  and  C_6
REMARK    3  A    between atoms: C_6  and  C_7
REMARK    4  A    between atoms: C_7  and  O_8
REMARK    5  A    between atoms: C_7  and  C_9
REMARK    6  A    between atoms: C_9  and  O_10
REMARK    7  A    between atoms: O_10  and  C_11
REMARK    8  A    between atoms: C_11  and  C_12
REMARK    9  A    between atoms: C_20  and  C_21
REMARK                            x       y       z     vdW  Elec       q    Type
REMARK                         _______ _______ _______ _____ _____    ______ ____
ROOT
ATOM      1  C   UNL     1       5.146   6.017  18.102  0.00  0.00    +0.000 C 
ENDROOT
BRANCH   1   2
ATOM      2  O   UNL     1       5.809   6.717  17.032  0.00  0.00    +0.000 OA
ATOM      3  H   UNL     1       5.152   7.254  16.558  0.00  0.00    +0.000 HD
ENDBRANCH   1   2
BRANCH   1   4
ATOM      4  C   UNL     1       3.647   5.957  17.770  0.00  0.00    +0.000 C 
BRANCH   4   9
ATOM      5  C   UNL     1       0.741   8.942  21.624  0.00  0.00    +0.000 C 
ATOM      6  C   UNL     1       1.434   8.208  20.503  0.00  0.00    +0.000 A 
ATOM      7  N   UNL     1       1.829   6.934  20.817  0.00  0.00    +0.000 NA
ATOM      8  C   UNL     1       2.464   6.270  19.903  0.00  0.00    +0.000 A 
ATOM      9  N   UNL     1       2.823   6.756  18.682  0.00  0.00    +0.000 N 
ATOM     10  C   UNL     1       2.415   8.011  18.290  0.00  0.00    +0.000 A 
ATOM     11  O   UNL     1       2.697   8.503  17.202  0.00  0.00    +0.000 OA
ATOM     12  C   UNL     1       1.623   8.769  19.289  0.00  0.00    +0.000 A 
ATOM     13  C   UNL     1       1.058  10.102  18.891  0.00  0.00    +0.000 C 
ENDBRANCH   4   9
ENDBRANCH   1   4
BRANCH   1  14
ATOM     14  C   UNL     1       5.735   4.602  18.278  0.00  0.00    +0.000 C 
BRANCH  14  15
ATOM     15  O   UNL     1       5.244   4.049  19.502  0.00  0.00    +0.000 OA
BRANCH  15  16
ATOM     16  C   UNL     1       4.700   2.738  19.331  0.00  0.00    +0.000 C 
BRANCH  16  17
ATOM     17  C   UNL     1       3.208   2.738  19.567  0.00  0.00    +0.000 A 
ATOM     18  C   UNL     1       2.708   2.827  20.875  0.00  0.00    +0.000 A 
ATOM     19  C   UNL     1       1.333   2.877  21.113  0.00  0.00    +0.000 A 
ATOM     20  C   UNL     1       0.438   2.847  20.044  0.00  0.00    +0.000 A 
ATOM     21  C   UNL     1       0.920   2.765  18.739  0.00  0.00    +0.000 A 
ATOM     22  C   UNL     1       2.296   2.718  18.502  0.00  0.00    +0.000 A 
ENDBRANCH  16  17
ENDBRANCH  15  16
ENDBRANCH  14  15
ENDBRANCH   1  14
TORSDOF 7
ENDMDL
MODEL 8
REMARK VINA RESULT:      -6.5      2.388      6.085
REMARK  Name = 
REMARK  9 active torsions:
REMARK  status: ('A' for Active; 'I' for Inactive)
REMARK    1  A    between atoms: C_1  and  C_2
REMARK    2  A    between atoms: N_5  and  C_6
REMARK    3  A    between atoms: C_6  and  C_7
REMARK    4  A    between atoms: C_7  and  O_8
REMARK    5  A    between atoms: C_7  and  C_9
REMARK    6  A    between atoms: C_9  and  O_10
REMARK    7  A    between atoms: O_10  and  C_11
REMARK    8  A    between atoms: C_11  and  C_12
REMARK    9  A    between atoms: C_20  and  C_21
REMARK                            x       y       z     vdW  Elec       q    Type
REMARK                         _______ _______ _______ _____ _____    ______ ____
ROOT
ATOM      1  C   UNL     1       4.843   6.016  17.668  0.00  0.00    +0.000 C 
ENDROOT
BRANCH   1   2
ATOM      2  O   UNL     1       6.120   6.678  17.707  0.00  0.00    +0.000 OA
ATOM      3  H   UNL     1       6.316   7.030  16.822  0.00  0.00    +0.000 HD
ENDBRANCH   1   2
BRANCH   1   4
ATOM      4  C   UNL     1       3.792   7.042  17.215  0.00  0.00    +0.000 C 
BRANCH   4   9
ATOM      5  C   UNL     1       0.612   8.528  21.674  0.00  0.00    +0.000 C 
ATOM      6  C   UNL     1       1.363   8.193  20.409  0.00  0.00    +0.000 A 
ATOM      7  N   UNL     1       2.014   6.989  20.437  0.00  0.00    +0.000 NA
ATOM      8  C   UNL     1       2.706   6.667  19.389  0.00  0.00    +0.000 A 
ATOM      9  N   UNL     1       2.888   7.455  18.292  0.00  0.00    +0.000 N 
ATOM     10  C   UNL     1       2.223   8.655  18.185  0.00  0.00    +0.000 A 
ATOM     11  O   UNL     1       2.336   9.406  17.221  0.00  0.00    +0.000 OA
ATOM     12  C   UNL     1       1.363   9.017  19.339  0.00  0.00    +0.000 A 
ATOM     13  C   UNL     1       0.529  10.262  19.245  0.00  0.00    +0.000 C 
ENDBRANCH   4   9
ENDBRANCH   1   4
BRANCH   1  14
ATOM     14  C   UNL     1       4.883   4.803  16.717  0.00  0.00    +0.000 C 
BRANCH  14  15
ATOM     15  O   UNL     1       4.628   3.616  17.473  0.00  0.00    +0.000 OA
BRANCH  15  16
ATOM     16  C   UNL     1       3.265   3.192  17.385  0.00  0.00    +0.000 C 
BRANCH  16  17
ATOM     17  C   UNL     1       2.631   3.126  18.753  0.00  0.00    +0.000 A 
ATOM     18  C   UNL     1       1.235   3.202  18.881  0.00  0.00    +0.000 A 
ATOM     19  C   UNL     1       0.625   3.095  20.133  0.00  0.00    +0.000 A 
ATOM     20  C   UNL     1       1.403   2.901  21.274  0.00  0.00    +0.000 A 
ATOM     21  C   UNL     1       2.789   2.817  21.162  0.00  0.00    +0.000 A 
ATOM     22  C   UNL     1       3.398   2.922  19.910  0.00  0.00    +0.000 A 
ENDBRANCH  16  17
ENDBRANCH  15  16
ENDBRANCH  14  15
ENDBRANCH   1  14
TORSDOF 7
ENDMDL
MODEL 9
REMARK VINA RESULT:      -6.5      2.979      6.707
REMARK  Name = 
REMARK  9 active torsions:
REMARK  status: ('A' for Active; 'I' for Inactive)
REMARK    1  A    between atoms: C_1  and  C_2
REMARK    2  A    between atoms: N_5  and  C_6
REMARK    3  A    between atoms: C_6  and  C_7
REMARK    4  A    between atoms: C_7  and  O_8
REMARK    5  A    between atoms: C_7  and  C_9
REMARK    6  A    between atoms: C_9  and  O_10
REMARK    7  A    between atoms: O_10  and  C_11
REMARK    8  A    between atoms: C_11  and  C_12
REMARK    9  A    between atoms: C_20  and  C_21
REMARK                            x       y       z     vdW  Elec       q    Type
REMARK                         _______ _______ _______ _____ _____    ______ ____
ROOT
ATOM      1  C   UNL     1       6.739   4.711  17.380  0.00  0.00    +0.000 C 
ENDROOT
BRANCH   1   2
ATOM      2  O   UNL     1       8.061   4.143  17.437  0.00  0.00    +0.000 OA
ATOM      3  H   UNL     1       7.994   3.230  17.762  0.00  0.00    +0.000 HD
ENDBRANCH   1   2
BRANCH   1   4
ATOM      4  C   UNL     1       6.110   4.584  18.776  0.00  0.00    +0.000 C 
BRANCH   4   9
ATOM      5  C   UNL     1       0.990   2.137  18.758  0.00  0.00    +0.000 C 
ATOM      6  C   UNL     1       2.286   2.909  18.757  0.00  0.00    +0.000 A 
ATOM      7  N   UNL     1       3.310   2.299  18.082  0.00  0.00    +0.000 NA
ATOM      8  C   UNL     1       4.458   2.900  18.081  0.00  0.00    +0.000 A 
ATOM      9  N   UNL     1       4.744   4.055  18.746  0.00  0.00    +0.000 N 
ATOM     10  C   UNL     1       3.746   4.739  19.403  0.00  0.00    +0.000 A 
ATOM     11  O   UNL     1       3.935   5.787  20.013  0.00  0.00    +0.000 OA
ATOM     12  C   UNL     1       2.403   4.112  19.359  0.00  0.00    +0.000 A 
ATOM     13  C   UNL     1       1.248   4.855  19.966  0.00  0.00    +0.000 C 
ENDBRANCH   4   9
ENDBRANCH   1   4
BRANCH   1  14
ATOM     14  C   UNL     1       6.795   6.185  16.927  0.00  0.00    +0.000 C 
BRANCH  14  15
ATOM     15  O   UNL     1       6.032   6.325  15.726  0.00  0.00    +0.000 OA
BRANCH  15  16
ATOM     16  C   UNL     1       5.366   5.116  15.354  0.00  0.00    +0.000 C 
BRANCH  16  17
ATOM     17  C   UNL     1       5.883   4.599  14.033  0.00  0.00    +0.000 A 
ATOM     18  C   UNL     1       7.152   4.989  13.578  0.00  0.00    +0.000 A 
ATOM     19  C   UNL     1       7.669   4.485  12.383  0.00  0.00    +0.000 A 
ATOM     20  C   UNL     1       6.927   3.577  11.629  0.00  0.00    +0.000 A 
ATOM     21  C   UNL     1       5.668   3.175  12.072  0.00  0.00    +0.000 A 
ATOM     22  C   UNL     1       5.153   3.677  13.269  0.00  0.00    +0.000 A 
ENDBRANCH  16  17
ENDBRANCH  15  16
ENDBRANCH  14  15
ENDBRANCH   1  14
TORSDOF 7
ENDMDL
