MODEL 1
REMARK VINA RESULT:      -7.7      0.000      0.000
REMARK  Name = 
REMARK  15 active torsions:
REMARK  status: ('A' for Active; 'I' for Inactive)
REMARK    1  A    between atoms: C_1  and  C_2
REMARK    2  A    between atoms: C_2  and  C_3
REMARK    3  A    between atoms: C_3  and  C_4
REMARK    4  A    between atoms: C_4  and  C_5
REMARK    5  A    between atoms: C_5  and  C_6
REMARK    6  A    between atoms: C_9  and  C_10
REMARK    7  A    between atoms: N_12  and  C_13
REMARK    8  A    between atoms: C_19  and  C_20
REMARK    9  A    between atoms: C_20  and  C_21
REMARK   10  A    between atoms: C_21  and  N_22
REMARK   11  A    between atoms: N_22  and  C_23
REMARK   12  A    between atoms: N_22  and  C_26
REMARK   13  A    between atoms: C_23  and  C_24
REMARK   14  A    between atoms: C_24  and  C_25
REMARK   15  A    between atoms: C_26  and  C_27
REMARK                            x       y       z     vdW  Elec       q    Type
REMARK                         _______ _______ _______ _____ _____    ______ ____
ROOT
ATOM      1  C   UNL     1       1.257   8.817  20.182  0.00  0.00    +0.000 A 
ATOM      2  C   UNL     1       0.905   8.281  21.425  0.00  0.00    +0.000 A 
ATOM      3  C   UNL     1       0.066   8.961  22.326  0.00  0.00    +0.000 A 
ATOM      4  C   UNL     1      -0.435  10.204  21.932  0.00  0.00    +0.000 A 
ATOM      5  N   UNL     1      -1.272  11.099  22.559  0.00  0.00    +0.000 N 
ATOM      6  C   UNL     1      -1.560  12.161  21.721  0.00  0.00    +0.000 A 
ATOM      7  C   UNL     1      -0.891  11.954  20.534  0.00  0.00    +0.000 A 
ATOM      8  C   UNL     1      -0.128  10.750  20.697  0.00  0.00    +0.000 A 
ATOM      9  C   UNL     1       0.753  10.067  19.830  0.00  0.00    +0.000 A 
ATOM     10  H   UNL     1      -1.652  10.975  23.485  0.00  0.00    +0.000 HD
ENDROOT
BRANCH   1  13
ATOM     11  C   UNL     1       2.457   6.836  19.294  0.00  0.00    +0.000 C 
ATOM     12  O   UNL     1       2.094   6.018  20.139  0.00  0.00    +0.000 OA
ATOM     13  N   UNL     1       2.088   8.166  19.237  0.00  0.00    +0.000 N 
ATOM     14  H   UNL     1       2.285   8.669  18.383  0.00  0.00    +0.000 HD
BRANCH  11  18
ATOM     15  C   UNL     1       5.066   5.222  16.291  0.00  0.00    +0.000 A 
ATOM     16  C   UNL     1       4.312   4.395  17.131  0.00  0.00    +0.000 A 
ATOM     17  C   UNL     1       3.444   4.946  18.070  0.00  0.00    +0.000 A 
ATOM     18  C   UNL     1       3.322   6.334  18.197  0.00  0.00    +0.000 A 
ATOM     19  C   UNL     1       4.069   7.174  17.362  0.00  0.00    +0.000 A 
ATOM     20  C   UNL     1       4.937   6.614  16.415  0.00  0.00    +0.000 A 
BRANCH  15  21
ATOM     21  C   UNL     1       6.027   4.611  15.299  0.00  0.00    +0.000 C 
BRANCH  21  22
ATOM     22  C   UNL     1       5.308   4.059  14.064  0.00  0.00    +0.000 C 
BRANCH  22  23
ATOM     23  C   UNL     1       6.279   3.357  13.114  0.00  0.00    +0.000 C 
BRANCH  23  25
ATOM     24  C   UNL     1       4.281   3.276  11.582  0.00  0.00    +0.000 C 
ATOM     25  C   UNL     1       5.788   3.446  11.669  0.00  0.00    +0.000 C 
ENDBRANCH  23  25
ENDBRANCH  22  23
ENDBRANCH  21  22
ENDBRANCH  15  21
ENDBRANCH  11  18
ENDBRANCH   1  13
BRANCH   7  26
ATOM     26  C   UNL     1      -0.882  12.636  19.202  0.00  0.00    +0.000 C 
BRANCH  26  27
ATOM     27  C   UNL     1      -1.787  12.215  18.054  0.00  0.00    +0.000 C 
BRANCH  27  28
ATOM     28  N   UNL     1      -2.816  11.226  18.520  0.00  0.00    +0.000 NA
BRANCH  28  29
ATOM     29  C   UNL     1      -4.130  11.866  18.779  0.00  0.00    +0.000 C 
BRANCH  29  30
ATOM     30  C   UNL     1      -5.394  11.070  18.400  0.00  0.00    +0.000 C 
ATOM     31  C   UNL     1      -6.418  11.873  17.609  0.00  0.00    +0.000 C 
ENDBRANCH  29  30
ENDBRANCH  28  29
BRANCH  28  32
ATOM     32  C   UNL     1      -2.958  10.119  17.560  0.00  0.00    +0.000 C 
BRANCH  32  33
ATOM     33  C   UNL     1      -2.586  10.529  16.165  0.00  0.00    +0.000 C 
ATOM     34  C   UNL     1      -2.879   9.632  14.986  0.00  0.00    +0.000 C 
ATOM     35  C   UNL     1      -3.655  10.906  15.167  0.00  0.00    +0.000 C 
ENDBRANCH  32  33
ENDBRANCH  28  32
ENDBRANCH  27  28
ENDBRANCH  26  27
ENDBRANCH   7  26
TORSDOF 13
ENDMDL
MODEL 2
REMARK VINA RESULT:      -7.6      3.152     10.649
REMARK  Name = 
REMARK  15 active torsions:
REMARK  status: ('A' for Active; 'I' for Inactive)
REMARK    1  A    between atoms: C_1  and  C_2
REMARK    2  A    between atoms: C_2  and  C_3
REMARK    3  A    between atoms: C_3  and  C_4
REMARK    4  A    between atoms: C_4  and  C_5
REMARK    5  A    between atoms: C_5  and  C_6
REMARK    6  A    between atoms: C_9  and  C_10
REMARK    7  A    between atoms: N_12  and  C_13
REMARK    8  A    between atoms: C_19  and  C_20
REMARK    9  A    between atoms: C_20  and  C_21
REMARK   10  A    between atoms: C_21  and  N_22
REMARK   11  A    between atoms: N_22  and  C_23
REMARK   12  A    between atoms: N_22  and  C_26
REMARK   13  A    between atoms: C_23  and  C_24
REMARK   14  A    between atoms: C_24  and  C_25
REMARK   15  A    between atoms: C_26  and  C_27
REMARK                            x       y       z     vdW  Elec       q    Type
REMARK                         _______ _______ _______ _____ _____    ______ ____
ROOT
ATOM      1  C   UNL     1       2.061   4.934  20.627  0.00  0.00    +0.000 A 
ATOM      2  C   UNL     1       2.261   3.880  21.523  0.00  0.00    +0.000 A 
ATOM      3  C   UNL     1       2.848   2.663  21.131  0.00  0.00    +0.000 A 
ATOM      4  C   UNL     1       3.251   2.538  19.799  0.00  0.00    +0.000 A 
ATOM      5  N   UNL     1       3.854   1.509  19.114  0.00  0.00    +0.000 N 
ATOM      6  C   UNL     1       4.146   1.895  17.819  0.00  0.00    +0.000 A 
ATOM      7  C   UNL     1       3.717   3.195  17.660  0.00  0.00    +0.000 A 
ATOM      8  C   UNL     1       3.091   3.574  18.894  0.00  0.00    +0.000 A 
ATOM      9  C   UNL     1       2.459   4.769  19.303  0.00  0.00    +0.000 A 
ATOM     10  H   UNL     1       4.085   0.612  19.514  0.00  0.00    +0.000 HD
ENDROOT
BRANCH   1  13
ATOM     11  C   UNL     1       1.766   7.383  20.355  0.00  0.00    +0.000 C 
ATOM     12  O   UNL     1       2.514   7.543  19.390  0.00  0.00    +0.000 OA
ATOM     13  N   UNL     1       1.487   6.182  20.977  0.00  0.00    +0.000 N 
ATOM     14  H   UNL     1       0.702   6.159  21.615  0.00  0.00    +0.000 HD
BRANCH  11  18
ATOM     15  C   UNL     1      -0.118  10.992  21.716  0.00  0.00    +0.000 A 
ATOM     16  C   UNL     1       0.369  10.865  20.410  0.00  0.00    +0.000 A 
ATOM     17  C   UNL     1       0.941   9.669  19.984  0.00  0.00    +0.000 A 
ATOM     18  C   UNL     1       1.047   8.581  20.857  0.00  0.00    +0.000 A 
ATOM     19  C   UNL     1       0.563   8.693  22.166  0.00  0.00    +0.000 A 
ATOM     20  C   UNL     1      -0.017   9.897  22.589  0.00  0.00    +0.000 A 
BRANCH  15  21
ATOM     21  C   UNL     1      -0.708  12.305  22.175  0.00  0.00    +0.000 C 
BRANCH  21  22
ATOM     22  C   UNL     1      -1.908  12.106  23.104  0.00  0.00    +0.000 C 
BRANCH  22  23
ATOM     23  C   UNL     1      -2.805  13.344  23.139  0.00  0.00    +0.000 C 
BRANCH  23  25
ATOM     24  C   UNL     1      -5.051  12.851  22.111  0.00  0.00    +0.000 C 
ATOM     25  C   UNL     1      -4.259  12.956  23.403  0.00  0.00    +0.000 C 
ENDBRANCH  23  25
ENDBRANCH  22  23
ENDBRANCH  21  22
ENDBRANCH  15  21
ENDBRANCH  11  18
ENDBRANCH   1  13
BRANCH   7  26
ATOM     26  C   UNL     1       3.848   4.218  16.576  0.00  0.00    +0.000 C 
BRANCH  26  27
ATOM     27  C   UNL     1       5.063   5.123  16.439  0.00  0.00    +0.000 C 
BRANCH  27  28
ATOM     28  N   UNL     1       6.320   4.312  16.304  0.00  0.00    +0.000 NA
BRANCH  28  29
ATOM     29  C   UNL     1       6.948   4.471  14.968  0.00  0.00    +0.000 C 
BRANCH  29  30
ATOM     30  C   UNL     1       6.010   4.602  13.754  0.00  0.00    +0.000 C 
ATOM     31  C   UNL     1       6.100   3.440  12.773  0.00  0.00    +0.000 C 
ENDBRANCH  29  30
ENDBRANCH  28  29
BRANCH  28  32
ATOM     32  C   UNL     1       7.280   4.643  17.370  0.00  0.00    +0.000 C 
BRANCH  32  33
ATOM     33  C   UNL     1       6.979   5.966  18.012  0.00  0.00    +0.000 C 
ATOM     34  C   UNL     1       8.023   6.692  18.826  0.00  0.00    +0.000 C 
ATOM     35  C   UNL     1       7.610   7.233  17.487  0.00  0.00    +0.000 C 
ENDBRANCH  32  33
ENDBRANCH  28  32
ENDBRANCH  27  28
ENDBRANCH  26  27
ENDBRANCH   7  26
TORSDOF 13
ENDMDL
MODEL 3
REMARK VINA RESULT:      -7.6      0.832      2.306
REMARK  Name = 
REMARK  15 active torsions:
REMARK  status: ('A' for Active; 'I' for Inactive)
REMARK    1  A    between atoms: C_1  and  C_2
REMARK    2  A    between atoms: C_2  and  C_3
REMARK    3  A    between atoms: C_3  and  C_4
REMARK    4  A    between atoms: C_4  and  C_5
REMARK    5  A    between atoms: C_5  and  C_6
REMARK    6  A    between atoms: C_9  and  C_10
REMARK    7  A    between atoms: N_12  and  C_13
REMARK    8  A    between atoms: C_19  and  C_20
REMARK    9  A    between atoms: C_20  and  C_21
REMARK   10  A    between atoms: C_21  and  N_22
REMARK   11  A    between atoms: N_22  and  C_23
REMARK   12  A    between atoms: N_22  and  C_26
REMARK   13  A    between atoms: C_23  and  C_24
REMARK   14  A    between atoms: C_24  and  C_25
REMARK   15  A    between atoms: C_26  and  C_27
REMARK                            x       y       z     vdW  Elec       q    Type
REMARK                         _______ _______ _______ _____ _____    ______ ____
ROOT
ATOM      1  C   UNL     1       1.395   8.640  20.542  0.00  0.00    +0.000 A 
ATOM      2  C   UNL     1       1.259   8.530  21.929  0.00  0.00    +0.000 A 
ATOM      3  C   UNL     1       0.426   9.386  22.671  0.00  0.00    +0.000 A 
ATOM      4  C   UNL     1      -0.293  10.358  21.972  0.00  0.00    +0.000 A 
ATOM      5  N   UNL     1      -1.184  11.321  22.387  0.00  0.00    +0.000 N 
ATOM      6  C   UNL     1      -1.712  11.994  21.301  0.00  0.00    +0.000 A 
ATOM      7  C   UNL     1      -1.147  11.462  20.161  0.00  0.00    +0.000 A 
ATOM      8  C   UNL     1      -0.200  10.475  20.595  0.00  0.00    +0.000 A 
ATOM      9  C   UNL     1       0.678   9.632  19.878  0.00  0.00    +0.000 A 
ATOM     10  H   UNL     1      -1.443  11.485  23.348  0.00  0.00    +0.000 HD
ENDROOT
BRANCH   1  13
ATOM     11  C   UNL     1       2.257   6.417  19.854  0.00  0.00    +0.000 C 
ATOM     12  O   UNL     1       1.577   5.724  20.610  0.00  0.00    +0.000 OA
ATOM     13  N   UNL     1       2.211   7.794  19.750  0.00  0.00    +0.000 N 
ATOM     14  H   UNL     1       2.663   8.216  18.951  0.00  0.00    +0.000 HD
BRANCH  11  18
ATOM     15  C   UNL     1       4.781   4.498  16.960  0.00  0.00    +0.000 A 
ATOM     16  C   UNL     1       4.651   5.890  17.013  0.00  0.00    +0.000 A 
ATOM     17  C   UNL     1       3.856   6.488  17.988  0.00  0.00    +0.000 A 
ATOM     18  C   UNL     1       3.166   5.705  18.920  0.00  0.00    +0.000 A 
ATOM     19  C   UNL     1       3.287   4.311  18.880  0.00  0.00    +0.000 A 
ATOM     20  C   UNL     1       4.093   3.715  17.901  0.00  0.00    +0.000 A 
BRANCH  15  21
ATOM     21  C   UNL     1       5.622   3.861  15.879  0.00  0.00    +0.000 C 
BRANCH  21  22
ATOM     22  C   UNL     1       5.682   4.720  14.613  0.00  0.00    +0.000 C 
BRANCH  22  23
ATOM     23  C   UNL     1       5.121   3.977  13.400  0.00  0.00    +0.000 C 
BRANCH  23  25
ATOM     24  C   UNL     1       5.782   2.326  11.615  0.00  0.00    +0.000 C 
ATOM     25  C   UNL     1       6.250   3.464  12.506  0.00  0.00    +0.000 C 
ENDBRANCH  23  25
ENDBRANCH  22  23
ENDBRANCH  21  22
ENDBRANCH  15  21
ENDBRANCH  11  18
ENDBRANCH   1  13
BRANCH   7  26
ATOM     26  C   UNL     1      -1.378  11.641  18.694  0.00  0.00    +0.000 C 
BRANCH  26  27
ATOM     27  C   UNL     1      -2.350  10.782  17.900  0.00  0.00    +0.000 C 
BRANCH  27  28
ATOM     28  N   UNL     1      -3.558  11.578  17.496  0.00  0.00    +0.000 NA
BRANCH  28  29
ATOM     29  C   UNL     1      -4.164  11.074  16.238  0.00  0.00    +0.000 C 
BRANCH  29  30
ATOM     30  C   UNL     1      -3.246  10.946  15.008  0.00  0.00    +0.000 C 
ATOM     31  C   UNL     1      -2.967   9.509  14.589  0.00  0.00    +0.000 C 
ENDBRANCH  29  30
ENDBRANCH  28  29
BRANCH  28  32
ATOM     32  C   UNL     1      -4.557  11.608  18.577  0.00  0.00    +0.000 C 
BRANCH  32  33
ATOM     33  C   UNL     1      -5.909  11.155  18.110  0.00  0.00    +0.000 C 
ATOM     34  C   UNL     1      -6.918  10.589  19.080  0.00  0.00    +0.000 C 
ATOM     35  C   UNL     1      -7.147  11.941  18.469  0.00  0.00    +0.000 C 
ENDBRANCH  32  33
ENDBRANCH  28  32
ENDBRANCH  27  28
ENDBRANCH  26  27
ENDBRANCH   7  26
TORSDOF 13
ENDMDL
MODEL 4
REMARK VINA RESULT:      -7.4      3.404     10.704
REMARK  Name = 
REMARK  15 active torsions:
REMARK  status: ('A' for Active; 'I' for Inactive)
REMARK    1  A    between atoms: C_1  and  C_2
REMARK    2  A    between atoms: C_2  and  C_3
REMARK    3  A    between atoms: C_3  and  C_4
REMARK    4  A    between atoms: C_4  and  C_5
REMARK    5  A    between atoms: C_5  and  C_6
REMARK    6  A    between atoms: C_9  and  C_10
REMARK    7  A    between atoms: N_12  and  C_13
REMARK    8  A    between atoms: C_19  and  C_20
REMARK    9  A    between atoms: C_20  and  C_21
REMARK   10  A    between atoms: C_21  and  N_22
REMARK   11  A    between atoms: N_22  and  C_23
REMARK   12  A    between atoms: N_22  and  C_26
REMARK   13  A    between atoms: C_23  and  C_24
REMARK   14  A    between atoms: C_24  and  C_25
REMARK   15  A    between atoms: C_26  and  C_27
REMARK                            x       y       z     vdW  Elec       q    Type
REMARK                         _______ _______ _______ _____ _____    ______ ____
ROOT
ATOM      1  C   UNL     1       1.723   5.639  20.554  0.00  0.00    +0.000 A 
ATOM      2  C   UNL     1       0.992   4.447  20.560  0.00  0.00    +0.000 A 
ATOM      3  C   UNL     1       1.524   3.239  20.077  0.00  0.00    +0.000 A 
ATOM      4  C   UNL     1       2.836   3.253  19.599  0.00  0.00    +0.000 A 
ATOM      5  N   UNL     1       3.638   2.262  19.082  0.00  0.00    +0.000 N 
ATOM      6  C   UNL     1       4.908   2.747  18.832  0.00  0.00    +0.000 A 
ATOM      7  C   UNL     1       4.927   4.080  19.185  0.00  0.00    +0.000 A 
ATOM      8  C   UNL     1       3.596   4.411  19.606  0.00  0.00    +0.000 A 
ATOM      9  C   UNL     1       3.023   5.622  20.055  0.00  0.00    +0.000 A 
ATOM     10  H   UNL     1       3.349   1.305  18.944  0.00  0.00    +0.000 HD
ENDROOT
BRANCH   1  13
ATOM     11  C   UNL     1       1.390   8.093  20.403  0.00  0.00    +0.000 C 
ATOM     12  O   UNL     1       1.930   8.277  19.312  0.00  0.00    +0.000 OA
ATOM     13  N   UNL     1       1.236   6.878  21.041  0.00  0.00    +0.000 N 
ATOM     14  H   UNL     1       0.594   6.839  21.821  0.00  0.00    +0.000 HD
BRANCH  11  18
ATOM     15  C   UNL     1      -0.552  11.375  22.374  0.00  0.00    +0.000 A 
ATOM     16  C   UNL     1      -0.463  10.111  22.967  0.00  0.00    +0.000 A 
ATOM     17  C   UNL     1       0.207   9.075  22.322  0.00  0.00    +0.000 A 
ATOM     18  C   UNL     1       0.791   9.279  21.066  0.00  0.00    +0.000 A 
ATOM     19  C   UNL     1       0.711  10.539  20.462  0.00  0.00    +0.000 A 
ATOM     20  C   UNL     1       0.040  11.580  21.117  0.00  0.00    +0.000 A 
BRANCH  15  21
ATOM     21  C   UNL     1      -1.309  12.482  23.071  0.00  0.00    +0.000 C 
BRANCH  21  22
ATOM     22  C   UNL     1      -2.812  12.422  22.785  0.00  0.00    +0.000 C 
BRANCH  22  23
ATOM     23  C   UNL     1      -3.480  13.782  22.993  0.00  0.00    +0.000 C 
BRANCH  23  25
ATOM     24  C   UNL     1      -3.035  14.960  25.174  0.00  0.00    +0.000 C 
ATOM     25  C   UNL     1      -3.915  13.959  24.447  0.00  0.00    +0.000 C 
ENDBRANCH  23  25
ENDBRANCH  22  23
ENDBRANCH  21  22
ENDBRANCH  15  21
ENDBRANCH  11  18
ENDBRANCH   1  13
BRANCH   7  26
ATOM     26  C   UNL     1       5.994   5.123  19.287  0.00  0.00    +0.000 C 
BRANCH  26  27
ATOM     27  C   UNL     1       7.094   5.283  18.248  0.00  0.00    +0.000 C 
BRANCH  27  28
ATOM     28  N   UNL     1       6.608   6.085  17.076  0.00  0.00    +0.000 NA
BRANCH  28  29
ATOM     29  C   UNL     1       6.921   7.529  17.217  0.00  0.00    +0.000 C 
BRANCH  29  30
ATOM     30  C   UNL     1       8.161   7.909  18.048  0.00  0.00    +0.000 C 
ATOM     31  C   UNL     1       8.404   9.409  18.148  0.00  0.00    +0.000 C 
ENDBRANCH  29  30
ENDBRANCH  28  29
BRANCH  28  32
ATOM     32  C   UNL     1       7.152   5.558  15.813  0.00  0.00    +0.000 C 
BRANCH  32  33
ATOM     33  C   UNL     1       6.078   5.013  14.918  0.00  0.00    +0.000 C 
ATOM     34  C   UNL     1       6.410   4.059  13.796  0.00  0.00    +0.000 C 
ATOM     35  C   UNL     1       5.671   3.562  15.005  0.00  0.00    +0.000 C 
ENDBRANCH  32  33
ENDBRANCH  28  32
ENDBRANCH  27  28
ENDBRANCH  26  27
ENDBRANCH   7  26
TORSDOF 13
ENDMDL
MODEL 5
REMARK VINA RESULT:      -7.4      0.897      1.112
REMARK  Name = 
REMARK  15 active torsions:
REMARK  status: ('A' for Active; 'I' for Inactive)
REMARK    1  A    between atoms: C_1  and  C_2
REMARK    2  A    between atoms: C_2  and  C_3
REMARK    3  A    between atoms: C_3  and  C_4
REMARK    4  A    between atoms: C_4  and  C_5
REMARK    5  A    between atoms: C_5  and  C_6
REMARK    6  A    between atoms: C_9  and  C_10
REMARK    7  A    between atoms: N_12  and  C_13
REMARK    8  A    between atoms: C_19  and  C_20
REMARK    9  A    between atoms: C_20  and  C_21
REMARK   10  A    between atoms: C_21  and  N_22
REMARK   11  A    between atoms: N_22  and  C_23
REMARK   12  A    between atoms: N_22  and  C_26
REMARK   13  A    between atoms: C_23  and  C_24
REMARK   14  A    between atoms: C_24  and  C_25
REMARK   15  A    between atoms: C_26  and  C_27
REMARK                            x       y       z     vdW  Elec       q    Type
REMARK                         _______ _______ _______ _____ _____    ______ ____
ROOT
ATOM      1  C   UNL     1       1.569   8.558  19.844  0.00  0.00    +0.000 A 
ATOM      2  C   UNL     1       1.649   8.386  21.230  0.00  0.00    +0.000 A 
ATOM      3  C   UNL     1       0.896   9.165  22.127  0.00  0.00    +0.000 A 
ATOM      4  C   UNL     1       0.033  10.123  21.588  0.00  0.00    +0.000 A 
ATOM      5  N   UNL     1      -0.831  11.018  22.175  0.00  0.00    +0.000 N 
ATOM      6  C   UNL     1      -1.549  11.702  21.212  0.00  0.00    +0.000 A 
ATOM      7  C   UNL     1      -1.137  11.248  19.977  0.00  0.00    +0.000 A 
ATOM      8  C   UNL     1      -0.088  10.298  20.219  0.00  0.00    +0.000 A 
ATOM      9  C   UNL     1       0.713   9.534  19.342  0.00  0.00    +0.000 A 
ATOM     10  H   UNL     1      -0.950  11.129  23.171  0.00  0.00    +0.000 HD
ENDROOT
BRANCH   1  13
ATOM     11  C   UNL     1       2.744   6.500  19.109  0.00  0.00    +0.000 C 
ATOM     12  O   UNL     1       2.546   5.817  20.114  0.00  0.00    +0.000 OA
ATOM     13  N   UNL     1       2.298   7.790  18.901  0.00  0.00    +0.000 N 
ATOM     14  H   UNL     1       2.348   8.156  17.960  0.00  0.00    +0.000 HD
BRANCH  11  18
ATOM     15  C   UNL     1       4.936   4.454  16.037  0.00  0.00    +0.000 A 
ATOM     16  C   UNL     1       4.034   3.781  16.869  0.00  0.00    +0.000 A 
ATOM     17  C   UNL     1       3.307   4.477  17.831  0.00  0.00    +0.000 A 
ATOM     18  C   UNL     1       3.477   5.857  17.989  0.00  0.00    +0.000 A 
ATOM     19  C   UNL     1       4.374   6.543  17.164  0.00  0.00    +0.000 A 
ATOM     20  C   UNL     1       5.099   5.839  16.192  0.00  0.00    +0.000 A 
BRANCH  15  21
ATOM     21  C   UNL     1       5.740   3.681  15.018  0.00  0.00    +0.000 C 
BRANCH  21  22
ATOM     22  C   UNL     1       6.780   4.560  14.317  0.00  0.00    +0.000 C 
BRANCH  22  23
ATOM     23  C   UNL     1       6.664   4.465  12.795  0.00  0.00    +0.000 C 
BRANCH  23  25
ATOM     24  C   UNL     1       4.601   3.440  11.776  0.00  0.00    +0.000 C 
ATOM     25  C   UNL     1       5.966   3.169  12.382  0.00  0.00    +0.000 C 
ENDBRANCH  23  25
ENDBRANCH  22  23
ENDBRANCH  21  22
ENDBRANCH  15  21
ENDBRANCH  11  18
ENDBRANCH   1  13
BRANCH   7  26
ATOM     26  C   UNL     1      -1.594  11.472  18.571  0.00  0.00    +0.000 C 
BRANCH  26  27
ATOM     27  C   UNL     1      -2.942  12.088  18.230  0.00  0.00    +0.000 C 
BRANCH  27  28
ATOM     28  N   UNL     1      -3.668  11.254  17.214  0.00  0.00    +0.000 NA
BRANCH  28  29
ATOM     29  C   UNL     1      -5.017  11.795  16.907  0.00  0.00    +0.000 C 
BRANCH  29  30
ATOM     30  C   UNL     1      -6.004  11.947  18.080  0.00  0.00    +0.000 C 
ATOM     31  C   UNL     1      -6.522  10.625  18.630  0.00  0.00    +0.000 C 
ENDBRANCH  29  30
ENDBRANCH  28  29
BRANCH  28  32
ATOM     32  C   UNL     1      -2.875  11.112  15.982  0.00  0.00    +0.000 C 
BRANCH  32  33
ATOM     33  C   UNL     1      -3.263   9.894  15.197  0.00  0.00    +0.000 C 
ATOM     34  C   UNL     1      -4.083  10.010  13.934  0.00  0.00    +0.000 C 
ATOM     35  C   UNL     1      -2.636   9.618  13.851  0.00  0.00    +0.000 C 
ENDBRANCH  32  33
ENDBRANCH  28  32
ENDBRANCH  27  28
ENDBRANCH  26  27
ENDBRANCH   7  26
TORSDOF 13
ENDMDL
MODEL 6
REMARK VINA RESULT:      -7.4      3.550     10.709
REMARK  Name = 
REMARK  15 active torsions:
REMARK  status: ('A' for Active; 'I' for Inactive)
REMARK    1  A    between atoms: C_1  and  C_2
REMARK    2  A    between atoms: C_2  and  C_3
REMARK    3  A    between atoms: C_3  and  C_4
REMARK    4  A    between atoms: C_4  and  C_5
REMARK    5  A    between atoms: C_5  and  C_6
REMARK    6  A    between atoms: C_9  and  C_10
REMARK    7  A    between atoms: N_12  and  C_13
REMARK    8  A    between atoms: C_19  and  C_20
REMARK    9  A    between atoms: C_20  and  C_21
REMARK   10  A    between atoms: C_21  and  N_22
REMARK   11  A    between atoms: N_22  and  C_23
REMARK   12  A    between atoms: N_22  and  C_26
REMARK   13  A    between atoms: C_23  and  C_24
REMARK   14  A    between atoms: C_24  and  C_25
REMARK   15  A    between atoms: C_26  and  C_27
REMARK                            x       y       z     vdW  Elec       q    Type
REMARK                         _______ _______ _______ _____ _____    ______ ____
ROOT
ATOM      1  C   UNL     1       1.713   5.685  20.556  0.00  0.00    +0.000 A 
ATOM      2  C   UNL     1       0.990   4.489  20.497  0.00  0.00    +0.000 A 
ATOM      3  C   UNL     1       1.543   3.302  19.986  0.00  0.00    +0.000 A 
ATOM      4  C   UNL     1       2.869   3.341  19.547  0.00  0.00    +0.000 A 
ATOM      5  N   UNL     1       3.692   2.374  19.017  0.00  0.00    +0.000 N 
ATOM      6  C   UNL     1       4.965   2.876  18.821  0.00  0.00    +0.000 A 
ATOM      7  C   UNL     1       4.965   4.194  19.223  0.00  0.00    +0.000 A 
ATOM      8  C   UNL     1       3.620   4.502  19.617  0.00  0.00    +0.000 A 
ATOM      9  C   UNL     1       3.026   5.693  20.093  0.00  0.00    +0.000 A 
ATOM     10  H   UNL     1       3.413   1.422  18.836  0.00  0.00    +0.000 HD
ENDROOT
BRANCH   1  13
ATOM     11  C   UNL     1       1.320   8.132  20.456  0.00  0.00    +0.000 C 
ATOM     12  O   UNL     1       1.838   8.349  19.361  0.00  0.00    +0.000 OA
ATOM     13  N   UNL     1       1.204   6.902  21.073  0.00  0.00    +0.000 N 
ATOM     14  H   UNL     1       0.576   6.834  21.862  0.00  0.00    +0.000 HD
BRANCH  11  18
ATOM     15  C   UNL     1      -0.675  11.333  22.507  0.00  0.00    +0.000 A 
ATOM     16  C   UNL     1      -0.596  10.047  23.052  0.00  0.00    +0.000 A 
ATOM     17  C   UNL     1       0.091   9.038  22.384  0.00  0.00    +0.000 A 
ATOM     18  C   UNL     1       0.702   9.290  21.150  0.00  0.00    +0.000 A 
ATOM     19  C   UNL     1       0.632  10.572  20.593  0.00  0.00    +0.000 A 
ATOM     20  C   UNL     1      -0.056  11.587  21.273  0.00  0.00    +0.000 A 
BRANCH  15  21
ATOM     21  C   UNL     1      -1.450  12.411  23.228  0.00  0.00    +0.000 C 
BRANCH  21  22
ATOM     22  C   UNL     1      -0.865  13.804  22.985  0.00  0.00    +0.000 C 
BRANCH  22  23
ATOM     23  C   UNL     1      -1.351  14.810  24.029  0.00  0.00    +0.000 C 
BRANCH  23  25
ATOM     24  C   UNL     1      -1.263  17.313  23.764  0.00  0.00    +0.000 C 
ATOM     25  C   UNL     1      -1.973  16.034  23.358  0.00  0.00    +0.000 C 
ENDBRANCH  23  25
ENDBRANCH  22  23
ENDBRANCH  21  22
ENDBRANCH  15  21
ENDBRANCH  11  18
ENDBRANCH   1  13
BRANCH   7  26
ATOM     26  C   UNL     1       6.022   5.239  19.393  0.00  0.00    +0.000 C 
BRANCH  26  27
ATOM     27  C   UNL     1       7.183   5.405  18.424  0.00  0.00    +0.000 C 
BRANCH  27  28
ATOM     28  N   UNL     1       6.744   6.131  17.185  0.00  0.00    +0.000 NA
BRANCH  28  29
ATOM     29  C   UNL     1       7.113   7.569  17.220  0.00  0.00    +0.000 C 
BRANCH  29  30
ATOM     30  C   UNL     1       8.197   8.000  18.225  0.00  0.00    +0.000 C 
ATOM     31  C   UNL     1       8.506   9.492  18.202  0.00  0.00    +0.000 C 
ENDBRANCH  29  30
ENDBRANCH  28  29
BRANCH  28  32
ATOM     32  C   UNL     1       7.283   5.488  15.976  0.00  0.00    +0.000 C 
BRANCH  32  33
ATOM     33  C   UNL     1       6.547   4.226  15.630  0.00  0.00    +0.000 C 
ATOM     34  C   UNL     1       5.051   4.229  15.425  0.00  0.00    +0.000 C 
ATOM     35  C   UNL     1       5.966   4.032  14.251  0.00  0.00    +0.000 C 
ENDBRANCH  32  33
ENDBRANCH  28  32
ENDBRANCH  27  28
ENDBRANCH  26  27
ENDBRANCH   7  26
TORSDOF 13
ENDMDL
MODEL 7
REMARK VINA RESULT:      -7.4      1.613      2.547
REMARK  Name = 
REMARK  15 active torsions:
REMARK  status: ('A' for Active; 'I' for Inactive)
REMARK    1  A    between atoms: C_1  and  C_2
REMARK    2  A    between atoms: C_2  and  C_3
REMARK    3  A    between atoms: C_3  and  C_4
REMARK    4  A    between atoms: C_4  and  C_5
REMARK    5  A    between atoms: C_5  and  C_6
REMARK    6  A    between atoms: C_9  and  C_10
REMARK    7  A    between atoms: N_12  and  C_13
REMARK    8  A    between atoms: C_19  and  C_20
REMARK    9  A    between atoms: C_20  and  C_21
REMARK   10  A    between atoms: C_21  and  N_22
REMARK   11  A    between atoms: N_22  and  C_23
REMARK   12  A    between atoms: N_22  and  C_26
REMARK   13  A    between atoms: C_23  and  C_24
REMARK   14  A    between atoms: C_24  and  C_25
REMARK   15  A    between atoms: C_26  and  C_27
REMARK                            x       y       z     vdW  Elec       q    Type
REMARK                         _______ _______ _______ _____ _____    ______ ____
ROOT
ATOM      1  C   UNL     1       1.253   8.729  20.906  0.00  0.00    +0.000 A 
ATOM      2  C   UNL     1       1.070   8.568  22.283  0.00  0.00    +0.000 A 
ATOM      3  C   UNL     1       0.234   9.413  23.033  0.00  0.00    +0.000 A 
ATOM      4  C   UNL     1      -0.440  10.429  22.351  0.00  0.00    +0.000 A 
ATOM      5  N   UNL     1      -1.321  11.396  22.777  0.00  0.00    +0.000 N 
ATOM      6  C   UNL     1      -1.799  12.124  21.703  0.00  0.00    +0.000 A 
ATOM      7  C   UNL     1      -1.211  11.624  20.561  0.00  0.00    +0.000 A 
ATOM      8  C   UNL     1      -0.301  10.598  20.984  0.00  0.00    +0.000 A 
ATOM      9  C   UNL     1       0.580   9.763  20.261  0.00  0.00    +0.000 A 
ATOM     10  H   UNL     1      -1.607  11.528  23.736  0.00  0.00    +0.000 HD
ENDROOT
BRANCH   1  13
ATOM     11  C   UNL     1       2.039   6.515  20.108  0.00  0.00    +0.000 C 
ATOM     12  O   UNL     1       1.271   5.810  20.764  0.00  0.00    +0.000 OA
ATOM     13  N   UNL     1       2.075   7.896  20.106  0.00  0.00    +0.000 N 
ATOM     14  H   UNL     1       2.603   8.348  19.372  0.00  0.00    +0.000 HD
BRANCH  11  18
ATOM     15  C   UNL     1       4.587   4.595  17.236  0.00  0.00    +0.000 A 
ATOM     16  C   UNL     1       4.224   5.941  17.113  0.00  0.00    +0.000 A 
ATOM     17  C   UNL     1       3.429   6.548  18.080  0.00  0.00    +0.000 A 
ATOM     18  C   UNL     1       2.969   5.820  19.183  0.00  0.00    +0.000 A 
ATOM     19  C   UNL     1       3.325   4.473  19.320  0.00  0.00    +0.000 A 
ATOM     20  C   UNL     1       4.131   3.867  18.347  0.00  0.00    +0.000 A 
BRANCH  15  21
ATOM     21  C   UNL     1       5.425   3.940  16.163  0.00  0.00    +0.000 C 
BRANCH  21  22
ATOM     22  C   UNL     1       6.803   4.592  16.028  0.00  0.00    +0.000 C 
BRANCH  22  23
ATOM     23  C   UNL     1       7.585   4.535  17.341  0.00  0.00    +0.000 C 
BRANCH  23  25
ATOM     24  C   UNL     1       7.733   5.773  19.530  0.00  0.00    +0.000 C 
ATOM     25  C   UNL     1       7.605   5.903  18.023  0.00  0.00    +0.000 C 
ENDBRANCH  23  25
ENDBRANCH  22  23
ENDBRANCH  21  22
ENDBRANCH  15  21
ENDBRANCH  11  18
ENDBRANCH   1  13
BRANCH   7  26
ATOM     26  C   UNL     1      -1.391  11.867  19.096  0.00  0.00    +0.000 C 
BRANCH  26  27
ATOM     27  C   UNL     1      -2.677  12.421  18.503  0.00  0.00    +0.000 C 
BRANCH  27  28
ATOM     28  N   UNL     1      -3.837  11.517  18.805  0.00  0.00    +0.000 NA
BRANCH  28  29
ATOM     29  C   UNL     1      -4.977  12.251  19.410  0.00  0.00    +0.000 C 
BRANCH  29  30
ATOM     30  C   UNL     1      -6.266  11.455  19.689  0.00  0.00    +0.000 C 
ATOM     31  C   UNL     1      -7.532  12.301  19.674  0.00  0.00    +0.000 C 
ENDBRANCH  29  30
ENDBRANCH  28  29
BRANCH  28  32
ATOM     32  C   UNL     1      -4.270  10.791  17.599  0.00  0.00    +0.000 C 
BRANCH  32  33
ATOM     33  C   UNL     1      -3.328  10.994  16.448  0.00  0.00    +0.000 C 
ATOM     34  C   UNL     1      -2.583   9.832  15.838  0.00  0.00    +0.000 C 
ATOM     35  C   UNL     1      -3.687  10.498  15.068  0.00  0.00    +0.000 C 
ENDBRANCH  32  33
ENDBRANCH  28  32
ENDBRANCH  27  28
ENDBRANCH  26  27
ENDBRANCH   7  26
TORSDOF 13
ENDMDL
MODEL 8
REMARK VINA RESULT:      -7.4      3.260     10.625
REMARK  Name = 
REMARK  15 active torsions:
REMARK  status: ('A' for Active; 'I' for Inactive)
REMARK    1  A    between atoms: C_1  and  C_2
REMARK    2  A    between atoms: C_2  and  C_3
REMARK    3  A    between atoms: C_3  and  C_4
REMARK    4  A    between atoms: C_4  and  C_5
REMARK    5  A    between atoms: C_5  and  C_6
REMARK    6  A    between atoms: C_9  and  C_10
REMARK    7  A    between atoms: N_12  and  C_13
REMARK    8  A    between atoms: C_19  and  C_20
REMARK    9  A    between atoms: C_20  and  C_21
REMARK   10  A    between atoms: C_21  and  N_22
REMARK   11  A    between atoms: N_22  and  C_23
REMARK   12  A    between atoms: N_22  and  C_26
REMARK   13  A    between atoms: C_23  and  C_24
REMARK   14  A    between atoms: C_24  and  C_25
REMARK   15  A    between atoms: C_26  and  C_27
REMARK                            x       y       z     vdW  Elec       q    Type
REMARK                         _______ _______ _______ _____ _____    ______ ____
ROOT
ATOM      1  C   UNL     1       1.645   6.208  20.442  0.00  0.00    +0.000 A 
ATOM      2  C   UNL     1       1.497   4.911  20.944  0.00  0.00    +0.000 A 
ATOM      3  C   UNL     1       2.123   3.801  20.351  0.00  0.00    +0.000 A 
ATOM      4  C   UNL     1       2.931   4.032  19.235  0.00  0.00    +0.000 A 
ATOM      5  N   UNL     1       3.677   3.186  18.447  0.00  0.00    +0.000 N 
ATOM      6  C   UNL     1       4.389   3.903  17.504  0.00  0.00    +0.000 A 
ATOM      7  C   UNL     1       4.094   5.238  17.679  0.00  0.00    +0.000 A 
ATOM      8  C   UNL     1       3.119   5.308  18.730  0.00  0.00    +0.000 A 
ATOM      9  C   UNL     1       2.442   6.400  19.317  0.00  0.00    +0.000 A 
ATOM     10  H   UNL     1       3.725   2.185  18.569  0.00  0.00    +0.000 HD
ENDROOT
BRANCH   1  13
ATOM     11  C   UNL     1       1.027   8.611  20.429  0.00  0.00    +0.000 C 
ATOM     12  O   UNL     1       1.486   8.904  19.326  0.00  0.00    +0.000 OA
ATOM     13  N   UNL     1       1.044   7.359  21.012  0.00  0.00    +0.000 N 
ATOM     14  H   UNL     1       0.452   7.211  21.818  0.00  0.00    +0.000 HD
BRANCH  11  18
ATOM     15  C   UNL     1      -0.771  11.868  22.572  0.00  0.00    +0.000 A 
ATOM     16  C   UNL     1      -0.114  12.064  21.352  0.00  0.00    +0.000 A 
ATOM     17  C   UNL     1       0.426  10.984  20.659  0.00  0.00    +0.000 A 
ATOM     18  C   UNL     1       0.331   9.688  21.178  0.00  0.00    +0.000 A 
ATOM     19  C   UNL     1      -0.324   9.476  22.397  0.00  0.00    +0.000 A 
ATOM     20  C   UNL     1      -0.871  10.566  23.088  0.00  0.00    +0.000 A 
BRANCH  15  21
ATOM     21  C   UNL     1      -1.324  13.053  23.328  0.00  0.00    +0.000 C 
BRANCH  21  22
ATOM     22  C   UNL     1      -2.271  13.895  22.469  0.00  0.00    +0.000 C 
BRANCH  22  23
ATOM     23  C   UNL     1      -3.719  13.778  22.946  0.00  0.00    +0.000 C 
BRANCH  23  25
ATOM     24  C   UNL     1      -4.717  12.277  24.707  0.00  0.00    +0.000 C 
ATOM     25  C   UNL     1      -3.776  13.438  24.436  0.00  0.00    +0.000 C 
ENDBRANCH  23  25
ENDBRANCH  22  23
ENDBRANCH  21  22
ENDBRANCH  15  21
ENDBRANCH  11  18
ENDBRANCH   1  13
BRANCH   7  26
ATOM     26  C   UNL     1       4.614   6.513  17.095  0.00  0.00    +0.000 C 
BRANCH  26  27
ATOM     27  C   UNL     1       5.396   6.565  15.791  0.00  0.00    +0.000 C 
BRANCH  27  28
ATOM     28  N   UNL     1       6.838   6.213  16.020  0.00  0.00    +0.000 NA
BRANCH  28  29
ATOM     29  C   UNL     1       7.146   6.021  17.460  0.00  0.00    +0.000 C 
BRANCH  29  30
ATOM     30  C   UNL     1       8.022   7.085  18.147  0.00  0.00    +0.000 C 
ATOM     31  C   UNL     1       7.788   8.502  17.640  0.00  0.00    +0.000 C 
ENDBRANCH  29  30
ENDBRANCH  28  29
BRANCH  28  32
ATOM     32  C   UNL     1       7.221   5.021  15.245  0.00  0.00    +0.000 C 
BRANCH  32  33
ATOM     33  C   UNL     1       6.380   4.852  14.014  0.00  0.00    +0.000 C 
ATOM     34  C   UNL     1       6.809   3.931  12.898  0.00  0.00    +0.000 C 
ATOM     35  C   UNL     1       5.640   3.560  13.764  0.00  0.00    +0.000 C 
ENDBRANCH  32  33
ENDBRANCH  28  32
ENDBRANCH  27  28
ENDBRANCH  26  27
ENDBRANCH   7  26
TORSDOF 13
ENDMDL
MODEL 9
REMARK VINA RESULT:      -7.3      3.272     10.648
REMARK  Name = 
REMARK  15 active torsions:
REMARK  status: ('A' for Active; 'I' for Inactive)
REMARK    1  A    between atoms: C_1  and  C_2
REMARK    2  A    between atoms: C_2  and  C_3
REMARK    3  A    between atoms: C_3  and  C_4
REMARK    4  A    between atoms: C_4  and  C_5
REMARK    5  A    between atoms: C_5  and  C_6
REMARK    6  A    between atoms: C_9  and  C_10
REMARK    7  A    between atoms: N_12  and  C_13
REMARK    8  A    between atoms: C_19  and  C_20
REMARK    9  A    between atoms: C_20  and  C_21
REMARK   10  A    between atoms: C_21  and  N_22
REMARK   11  A    between atoms: N_22  and  C_23
REMARK   12  A    between atoms: N_22  and  C_26
REMARK   13  A    between atoms: C_23  and  C_24
REMARK   14  A    between atoms: C_24  and  C_25
REMARK   15  A    between atoms: C_26  and  C_27
REMARK                            x       y       z     vdW  Elec       q    Type
REMARK                         _______ _______ _______ _____ _____    ______ ____
ROOT
ATOM      1  C   UNL     1       1.730   4.931  20.700  0.00  0.00    +0.000 A 
ATOM      2  C   UNL     1       1.937   3.880  21.600  0.00  0.00    +0.000 A 
ATOM      3  C   UNL     1       2.562   2.679  21.219  0.00  0.00    +0.000 A 
ATOM      4  C   UNL     1       2.998   2.566  19.897  0.00  0.00    +0.000 A 
ATOM      5  N   UNL     1       3.642   1.553  19.224  0.00  0.00    +0.000 N 
ATOM      6  C   UNL     1       3.953   1.948  17.936  0.00  0.00    +0.000 A 
ATOM      7  C   UNL     1       3.495   3.238  17.769  0.00  0.00    +0.000 A 
ATOM      8  C   UNL     1       2.832   3.599  18.989  0.00  0.00    +0.000 A 
ATOM      9  C   UNL     1       2.161   4.777  19.385  0.00  0.00    +0.000 A 
ATOM     10  H   UNL     1       3.887   0.662  19.629  0.00  0.00    +0.000 HD
ENDROOT
BRANCH   1  13
ATOM     11  C   UNL     1       1.531   7.401  20.588  0.00  0.00    +0.000 C 
ATOM     12  O   UNL     1       2.455   7.616  19.804  0.00  0.00    +0.000 OA
ATOM     13  N   UNL     1       1.117   6.163  21.039  0.00  0.00    +0.000 N 
ATOM     14  H   UNL     1       0.223   6.112  21.508  0.00  0.00    +0.000 HD
BRANCH  11  18
ATOM     15  C   UNL     1      -0.576  10.950  21.772  0.00  0.00    +0.000 A 
ATOM     16  C   UNL     1      -0.234  10.709  20.436  0.00  0.00    +0.000 A 
ATOM     17  C   UNL     1       0.415   9.531  20.075  0.00  0.00    +0.000 A 
ATOM     18  C   UNL     1       0.745   8.576  21.043  0.00  0.00    +0.000 A 
ATOM     19  C   UNL     1       0.408   8.803  22.383  0.00  0.00    +0.000 A 
ATOM     20  C   UNL     1      -0.250   9.987  22.740  0.00  0.00    +0.000 A 
BRANCH  15  21
ATOM     21  C   UNL     1      -1.251  12.245  22.154  0.00  0.00    +0.000 C 
BRANCH  21  22
ATOM     22  C   UNL     1      -0.274  13.424  22.169  0.00  0.00    +0.000 C 
BRANCH  22  23
ATOM     23  C   UNL     1      -0.970  14.729  22.557  0.00  0.00    +0.000 C 
BRANCH  23  25
ATOM     24  C   UNL     1      -2.602  14.801  24.475  0.00  0.00    +0.000 C 
ATOM     25  C   UNL     1      -1.137  14.827  24.074  0.00  0.00    +0.000 C 
ENDBRANCH  23  25
ENDBRANCH  22  23
ENDBRANCH  21  22
ENDBRANCH  15  21
ENDBRANCH  11  18
ENDBRANCH   1  13
BRANCH   7  26
ATOM     26  C   UNL     1       3.624   4.266  16.690  0.00  0.00    +0.000 C 
BRANCH  26  27
ATOM     27  C   UNL     1       4.688   5.352  16.709  0.00  0.00    +0.000 C 
BRANCH  27  28
ATOM     28  N   UNL     1       6.047   4.773  16.438  0.00  0.00    +0.000 NA
BRANCH  28  29
ATOM     29  C   UNL     1       6.066   3.940  15.209  0.00  0.00    +0.000 C 
BRANCH  29  30
ATOM     30  C   UNL     1       6.687   4.558  13.942  0.00  0.00    +0.000 C 
ATOM     31  C   UNL     1       6.473   3.732  12.681  0.00  0.00    +0.000 C 
ENDBRANCH  29  30
ENDBRANCH  28  29
BRANCH  28  32
ATOM     32  C   UNL     1       7.067   5.832  16.362  0.00  0.00    +0.000 C 
BRANCH  32  33
ATOM     33  C   UNL     1       6.945   6.818  17.486  0.00  0.00    +0.000 C 
ATOM     34  C   UNL     1       8.012   6.923  18.549  0.00  0.00    +0.000 C 
ATOM     35  C   UNL     1       7.846   8.028  17.545  0.00  0.00    +0.000 C 
ENDBRANCH  32  33
ENDBRANCH  28  32
ENDBRANCH  27  28
ENDBRANCH  26  27
ENDBRANCH   7  26
TORSDOF 13
ENDMDL
