MODEL 1
REMARK VINA RESULT:      -9.2      0.000      0.000
REMARK  Name = 
REMARK  4 active torsions:
REMARK  status: ('A' for Active; 'I' for Inactive)
REMARK    1  A    between atoms: C_2  and  C_3
REMARK    2  A    between atoms: C_6  and  N_7
REMARK    3  A    between atoms: C_10  and  C_11
REMARK    4  A    between atoms: C_16  and  C_17
REMARK                            x       y       z     vdW  Elec       q    Type
REMARK                         _______ _______ _______ _____ _____    ______ ____
ROOT
ATOM      1  N   UNL     1       0.707   9.709  20.979  0.00  0.00    +0.000 N 
ATOM      2  C   UNL     1      -0.360  10.492  20.592  0.00  0.00    +0.000 A 
ATOM      3  N   UNL     1      -0.888  10.419  19.398  0.00  0.00    +0.000 NA
ATOM      4  C   UNL     1      -1.901  11.246  18.996  0.00  0.00    +0.000 A 
ATOM      5  C   UNL     1      -2.437  12.168  19.814  0.00  0.00    +0.000 A 
ATOM      6  N   UNL     1      -1.937  12.292  21.093  0.00  0.00    +0.000 N 
ATOM      7  C   UNL     1      -2.191  13.191  22.112  0.00  0.00    +0.000 A 
ATOM      8  C   UNL     1      -1.259  12.880  23.085  0.00  0.00    +0.000 A 
ATOM      9  N   UNL     1      -0.464  11.815  22.709  0.00  0.00    +0.000 NA
ATOM     10  C   UNL     1      -0.899  11.500  21.507  0.00  0.00    +0.000 A 
ATOM     11  H   UNL     1       1.127   9.977  21.863  0.00  0.00    +0.000 HD
ENDROOT
BRANCH   1  15
ATOM     12  C   UNL     1       2.534   6.593  18.759  0.00  0.00    +0.000 A 
ATOM     13  C   UNL     1       2.212   7.822  18.187  0.00  0.00    +0.000 A 
ATOM     14  C   UNL     1       1.643   8.843  18.948  0.00  0.00    +0.000 A 
ATOM     15  C   UNL     1       1.301   8.643  20.285  0.00  0.00    +0.000 A 
ATOM     16  C   UNL     1       1.477   7.358  20.814  0.00  0.00    +0.000 A 
ATOM     17  C   UNL     1       2.101   6.339  20.068  0.00  0.00    +0.000 A 
ATOM     18 CL   UNL     1       2.277   4.812  20.873  0.00  0.00    +0.000 Cl
BRANCH  12  20
ATOM     19  O   UNL     1       2.553   4.683  17.444  0.00  0.00    +0.000 OA
ATOM     20  C   UNL     1       3.241   5.588  17.920  0.00  0.00    +0.000 C 
ATOM     21  N   UNL     1       4.645   5.648  17.686  0.00  0.00    +0.000 N 
ATOM     22  C   UNL     1       5.140   4.383  17.189  0.00  0.00    +0.000 C 
ATOM     23  C   UNL     1       6.634   4.192  16.991  0.00  0.00    +0.000 C 
ATOM     24  N   UNL     1       7.604   5.121  17.534  0.00  0.00    +0.000 NA
ATOM     25  C   UNL     1       7.115   6.488  17.703  0.00  0.00    +0.000 C 
ATOM     26  C   UNL     1       7.924   7.558  16.958  0.00  0.00    +0.000 C 
ATOM     27  C   UNL     1       8.117   7.395  18.427  0.00  0.00    +0.000 C 
ATOM     28  C   UNL     1       5.629   6.693  18.100  0.00  0.00    +0.000 C 
ATOM     29  H   UNL     1       8.404   5.112  16.897  0.00  0.00    +0.000 HD
ENDBRANCH  12  20
ENDBRANCH   1  15
BRANCH   7  30
ATOM     30  C   UNL     1      -3.190  14.287  22.131  0.00  0.00    +0.000 A 
ATOM     31  C   UNL     1      -3.009  15.670  21.935  0.00  0.00    +0.000 A 
ATOM     32  N   UNL     1      -4.136  16.365  22.104  0.00  0.00    +0.000 NA
ATOM     33  N   UNL     1      -5.045  15.422  22.402  0.00  0.00    +0.000 N 
ATOM     34  C   UNL     1      -4.534  14.154  22.393  0.00  0.00    +0.000 A 
ATOM     35  H   UNL     1      -5.992  15.721  22.614  0.00  0.00    +0.000 HD
ENDBRANCH   7  30
BRANCH   4  36
ATOM     36  C   UNL     1      -2.267  11.105  17.581  0.00  0.00    +0.000 C 
ATOM     37  C   UNL     1      -3.136   9.948  17.162  0.00  0.00    +0.000 C 
ATOM     38  C   UNL     1      -3.684  11.344  17.130  0.00  0.00    +0.000 C 
ENDBRANCH   4  36
TORSDOF 4
ENDMDL
MODEL 2
REMARK VINA RESULT:      -8.6      2.240      3.359
REMARK  Name = 
REMARK  4 active torsions:
REMARK  status: ('A' for Active; 'I' for Inactive)
REMARK    1  A    between atoms: C_2  and  C_3
REMARK    2  A    between atoms: C_6  and  N_7
REMARK    3  A    between atoms: C_10  and  C_11
REMARK    4  A    between atoms: C_16  and  C_17
REMARK                            x       y       z     vdW  Elec       q    Type
REMARK                         _______ _______ _______ _____ _____    ______ ____
ROOT
ATOM      1  N   UNL     1      -0.225  10.915  20.093  0.00  0.00    +0.000 N 
ATOM      2  C   UNL     1      -1.494  11.226  19.653  0.00  0.00    +0.000 A 
ATOM      3  N   UNL     1      -2.040  10.645  18.617  0.00  0.00    +0.000 NA
ATOM      4  C   UNL     1      -3.272  11.006  18.142  0.00  0.00    +0.000 A 
ATOM      5  C   UNL     1      -4.011  11.962  18.729  0.00  0.00    +0.000 A 
ATOM      6  N   UNL     1      -3.502  12.609  19.836  0.00  0.00    +0.000 N 
ATOM      7  C   UNL     1      -3.955  13.682  20.580  0.00  0.00    +0.000 A 
ATOM      8  C   UNL     1      -2.922  13.950  21.460  0.00  0.00    +0.000 A 
ATOM      9  N   UNL     1      -1.870  13.070  21.296  0.00  0.00    +0.000 NA
ATOM     10  C   UNL     1      -2.256  12.291  20.307  0.00  0.00    +0.000 A 
ATOM     11  H   UNL     1       0.145  11.548  20.795  0.00  0.00    +0.000 HD
ENDROOT
BRANCH   1  15
ATOM     12  C   UNL     1       2.347   7.876  18.633  0.00  0.00    +0.000 A 
ATOM     13  C   UNL     1       1.848   8.885  17.811  0.00  0.00    +0.000 A 
ATOM     14  C   UNL     1       1.032   9.894  18.324  0.00  0.00    +0.000 A 
ATOM     15  C   UNL     1       0.619   9.882  19.656  0.00  0.00    +0.000 A 
ATOM     16  C   UNL     1       0.989   8.781  20.440  0.00  0.00    +0.000 A 
ATOM     17  C   UNL     1       1.857   7.789  19.944  0.00  0.00    +0.000 A 
ATOM     18 CL   UNL     1       2.250   6.508  21.046  0.00  0.00    +0.000 Cl
BRANCH  12  20
ATOM     19  O   UNL     1       4.334   7.358  17.556  0.00  0.00    +0.000 OA
ATOM     20  C   UNL     1       3.302   6.897  18.047  0.00  0.00    +0.000 C 
ATOM     21  N   UNL     1       3.039   5.497  18.033  0.00  0.00    +0.000 N 
ATOM     22  C   UNL     1       3.899   4.821  17.086  0.00  0.00    +0.000 C 
ATOM     23  C   UNL     1       3.698   3.338  16.824  0.00  0.00    +0.000 C 
ATOM     24  N   UNL     1       2.514   2.634  17.270  0.00  0.00    +0.000 NA
ATOM     25  C   UNL     1       1.874   3.201  18.455  0.00  0.00    +0.000 C 
ATOM     26  C   UNL     1       1.735   2.233  19.638  0.00  0.00    +0.000 C 
ATOM     27  C   UNL     1       0.540   2.525  18.796  0.00  0.00    +0.000 C 
ATOM     28  C   UNL     1       1.901   4.741  18.639  0.00  0.00    +0.000 C 
ATOM     29  H   UNL     1       2.800   1.670  17.455  0.00  0.00    +0.000 HD
ENDBRANCH  12  20
ENDBRANCH   1  15
BRANCH   7  30
ATOM     30  C   UNL     1      -5.229  14.424  20.426  0.00  0.00    +0.000 A 
ATOM     31  C   UNL     1      -6.554  13.942  20.428  0.00  0.00    +0.000 A 
ATOM     32  N   UNL     1      -7.449  14.902  20.183  0.00  0.00    +0.000 NA
ATOM     33  N   UNL     1      -6.696  16.004  20.032  0.00  0.00    +0.000 N 
ATOM     34  C   UNL     1      -5.359  15.776  20.208  0.00  0.00    +0.000 A 
ATOM     35  H   UNL     1      -7.163  16.874  19.797  0.00  0.00    +0.000 HD
ENDBRANCH   7  30
BRANCH   4  36
ATOM     36  C   UNL     1      -3.654  10.335  16.893  0.00  0.00    +0.000 C 
ATOM     37  C   UNL     1      -3.314  10.988  15.578  0.00  0.00    +0.000 C 
ATOM     38  C   UNL     1      -2.604   9.734  15.996  0.00  0.00    +0.000 C 
ENDBRANCH   4  36
TORSDOF 4
ENDMDL
MODEL 3
REMARK VINA RESULT:      -8.1      1.246      1.616
REMARK  Name = 
REMARK  4 active torsions:
REMARK  status: ('A' for Active; 'I' for Inactive)
REMARK    1  A    between atoms: C_2  and  C_3
REMARK    2  A    between atoms: C_6  and  N_7
REMARK    3  A    between atoms: C_10  and  C_11
REMARK    4  A    between atoms: C_16  and  C_17
REMARK                            x       y       z     vdW  Elec       q    Type
REMARK                         _______ _______ _______ _____ _____    ______ ____
ROOT
ATOM      1  N   UNL     1       0.475  10.270  21.271  0.00  0.00    +0.000 N 
ATOM      2  C   UNL     1      -0.596  11.054  20.898  0.00  0.00    +0.000 A 
ATOM      3  N   UNL     1      -1.193  10.924  19.743  0.00  0.00    +0.000 NA
ATOM      4  C   UNL     1      -2.211  11.750  19.349  0.00  0.00    +0.000 A 
ATOM      5  C   UNL     1      -2.679  12.732  20.139  0.00  0.00    +0.000 A 
ATOM      6  N   UNL     1      -2.103  12.919  21.378  0.00  0.00    +0.000 N 
ATOM      7  C   UNL     1      -2.279  13.883  22.353  0.00  0.00    +0.000 A 
ATOM      8  C   UNL     1      -1.298  13.608  23.289  0.00  0.00    +0.000 A 
ATOM      9  N   UNL     1      -0.549  12.503  22.934  0.00  0.00    +0.000 NA
ATOM     10  C   UNL     1      -1.059  12.129  21.779  0.00  0.00    +0.000 A 
ATOM     11  H   UNL     1       0.952  10.580  22.112  0.00  0.00    +0.000 HD
ENDROOT
BRANCH   1  15
ATOM     12  C   UNL     1       2.026   6.796  19.398  0.00  0.00    +0.000 A 
ATOM     13  C   UNL     1       1.597   6.796  20.723  0.00  0.00    +0.000 A 
ATOM     14  C   UNL     1       1.057   7.944  21.306  0.00  0.00    +0.000 A 
ATOM     15  C   UNL     1       1.006   9.151  20.610  0.00  0.00    +0.000 A 
ATOM     16  C   UNL     1       1.584   9.190  19.335  0.00  0.00    +0.000 A 
ATOM     17  C   UNL     1       2.080   8.023  18.720  0.00  0.00    +0.000 A 
ATOM     18 CL   UNL     1       2.734   8.227  17.126  0.00  0.00    +0.000 Cl
BRANCH  12  20
ATOM     19  O   UNL     1       1.625   4.647  18.626  0.00  0.00    +0.000 OA
ATOM     20  C   UNL     1       2.485   5.511  18.805  0.00  0.00    +0.000 C 
ATOM     21  N   UNL     1       3.849   5.274  18.475  0.00  0.00    +0.000 N 
ATOM     22  C   UNL     1       4.098   3.860  18.293  0.00  0.00    +0.000 C 
ATOM     23  C   UNL     1       5.519   3.377  18.056  0.00  0.00    +0.000 C 
ATOM     24  N   UNL     1       6.666   4.233  18.276  0.00  0.00    +0.000 NA
ATOM     25  C   UNL     1       6.404   5.662  18.115  0.00  0.00    +0.000 C 
ATOM     26  C   UNL     1       7.280   6.363  17.067  0.00  0.00    +0.000 C 
ATOM     27  C   UNL     1       7.600   6.536  18.512  0.00  0.00    +0.000 C 
ATOM     28  C   UNL     1       5.015   6.206  18.538  0.00  0.00    +0.000 C 
ATOM     29  H   UNL     1       7.385   3.932  17.614  0.00  0.00    +0.000 HD
ENDBRANCH  12  20
ENDBRANCH   1  15
BRANCH   7  30
ATOM     30  C   UNL     1      -3.252  15.002  22.362  0.00  0.00    +0.000 A 
ATOM     31  C   UNL     1      -4.527  15.077  22.956  0.00  0.00    +0.000 A 
ATOM     32  N   UNL     1      -5.152  16.226  22.688  0.00  0.00    +0.000 NA
ATOM     33  N   UNL     1      -4.270  16.893  21.926  0.00  0.00    +0.000 N 
ATOM     34  C   UNL     1      -3.097  16.216  21.734  0.00  0.00    +0.000 A 
ATOM     35  H   UNL     1      -4.543  17.800  21.561  0.00  0.00    +0.000 HD
ENDBRANCH   7  30
BRANCH   4  36
ATOM     36  C   UNL     1      -2.661  11.534  17.968  0.00  0.00    +0.000 C 
ATOM     37  C   UNL     1      -3.300  10.219  17.605  0.00  0.00    +0.000 C 
ATOM     38  C   UNL     1      -4.130  11.468  17.645  0.00  0.00    +0.000 C 
ENDBRANCH   4  36
TORSDOF 4
ENDMDL
MODEL 4
REMARK VINA RESULT:      -8.1      1.750      2.208
REMARK  Name = 
REMARK  4 active torsions:
REMARK  status: ('A' for Active; 'I' for Inactive)
REMARK    1  A    between atoms: C_2  and  C_3
REMARK    2  A    between atoms: C_6  and  N_7
REMARK    3  A    between atoms: C_10  and  C_11
REMARK    4  A    between atoms: C_16  and  C_17
REMARK                            x       y       z     vdW  Elec       q    Type
REMARK                         _______ _______ _______ _____ _____    ______ ____
ROOT
ATOM      1  N   UNL     1       0.616   9.208  21.273  0.00  0.00    +0.000 N 
ATOM      2  C   UNL     1       0.375  10.527  20.951  0.00  0.00    +0.000 A 
ATOM      3  N   UNL     1       0.862  11.088  19.875  0.00  0.00    +0.000 NA
ATOM      4  C   UNL     1       0.677  12.415  19.596  0.00  0.00    +0.000 A 
ATOM      5  C   UNL     1      -0.041  13.220  20.397  0.00  0.00    +0.000 A 
ATOM      6  N   UNL     1      -0.595  12.692  21.545  0.00  0.00    +0.000 N 
ATOM      7  C   UNL     1      -1.276  13.266  22.602  0.00  0.00    +0.000 A 
ATOM      8  C   UNL     1      -1.430  12.235  23.512  0.00  0.00    +0.000 A 
ATOM      9  N   UNL     1      -0.890  11.054  23.040  0.00  0.00    +0.000 NA
ATOM     10  C   UNL     1      -0.394  11.376  21.864  0.00  0.00    +0.000 A 
ATOM     11  H   UNL     1       0.326   8.943  22.209  0.00  0.00    +0.000 HD
ENDROOT
BRANCH   1  15
ATOM     12  C   UNL     1       2.558   6.352  18.813  0.00  0.00    +0.000 A 
ATOM     13  C   UNL     1       2.175   7.604  18.337  0.00  0.00    +0.000 A 
ATOM     14  C   UNL     1       1.569   8.540  19.177  0.00  0.00    +0.000 A 
ATOM     15  C   UNL     1       1.250   8.225  20.497  0.00  0.00    +0.000 A 
ATOM     16  C   UNL     1       1.489   6.914  20.927  0.00  0.00    +0.000 A 
ATOM     17  C   UNL     1       2.149   5.982  20.103  0.00  0.00    +0.000 A 
ATOM     18 CL   UNL     1       2.402   4.409  20.790  0.00  0.00    +0.000 Cl
BRANCH  12  20
ATOM     19  O   UNL     1       2.646   4.556  17.349  0.00  0.00    +0.000 OA
ATOM     20  C   UNL     1       3.300   5.445  17.897  0.00  0.00    +0.000 C 
ATOM     21  N   UNL     1       4.700   5.578  17.669  0.00  0.00    +0.000 N 
ATOM     22  C   UNL     1       5.241   4.376  17.072  0.00  0.00    +0.000 C 
ATOM     23  C   UNL     1       6.741   4.259  16.861  0.00  0.00    +0.000 C 
ATOM     24  N   UNL     1       7.676   5.177  17.477  0.00  0.00    +0.000 NA
ATOM     25  C   UNL     1       7.136   6.507  17.755  0.00  0.00    +0.000 C 
ATOM     26  C   UNL     1       7.902   7.663  17.099  0.00  0.00    +0.000 C 
ATOM     27  C   UNL     1       8.105   7.390  18.550  0.00  0.00    +0.000 C 
ATOM     28  C   UNL     1       5.645   6.623  18.166  0.00  0.00    +0.000 C 
ATOM     29  H   UNL     1       8.475   5.250  16.842  0.00  0.00    +0.000 HD
ENDBRANCH  12  20
ENDBRANCH   1  15
BRANCH   7  30
ATOM     30  C   UNL     1      -1.688  14.682  22.759  0.00  0.00    +0.000 A 
ATOM     31  C   UNL     1      -2.959  15.269  22.601  0.00  0.00    +0.000 A 
ATOM     32  N   UNL     1      -2.933  16.596  22.749  0.00  0.00    +0.000 NA
ATOM     33  N   UNL     1      -1.642  16.858  23.011  0.00  0.00    +0.000 N 
ATOM     34  C   UNL     1      -0.861  15.737  23.066  0.00  0.00    +0.000 A 
ATOM     35  H   UNL     1      -1.366  17.828  23.128  0.00  0.00    +0.000 HD
ENDBRANCH   7  30
BRANCH   4  36
ATOM     36  C   UNL     1       1.412  12.889  18.416  0.00  0.00    +0.000 C 
ATOM     37  C   UNL     1       2.786  13.479  18.599  0.00  0.00    +0.000 C 
ATOM     38  C   UNL     1       2.628  12.147  17.925  0.00  0.00    +0.000 C 
ENDBRANCH   4  36
TORSDOF 4
ENDMDL
MODEL 5
REMARK VINA RESULT:      -8.1      4.434      9.750
REMARK  Name = 
REMARK  4 active torsions:
REMARK  status: ('A' for Active; 'I' for Inactive)
REMARK    1  A    between atoms: C_2  and  C_3
REMARK    2  A    between atoms: C_6  and  N_7
REMARK    3  A    between atoms: C_10  and  C_11
REMARK    4  A    between atoms: C_16  and  C_17
REMARK                            x       y       z     vdW  Elec       q    Type
REMARK                         _______ _______ _______ _____ _____    ______ ____
ROOT
ATOM      1  N   UNL     1       0.957   8.078  20.291  0.00  0.00    +0.000 N 
ATOM      2  C   UNL     1       1.923   7.262  19.743  0.00  0.00    +0.000 A 
ATOM      3  N   UNL     1       2.729   7.665  18.796  0.00  0.00    +0.000 NA
ATOM      4  C   UNL     1       3.641   6.830  18.207  0.00  0.00    +0.000 A 
ATOM      5  C   UNL     1       3.784   5.549  18.587  0.00  0.00    +0.000 A 
ATOM      6  N   UNL     1       2.975   5.059  19.591  0.00  0.00    +0.000 N 
ATOM      7  C   UNL     1       2.805   3.793  20.118  0.00  0.00    +0.000 A 
ATOM      8  C   UNL     1       1.738   3.923  20.989  0.00  0.00    +0.000 A 
ATOM      9  N   UNL     1       1.267   5.222  21.028  0.00  0.00    +0.000 NA
ATOM     10  C   UNL     1       2.030   5.865  20.169  0.00  0.00    +0.000 A 
ATOM     11  H   UNL     1       0.292   7.600  20.892  0.00  0.00    +0.000 HD
ENDROOT
BRANCH   1  15
ATOM     12  C   UNL     1       0.455  12.255  19.761  0.00  0.00    +0.000 A 
ATOM     13  C   UNL     1       1.146  11.722  20.847  0.00  0.00    +0.000 A 
ATOM     14  C   UNL     1       1.327  10.345  20.980  0.00  0.00    +0.000 A 
ATOM     15  C   UNL     1       0.754   9.451  20.077  0.00  0.00    +0.000 A 
ATOM     16  C   UNL     1      -0.073   9.979  19.077  0.00  0.00    +0.000 A 
ATOM     17  C   UNL     1      -0.216  11.369  18.905  0.00  0.00    +0.000 A 
ATOM     18 CL   UNL     1      -1.247  11.869  17.602  0.00  0.00    +0.000 Cl
BRANCH  12  20
ATOM     19  O   UNL     1      -0.684  14.272  19.878  0.00  0.00    +0.000 OA
ATOM     20  C   UNL     1       0.395  13.735  19.620  0.00  0.00    +0.000 C 
ATOM     21  N   UNL     1       1.517  14.502  19.194  0.00  0.00    +0.000 N 
ATOM     22  C   UNL     1       1.107  15.822  18.767  0.00  0.00    +0.000 C 
ATOM     23  C   UNL     1       2.134  16.761  18.157  0.00  0.00    +0.000 C 
ATOM     24  N   UNL     1       3.439  16.298  17.732  0.00  0.00    +0.000 NA
ATOM     25  C   UNL     1       3.939  15.129  18.453  0.00  0.00    +0.000 C 
ATOM     26  C   UNL     1       5.291  15.333  19.151  0.00  0.00    +0.000 C 
ATOM     27  C   UNL     1       5.244  14.579  17.866  0.00  0.00    +0.000 C 
ATOM     28  C   UNL     1       2.916  14.058  18.915  0.00  0.00    +0.000 C 
ATOM     29  H   UNL     1       4.081  17.085  17.854  0.00  0.00    +0.000 HD
ENDBRANCH  12  20
ENDBRANCH   1  15
BRANCH   7  30
ATOM     30  C   UNL     1       3.551   2.557  19.779  0.00  0.00    +0.000 A 
ATOM     31  C   UNL     1       4.630   1.948  20.450  0.00  0.00    +0.000 A 
ATOM     32  N   UNL     1       5.099   0.878  19.803  0.00  0.00    +0.000 NA
ATOM     33  N   UNL     1       4.313   0.798  18.717  0.00  0.00    +0.000 N 
ATOM     34  C   UNL     1       3.343   1.762  18.677  0.00  0.00    +0.000 A 
ATOM     35  H   UNL     1       4.506   0.068  18.039  0.00  0.00    +0.000 HD
ENDBRANCH   7  30
BRANCH   4  36
ATOM     36  C   UNL     1       4.358   7.427  17.074  0.00  0.00    +0.000 C 
ATOM     37  C   UNL     1       5.857   7.296  17.006  0.00  0.00    +0.000 C 
ATOM     38  C   UNL     1       4.996   6.552  16.028  0.00  0.00    +0.000 C 
ENDBRANCH   4  36
TORSDOF 4
ENDMDL
MODEL 6
REMARK VINA RESULT:      -8.0      2.992      4.342
REMARK  Name = 
REMARK  4 active torsions:
REMARK  status: ('A' for Active; 'I' for Inactive)
REMARK    1  A    between atoms: C_2  and  C_3
REMARK    2  A    between atoms: C_6  and  N_7
REMARK    3  A    between atoms: C_10  and  C_11
REMARK    4  A    between atoms: C_16  and  C_17
REMARK                            x       y       z     vdW  Elec       q    Type
REMARK                         _______ _______ _______ _____ _____    ______ ____
ROOT
ATOM      1  N   UNL     1      -0.820  10.454  21.871  0.00  0.00    +0.000 N 
ATOM      2  C   UNL     1      -0.817  11.818  22.075  0.00  0.00    +0.000 A 
ATOM      3  N   UNL     1       0.151  12.589  21.655  0.00  0.00    +0.000 NA
ATOM      4  C   UNL     1       0.184  13.931  21.919  0.00  0.00    +0.000 A 
ATOM      5  C   UNL     1      -0.794  14.547  22.605  0.00  0.00    +0.000 A 
ATOM      6  N   UNL     1      -1.854  13.797  23.069  0.00  0.00    +0.000 N 
ATOM      7  C   UNL     1      -2.932  14.104  23.877  0.00  0.00    +0.000 A 
ATOM      8  C   UNL     1      -3.551  12.888  24.102  0.00  0.00    +0.000 A 
ATOM      9  N   UNL     1      -2.905  11.857  23.446  0.00  0.00    +0.000 NA
ATOM     10  C   UNL     1      -1.891  12.446  22.848  0.00  0.00    +0.000 A 
ATOM     11  H   UNL     1      -1.536   9.952  22.387  0.00  0.00    +0.000 HD
ENDROOT
BRANCH   1  15
ATOM     12  C   UNL     1       1.848   8.027  19.641  0.00  0.00    +0.000 A 
ATOM     13  C   UNL     1       1.544   7.764  20.975  0.00  0.00    +0.000 A 
ATOM     14  C   UNL     1       0.635   8.558  21.677  0.00  0.00    +0.000 A 
ATOM     15  C   UNL     1       0.064   9.688  21.094  0.00  0.00    +0.000 A 
ATOM     16  C   UNL     1       0.493  10.043  19.809  0.00  0.00    +0.000 A 
ATOM     17  C   UNL     1       1.367   9.217  19.076  0.00  0.00    +0.000 A 
ATOM     18 CL   UNL     1       1.779   9.775  17.485  0.00  0.00    +0.000 Cl
BRANCH  12  20
ATOM     19  O   UNL     1       3.464   7.554  18.047  0.00  0.00    +0.000 OA
ATOM     20  C   UNL     1       2.737   7.077  18.920  0.00  0.00    +0.000 C 
ATOM     21  N   UNL     1       2.742   5.681  19.203  0.00  0.00    +0.000 N 
ATOM     22  C   UNL     1       3.377   4.940  18.134  0.00  0.00    +0.000 C 
ATOM     23  C   UNL     1       3.378   3.422  18.177  0.00  0.00    +0.000 C 
ATOM     24  N   UNL     1       2.538   2.680  19.095  0.00  0.00    +0.000 NA
ATOM     25  C   UNL     1       2.204   3.390  20.329  0.00  0.00    +0.000 C 
ATOM     26  C   UNL     1       2.616   2.668  21.619  0.00  0.00    +0.000 C 
ATOM     27  C   UNL     1       1.187   2.635  21.195  0.00  0.00    +0.000 C 
ATOM     28  C   UNL     1       2.005   4.927  20.261  0.00  0.00    +0.000 C 
ATOM     29  H   UNL     1       3.039   1.815  19.314  0.00  0.00    +0.000 HD
ENDBRANCH  12  20
ENDBRANCH   1  15
BRANCH   7  30
ATOM     30  C   UNL     1      -3.305  15.427  24.434  0.00  0.00    +0.000 A 
ATOM     31  C   UNL     1      -2.532  16.334  25.186  0.00  0.00    +0.000 A 
ATOM     32  N   UNL     1      -3.233  17.398  25.585  0.00  0.00    +0.000 NA
ATOM     33  N   UNL     1      -4.457  17.176  25.080  0.00  0.00    +0.000 N 
ATOM     34  C   UNL     1      -4.541  16.023  24.348  0.00  0.00    +0.000 A 
ATOM     35  H   UNL     1      -5.189  17.847  25.288  0.00  0.00    +0.000 HD
ENDBRANCH   7  30
BRANCH   4  36
ATOM     36  C   UNL     1       1.416  14.600  21.483  0.00  0.00    +0.000 C 
ATOM     37  C   UNL     1       1.457  15.241  20.120  0.00  0.00    +0.000 C 
ATOM     38  C   UNL     1       1.466  16.099  21.351  0.00  0.00    +0.000 C 
ENDBRANCH   4  36
TORSDOF 4
ENDMDL
MODEL 7
REMARK VINA RESULT:      -7.8      4.444      9.876
REMARK  Name = 
REMARK  4 active torsions:
REMARK  status: ('A' for Active; 'I' for Inactive)
REMARK    1  A    between atoms: C_2  and  C_3
REMARK    2  A    between atoms: C_6  and  N_7
REMARK    3  A    between atoms: C_10  and  C_11
REMARK    4  A    between atoms: C_16  and  C_17
REMARK                            x       y       z     vdW  Elec       q    Type
REMARK                         _______ _______ _______ _____ _____    ______ ____
ROOT
ATOM      1  N   UNL     1       1.239   8.081  20.195  0.00  0.00    +0.000 N 
ATOM      2  C   UNL     1       2.174   7.223  19.656  0.00  0.00    +0.000 A 
ATOM      3  N   UNL     1       2.998   7.587  18.709  0.00  0.00    +0.000 NA
ATOM      4  C   UNL     1       3.877   6.713  18.129  0.00  0.00    +0.000 A 
ATOM      5  C   UNL     1       3.968   5.430  18.518  0.00  0.00    +0.000 A 
ATOM      6  N   UNL     1       3.137   4.980  19.522  0.00  0.00    +0.000 N 
ATOM      7  C   UNL     1       2.915   3.725  20.058  0.00  0.00    +0.000 A 
ATOM      8  C   UNL     1       1.851   3.903  20.924  0.00  0.00    +0.000 A 
ATOM      9  N   UNL     1       1.433   5.220  20.953  0.00  0.00    +0.000 NA
ATOM     10  C   UNL     1       2.224   5.826  20.092  0.00  0.00    +0.000 A 
ATOM     11  H   UNL     1       0.554   7.634  20.797  0.00  0.00    +0.000 HD
ENDROOT
BRANCH   1  15
ATOM     12  C   UNL     1       0.836  12.220  19.364  0.00  0.00    +0.000 A 
ATOM     13  C   UNL     1       1.444  11.339  18.472  0.00  0.00    +0.000 A 
ATOM     14  C   UNL     1       1.532   9.975  18.754  0.00  0.00    +0.000 A 
ATOM     15  C   UNL     1       1.092   9.459  19.972  0.00  0.00    +0.000 A 
ATOM     16  C   UNL     1       0.628  10.368  20.931  0.00  0.00    +0.000 A 
ATOM     17  C   UNL     1       0.486  11.737  20.634  0.00  0.00    +0.000 A 
ATOM     18 CL   UNL     1      -0.132  12.731  21.915  0.00  0.00    +0.000 Cl
BRANCH  12  20
ATOM     19  O   UNL     1      -0.401  13.946  18.434  0.00  0.00    +0.000 OA
ATOM     20  C   UNL     1       0.674  13.640  18.952  0.00  0.00    +0.000 C 
ATOM     21  N   UNL     1       1.709  14.602  19.127  0.00  0.00    +0.000 N 
ATOM     22  C   UNL     1       1.467  15.774  18.313  0.00  0.00    +0.000 C 
ATOM     23  C   UNL     1       2.515  16.872  18.256  0.00  0.00    +0.000 C 
ATOM     24  N   UNL     1       3.859  16.676  18.759  0.00  0.00    +0.000 NA
ATOM     25  C   UNL     1       3.974  15.690  19.832  0.00  0.00    +0.000 C 
ATOM     26  C   UNL     1       4.586  16.223  21.135  0.00  0.00    +0.000 C 
ATOM     27  C   UNL     1       5.428  15.398  20.222  0.00  0.00    +0.000 C 
ATOM     28  C   UNL     1       3.036  14.454  19.797  0.00  0.00    +0.000 C 
ATOM     29  H   UNL     1       4.184  17.589  19.088  0.00  0.00    +0.000 HD
ENDBRANCH  12  20
ENDBRANCH   1  15
BRANCH   7  30
ATOM     30  C   UNL     1       3.613   2.458  19.730  0.00  0.00    +0.000 A 
ATOM     31  C   UNL     1       4.643   1.795  20.425  0.00  0.00    +0.000 A 
ATOM     32  N   UNL     1       5.080   0.709  19.782  0.00  0.00    +0.000 NA
ATOM     33  N   UNL     1       4.321   0.672  18.675  0.00  0.00    +0.000 N 
ATOM     34  C   UNL     1       3.397   1.679  18.616  0.00  0.00    +0.000 A 
ATOM     35  H   UNL     1       4.499  -0.062  17.997  0.00  0.00    +0.000 HD
ENDBRANCH   7  30
BRANCH   4  36
ATOM     36  C   UNL     1       4.621   7.273  16.994  0.00  0.00    +0.000 C 
ATOM     37  C   UNL     1       6.118   7.111  16.949  0.00  0.00    +0.000 C 
ATOM     38  C   UNL     1       5.255   6.365  15.974  0.00  0.00    +0.000 C 
ENDBRANCH   4  36
TORSDOF 4
ENDMDL
MODEL 8
REMARK VINA RESULT:      -7.8      6.574      7.621
REMARK  Name = 
REMARK  4 active torsions:
REMARK  status: ('A' for Active; 'I' for Inactive)
REMARK    1  A    between atoms: C_2  and  C_3
REMARK    2  A    between atoms: C_6  and  N_7
REMARK    3  A    between atoms: C_10  and  C_11
REMARK    4  A    between atoms: C_16  and  C_17
REMARK                            x       y       z     vdW  Elec       q    Type
REMARK                         _______ _______ _______ _____ _____    ______ ____
ROOT
ATOM      1  N   UNL     1       3.024  13.805  20.602  0.00  0.00    +0.000 N 
ATOM      2  C   UNL     1       1.711  14.182  20.418  0.00  0.00    +0.000 A 
ATOM      3  N   UNL     1       1.376  15.344  19.922  0.00  0.00    +0.000 NA
ATOM      4  C   UNL     1       0.071  15.740  19.805  0.00  0.00    +0.000 A 
ATOM      5  C   UNL     1      -0.951  14.946  20.167  0.00  0.00    +0.000 A 
ATOM      6  N   UNL     1      -0.671  13.699  20.688  0.00  0.00    +0.000 N 
ATOM      7  C   UNL     1      -1.472  12.717  21.240  0.00  0.00    +0.000 A 
ATOM      8  C   UNL     1      -0.580  11.774  21.717  0.00  0.00    +0.000 A 
ATOM      9  N   UNL     1       0.729  12.132  21.457  0.00  0.00    +0.000 NA
ATOM     10  C   UNL     1       0.627  13.295  20.848  0.00  0.00    +0.000 A 
ATOM     11  H   UNL     1       3.147  12.957  21.146  0.00  0.00    +0.000 HD
ENDROOT
BRANCH   1  15
ATOM     12  C   UNL     1       6.477  15.818  19.186  0.00  0.00    +0.000 A 
ATOM     13  C   UNL     1       5.551  15.235  18.323  0.00  0.00    +0.000 A 
ATOM     14  C   UNL     1       4.405  14.609  18.814  0.00  0.00    +0.000 A 
ATOM     15  C   UNL     1       4.187  14.472  20.184  0.00  0.00    +0.000 A 
ATOM     16  C   UNL     1       5.196  14.915  21.049  0.00  0.00    +0.000 A 
ATOM     17  C   UNL     1       6.329  15.596  20.563  0.00  0.00    +0.000 A 
ATOM     18 CL   UNL     1       7.473  16.113  21.760  0.00  0.00    +0.000 Cl
BRANCH  12  20
ATOM     19  O   UNL     1       7.482  17.786  18.484  0.00  0.00    +0.000 OA
ATOM     20  C   UNL     1       7.619  16.566  18.594  0.00  0.00    +0.000 C 
ATOM     21  N   UNL     1       8.806  15.914  18.155  0.00  0.00    +0.000 N 
ATOM     22  C   UNL     1       9.575  16.776  17.283  0.00  0.00    +0.000 C 
ATOM     23  C   UNL     1      10.819  16.230  16.603  0.00  0.00    +0.000 C 
ATOM     24  N   UNL     1      11.117  14.813  16.572  0.00  0.00    +0.000 NA
ATOM     25  C   UNL     1      10.568  14.047  17.690  0.00  0.00    +0.000 C 
ATOM     26  C   UNL     1      11.609  13.278  18.516  0.00  0.00    +0.000 C 
ATOM     27  C   UNL     1      10.769  12.535  17.534  0.00  0.00    +0.000 C 
ATOM     28  C   UNL     1       9.196  14.477  18.271  0.00  0.00    +0.000 C 
ATOM     29  H   UNL     1      12.136  14.729  16.558  0.00  0.00    +0.000 HD
ENDBRANCH  12  20
ENDBRANCH   1  15
BRANCH   7  30
ATOM     30  C   UNL     1      -2.950  12.707  21.357  0.00  0.00    +0.000 A 
ATOM     31  C   UNL     1      -3.758  12.628  22.509  0.00  0.00    +0.000 A 
ATOM     32  N   UNL     1      -5.060  12.565  22.220  0.00  0.00    +0.000 NA
ATOM     33  N   UNL     1      -5.087  12.612  20.878  0.00  0.00    +0.000 N 
ATOM     34  C   UNL     1      -3.847  12.737  20.314  0.00  0.00    +0.000 A 
ATOM     35  H   UNL     1      -5.987  12.540  20.415  0.00  0.00    +0.000 HD
ENDBRANCH   7  30
BRANCH   4  36
ATOM     36  C   UNL     1      -0.098  17.127  19.354  0.00  0.00    +0.000 C 
ATOM     37  C   UNL     1      -0.230  17.406  17.880  0.00  0.00    +0.000 C 
ATOM     38  C   UNL     1      -1.413  17.590  18.784  0.00  0.00    +0.000 C 
ENDBRANCH   4  36
TORSDOF 4
ENDMDL
MODEL 9
REMARK VINA RESULT:      -7.8      2.884      4.133
REMARK  Name = 
REMARK  4 active torsions:
REMARK  status: ('A' for Active; 'I' for Inactive)
REMARK    1  A    between atoms: C_2  and  C_3
REMARK    2  A    between atoms: C_6  and  N_7
REMARK    3  A    between atoms: C_10  and  C_11
REMARK    4  A    between atoms: C_16  and  C_17
REMARK                            x       y       z     vdW  Elec       q    Type
REMARK                         _______ _______ _______ _____ _____    ______ ____
ROOT
ATOM      1  N   UNL     1      -1.161  10.606  22.122  0.00  0.00    +0.000 N 
ATOM      2  C   UNL     1      -1.611  11.898  21.952  0.00  0.00    +0.000 A 
ATOM      3  N   UNL     1      -1.124  12.698  21.040  0.00  0.00    +0.000 NA
ATOM      4  C   UNL     1      -1.526  14.001  20.921  0.00  0.00    +0.000 A 
ATOM      5  C   UNL     1      -2.467  14.533  21.718  0.00  0.00    +0.000 A 
ATOM      6  N   UNL     1      -3.034  13.743  22.696  0.00  0.00    +0.000 N 
ATOM      7  C   UNL     1      -3.923  14.016  23.718  0.00  0.00    +0.000 A 
ATOM      8  C   UNL     1      -3.978  12.843  24.449  0.00  0.00    +0.000 A 
ATOM      9  N   UNL     1      -3.175  11.861  23.900  0.00  0.00    +0.000 NA
ATOM     10  C   UNL     1      -2.622  12.447  22.859  0.00  0.00    +0.000 A 
ATOM     11  H   UNL     1      -1.496  10.150  22.964  0.00  0.00    +0.000 HD
ENDROOT
BRANCH   1  15
ATOM     12  C   UNL     1       1.564   8.325  19.808  0.00  0.00    +0.000 A 
ATOM     13  C   UNL     1       1.494   8.215  21.195  0.00  0.00    +0.000 A 
ATOM     14  C   UNL     1       0.564   8.951  21.930  0.00  0.00    +0.000 A 
ATOM     15  C   UNL     1      -0.270   9.883  21.313  0.00  0.00    +0.000 A 
ATOM     16  C   UNL     1      -0.088  10.109  19.943  0.00  0.00    +0.000 A 
ATOM     17  C   UNL     1       0.810   9.331  19.186  0.00  0.00    +0.000 A 
ATOM     18 CL   UNL     1       0.899   9.708  17.495  0.00  0.00    +0.000 Cl
BRANCH  12  20
ATOM     19  O   UNL     1       3.220   7.958  18.227  0.00  0.00    +0.000 OA
ATOM     20  C   UNL     1       2.499   7.430  19.076  0.00  0.00    +0.000 C 
ATOM     21  N   UNL     1       2.555   6.028  19.321  0.00  0.00    +0.000 N 
ATOM     22  C   UNL     1       3.233   5.342  18.242  0.00  0.00    +0.000 C 
ATOM     23  C   UNL     1       3.293   3.824  18.246  0.00  0.00    +0.000 C 
ATOM     24  N   UNL     1       2.470   3.026  19.130  0.00  0.00    +0.000 NA
ATOM     25  C   UNL     1       2.090   3.688  20.377  0.00  0.00    +0.000 C 
ATOM     26  C   UNL     1       2.511   2.947  21.654  0.00  0.00    +0.000 C 
ATOM     27  C   UNL     1       1.091   2.871  21.206  0.00  0.00    +0.000 C 
ATOM     28  C   UNL     1       1.833   5.217  20.347  0.00  0.00    +0.000 C 
ATOM     29  H   UNL     1       3.000   2.175  19.334  0.00  0.00    +0.000 HD
ENDBRANCH  12  20
ENDBRANCH   1  15
BRANCH   7  30
ATOM     30  C   UNL     1      -4.612  15.297  24.009  0.00  0.00    +0.000 A 
ATOM     31  C   UNL     1      -5.846  15.781  23.531  0.00  0.00    +0.000 A 
ATOM     32  N   UNL     1      -6.109  17.020  23.952  0.00  0.00    +0.000 NA
ATOM     33  N   UNL     1      -5.044  17.328  24.709  0.00  0.00    +0.000 N 
ATOM     34  C   UNL     1      -4.134  16.311  24.805  0.00  0.00    +0.000 A 
ATOM     35  H   UNL     1      -4.999  18.257  25.116  0.00  0.00    +0.000 HD
ENDBRANCH   7  30
BRANCH   4  36
ATOM     36  C   UNL     1      -0.768  14.775  19.929  0.00  0.00    +0.000 C 
ATOM     37  C   UNL     1       0.661  15.146  20.227  0.00  0.00    +0.000 C 
ATOM     38  C   UNL     1       0.357  14.136  19.159  0.00  0.00    +0.000 C 
ENDBRANCH   4  36
TORSDOF 4
ENDMDL
