MODEL 1
REMARK VINA RESULT:      -5.8      0.000      0.000
REMARK  Name = 
REMARK  8 active torsions:
REMARK  status: ('A' for Active; 'I' for Inactive)
REMARK    1  A    between atoms: C_1  and  C_2
REMARK    2  A    between atoms: C_2  and  C_3
REMARK    3  A    between atoms: C_2  and  N_9
REMARK    4  A    between atoms: C_3  and  C_4
REMARK    5  A    between atoms: N_9  and  S_10
REMARK    6  A    between atoms: S_10  and  N_13
REMARK    7  A    between atoms: N_13  and  C_14
REMARK    8  A    between atoms: N_13  and  C_15
REMARK                            x       y       z     vdW  Elec       q    Type
REMARK                         _______ _______ _______ _____ _____    ______ ____
ROOT
ATOM      1  C   UNL     1       3.413   2.957  17.359  0.00  0.00    +0.000 C 
ATOM      2  C   UNL     1       4.146   4.220  17.859  0.00  0.00    +0.000 C 
ENDROOT
BRANCH   2   3
ATOM      3  N   UNL     1       5.484   3.730  18.362  0.00  0.00    +0.000 NA
ATOM      4  H   UNL     1       5.828   3.010  17.729  0.00  0.00    +0.000 HD
BRANCH   3   5
ATOM      5  S   UNL     1       6.739   4.846  18.460  0.00  0.00    +0.000 S 
ATOM      6  O   UNL     1       6.560   5.597  19.679  0.00  0.00    +0.000 OA
ATOM      7  O   UNL     1       7.989   4.242  18.082  0.00  0.00    +0.000 OA
BRANCH   5   8
ATOM      8  N   UNL     1       6.362   5.862  17.150  0.00  0.00    +0.000 NA
ATOM      9  C   UNL     1       6.948   7.216  17.401  0.00  0.00    +0.000 C 
ATOM     10  C   UNL     1       6.855   5.344  15.843  0.00  0.00    +0.000 C 
ENDBRANCH   5   8
ENDBRANCH   3   5
ENDBRANCH   2   3
BRANCH   2  11
ATOM     11  C   UNL     1       3.223   4.905  18.890  0.00  0.00    +0.000 C 
BRANCH  11  12
ATOM     12  C   UNL     1       2.513   4.002  19.836  0.00  0.00    +0.000 A 
ATOM     13  C   UNL     1       1.194   3.756  20.158  0.00  0.00    +0.000 A 
ATOM     14  C   UNL     1       1.216   2.890  21.283  0.00  0.00    +0.000 A 
ATOM     15  C   UNL     1       2.539   2.614  21.531  0.00  0.00    +0.000 A 
ATOM     16  O   UNL     1       3.322   3.207  20.594  0.00  0.00    +0.000 OA
ENDBRANCH  11  12
ENDBRANCH   2  11
TORSDOF 5
ENDMDL
MODEL 2
REMARK VINA RESULT:      -5.8      1.358      1.725
REMARK  Name = 
REMARK  8 active torsions:
REMARK  status: ('A' for Active; 'I' for Inactive)
REMARK    1  A    between atoms: C_1  and  C_2
REMARK    2  A    between atoms: C_2  and  C_3
REMARK    3  A    between atoms: C_2  and  N_9
REMARK    4  A    between atoms: C_3  and  C_4
REMARK    5  A    between atoms: N_9  and  S_10
REMARK    6  A    between atoms: S_10  and  N_13
REMARK    7  A    between atoms: N_13  and  C_14
REMARK    8  A    between atoms: N_13  and  C_15
REMARK                            x       y       z     vdW  Elec       q    Type
REMARK                         _______ _______ _______ _____ _____    ______ ____
ROOT
ATOM      1  C   UNL     1       3.256   3.400  17.104  0.00  0.00    +0.000 C 
ATOM      2  C   UNL     1       4.445   3.911  17.943  0.00  0.00    +0.000 C 
ENDROOT
BRANCH   2   3
ATOM      3  N   UNL     1       5.667   3.686  17.082  0.00  0.00    +0.000 NA
ATOM      4  H   UNL     1       5.376   3.655  16.106  0.00  0.00    +0.000 HD
BRANCH   3   5
ATOM      5  S   UNL     1       6.882   4.849  17.128  0.00  0.00    +0.000 S 
ATOM      6  O   UNL     1       6.552   5.780  18.180  0.00  0.00    +0.000 OA
ATOM      7  O   UNL     1       8.177   4.238  16.993  0.00  0.00    +0.000 OA
BRANCH   5   8
ATOM      8  N   UNL     1       6.634   5.625  15.636  0.00  0.00    +0.000 NA
ATOM      9  C   UNL     1       6.674   4.601  14.545  0.00  0.00    +0.000 C 
ATOM     10  C   UNL     1       5.347   6.372  15.567  0.00  0.00    +0.000 C 
ENDBRANCH   5   8
ENDBRANCH   3   5
ENDBRANCH   2   3
BRANCH   2  11
ATOM     11  C   UNL     1       4.403   3.167  19.296  0.00  0.00    +0.000 C 
BRANCH  11  12
ATOM     12  C   UNL     1       3.148   3.311  20.083  0.00  0.00    +0.000 A 
ATOM     13  C   UNL     1       2.237   2.443  20.649  0.00  0.00    +0.000 A 
ATOM     14  C   UNL     1       1.161   3.245  21.113  0.00  0.00    +0.000 A 
ATOM     15  C   UNL     1       1.514   4.548  20.859  0.00  0.00    +0.000 A 
ATOM     16  O   UNL     1       2.761   4.597  20.326  0.00  0.00    +0.000 OA
ENDBRANCH  11  12
ENDBRANCH   2  11
TORSDOF 5
ENDMDL
MODEL 3
REMARK VINA RESULT:      -5.7      1.724      2.266
REMARK  Name = 
REMARK  8 active torsions:
REMARK  status: ('A' for Active; 'I' for Inactive)
REMARK    1  A    between atoms: C_1  and  C_2
REMARK    2  A    between atoms: C_2  and  C_3
REMARK    3  A    between atoms: C_2  and  N_9
REMARK    4  A    between atoms: C_3  and  C_4
REMARK    5  A    between atoms: N_9  and  S_10
REMARK    6  A    between atoms: S_10  and  N_13
REMARK    7  A    between atoms: N_13  and  C_14
REMARK    8  A    between atoms: N_13  and  C_15
REMARK                            x       y       z     vdW  Elec       q    Type
REMARK                         _______ _______ _______ _____ _____    ______ ____
ROOT
ATOM      1  C   UNL     1       2.856   7.591  18.077  0.00  0.00    +0.000 C 
ATOM      2  C   UNL     1       3.324   6.161  18.419  0.00  0.00    +0.000 C 
ENDROOT
BRANCH   2   3
ATOM      3  N   UNL     1       4.607   5.965  17.643  0.00  0.00    +0.000 NA
ATOM      4  H   UNL     1       5.297   6.634  17.981  0.00  0.00    +0.000 HD
BRANCH   3   5
ATOM      5  S   UNL     1       5.370   4.470  17.756  0.00  0.00    +0.000 S 
ATOM      6  O   UNL     1       5.489   4.148  19.157  0.00  0.00    +0.000 OA
ATOM      7  O   UNL     1       4.844   3.555  16.778  0.00  0.00    +0.000 OA
BRANCH   5   8
ATOM      8  N   UNL     1       6.916   4.859  17.167  0.00  0.00    +0.000 NA
ATOM      9  C   UNL     1       6.962   4.573  15.699  0.00  0.00    +0.000 C 
ATOM     10  C   UNL     1       7.297   6.280  17.406  0.00  0.00    +0.000 C 
ENDBRANCH   5   8
ENDBRANCH   3   5
ENDBRANCH   2   3
BRANCH   2  11
ATOM     11  C   UNL     1       2.158   5.205  18.085  0.00  0.00    +0.000 C 
BRANCH  11  12
ATOM     12  C   UNL     1       1.770   4.246  19.155  0.00  0.00    +0.000 A 
ATOM     13  C   UNL     1       1.168   4.343  20.392  0.00  0.00    +0.000 A 
ATOM     14  C   UNL     1       1.256   3.053  20.978  0.00  0.00    +0.000 A 
ATOM     15  C   UNL     1       1.844   2.243  20.038  0.00  0.00    +0.000 A 
ATOM     16  O   UNL     1       2.066   2.940  18.895  0.00  0.00    +0.000 OA
ENDBRANCH  11  12
ENDBRANCH   2  11
TORSDOF 5
ENDMDL
MODEL 4
REMARK VINA RESULT:      -5.7      2.379      6.147
REMARK  Name = 
REMARK  8 active torsions:
REMARK  status: ('A' for Active; 'I' for Inactive)
REMARK    1  A    between atoms: C_1  and  C_2
REMARK    2  A    between atoms: C_2  and  C_3
REMARK    3  A    between atoms: C_2  and  N_9
REMARK    4  A    between atoms: C_3  and  C_4
REMARK    5  A    between atoms: N_9  and  S_10
REMARK    6  A    between atoms: S_10  and  N_13
REMARK    7  A    between atoms: N_13  and  C_14
REMARK    8  A    between atoms: N_13  and  C_15
REMARK                            x       y       z     vdW  Elec       q    Type
REMARK                         _______ _______ _______ _____ _____    ______ ____
ROOT
ATOM      1  C   UNL     1       5.184   6.615  16.140  0.00  0.00    +0.000 C 
ATOM      2  C   UNL     1       5.434   5.206  16.717  0.00  0.00    +0.000 C 
ENDROOT
BRANCH   2   3
ATOM      3  N   UNL     1       5.382   5.375  18.218  0.00  0.00    +0.000 NA
ATOM      4  H   UNL     1       5.047   6.314  18.429  0.00  0.00    +0.000 HD
BRANCH   3   5
ATOM      5  S   UNL     1       4.364   4.354  19.086  0.00  0.00    +0.000 S 
ATOM      6  O   UNL     1       5.156   3.241  19.547  0.00  0.00    +0.000 OA
ATOM      7  O   UNL     1       3.493   5.112  19.944  0.00  0.00    +0.000 OA
BRANCH   5   8
ATOM      8  N   UNL     1       3.341   3.800  17.846  0.00  0.00    +0.000 NA
ATOM      9  C   UNL     1       3.282   2.306  17.898  0.00  0.00    +0.000 C 
ATOM     10  C   UNL     1       1.960   4.353  17.933  0.00  0.00    +0.000 C 
ENDBRANCH   5   8
ENDBRANCH   3   5
ENDBRANCH   2   3
BRANCH   2  11
ATOM     11  C   UNL     1       6.765   4.697  16.121  0.00  0.00    +0.000 C 
BRANCH  11  12
ATOM     12  C   UNL     1       6.825   4.602  14.637  0.00  0.00    +0.000 A 
ATOM     13  C   UNL     1       6.189   3.848  13.674  0.00  0.00    +0.000 A 
ATOM     14  C   UNL     1       6.846   4.133  12.448  0.00  0.00    +0.000 A 
ATOM     15  C   UNL     1       7.792   5.088  12.733  0.00  0.00    +0.000 A 
ATOM     16  O   UNL     1       7.714   5.446  14.039  0.00  0.00    +0.000 OA
ENDBRANCH  11  12
ENDBRANCH   2  11
TORSDOF 5
ENDMDL
MODEL 5
REMARK VINA RESULT:      -5.6      2.201      5.279
REMARK  Name = 
REMARK  8 active torsions:
REMARK  status: ('A' for Active; 'I' for Inactive)
REMARK    1  A    between atoms: C_1  and  C_2
REMARK    2  A    between atoms: C_2  and  C_3
REMARK    3  A    between atoms: C_2  and  N_9
REMARK    4  A    between atoms: C_3  and  C_4
REMARK    5  A    between atoms: N_9  and  S_10
REMARK    6  A    between atoms: S_10  and  N_13
REMARK    7  A    between atoms: N_13  and  C_14
REMARK    8  A    between atoms: N_13  and  C_15
REMARK                            x       y       z     vdW  Elec       q    Type
REMARK                         _______ _______ _______ _____ _____    ______ ____
ROOT
ATOM      1  C   UNL     1       2.893   6.939  18.431  0.00  0.00    +0.000 C 
ATOM      2  C   UNL     1       3.345   5.472  18.273  0.00  0.00    +0.000 C 
ENDROOT
BRANCH   2   3
ATOM      3  N   UNL     1       3.664   5.000  19.672  0.00  0.00    +0.000 NA
ATOM      4  H   UNL     1       3.041   5.473  20.326  0.00  0.00    +0.000 HD
BRANCH   3   5
ATOM      5  S   UNL     1       3.473   3.363  20.009  0.00  0.00    +0.000 S 
ATOM      6  O   UNL     1       4.762   2.734  19.854  0.00  0.00    +0.000 OA
ATOM      7  O   UNL     1       2.637   3.175  21.165  0.00  0.00    +0.000 OA
BRANCH   5   8
ATOM      8  N   UNL     1       2.489   2.885  18.708  0.00  0.00    +0.000 NA
ATOM      9  C   UNL     1       3.172   1.782  17.962  0.00  0.00    +0.000 C 
ATOM     10  C   UNL     1       1.134   2.432  19.130  0.00  0.00    +0.000 C 
ENDBRANCH   5   8
ENDBRANCH   3   5
ENDBRANCH   2   3
BRANCH   2  11
ATOM     11  C   UNL     1       4.504   5.459  17.253  0.00  0.00    +0.000 C 
BRANCH  11  12
ATOM     12  C   UNL     1       5.790   6.047  17.715  0.00  0.00    +0.000 A 
ATOM     13  C   UNL     1       6.596   7.091  17.312  0.00  0.00    +0.000 A 
ATOM     14  C   UNL     1       7.782   7.001  18.087  0.00  0.00    +0.000 A 
ATOM     15  C   UNL     1       7.595   5.951  18.954  0.00  0.00    +0.000 A 
ATOM     16  O   UNL     1       6.350   5.434  18.799  0.00  0.00    +0.000 OA
ENDBRANCH  11  12
ENDBRANCH   2  11
TORSDOF 5
ENDMDL
MODEL 6
REMARK VINA RESULT:      -5.6      2.221      5.469
REMARK  Name = 
REMARK  8 active torsions:
REMARK  status: ('A' for Active; 'I' for Inactive)
REMARK    1  A    between atoms: C_1  and  C_2
REMARK    2  A    between atoms: C_2  and  C_3
REMARK    3  A    between atoms: C_2  and  N_9
REMARK    4  A    between atoms: C_3  and  C_4
REMARK    5  A    between atoms: N_9  and  S_10
REMARK    6  A    between atoms: S_10  and  N_13
REMARK    7  A    between atoms: N_13  and  C_14
REMARK    8  A    between atoms: N_13  and  C_15
REMARK                            x       y       z     vdW  Elec       q    Type
REMARK                         _______ _______ _______ _____ _____    ______ ____
ROOT
ATOM      1  C   UNL     1       6.654   5.504  19.266  0.00  0.00    +0.000 C 
ATOM      2  C   UNL     1       5.275   5.015  18.775  0.00  0.00    +0.000 C 
ENDROOT
BRANCH   2   3
ATOM      3  N   UNL     1       5.407   3.515  18.646  0.00  0.00    +0.000 NA
ATOM      4  H   UNL     1       6.284   3.226  19.076  0.00  0.00    +0.000 HD
BRANCH   3   5
ATOM      5  S   UNL     1       4.235   2.560  19.384  0.00  0.00    +0.000 S 
ATOM      6  O   UNL     1       3.707   1.668  18.381  0.00  0.00    +0.000 OA
ATOM      7  O   UNL     1       4.680   2.117  20.679  0.00  0.00    +0.000 OA
BRANCH   5   8
ATOM      8  N   UNL     1       3.050   3.727  19.733  0.00  0.00    +0.000 NA
ATOM      9  C   UNL     1       1.947   3.615  18.728  0.00  0.00    +0.000 C 
ATOM     10  C   UNL     1       2.483   3.598  21.105  0.00  0.00    +0.000 C 
ENDBRANCH   5   8
ENDBRANCH   3   5
ENDBRANCH   2   3
BRANCH   2  11
ATOM     11  C   UNL     1       4.944   5.798  17.486  0.00  0.00    +0.000 C 
BRANCH  11  12
ATOM     12  C   UNL     1       5.478   5.229  16.219  0.00  0.00    +0.000 A 
ATOM     13  C   UNL     1       5.069   4.261  15.326  0.00  0.00    +0.000 A 
ATOM     14  C   UNL     1       6.142   4.084  14.413  0.00  0.00    +0.000 A 
ATOM     15  C   UNL     1       7.104   4.998  14.768  0.00  0.00    +0.000 A 
ATOM     16  O   UNL     1       6.663   5.761  15.800  0.00  0.00    +0.000 OA
ENDBRANCH  11  12
ENDBRANCH   2  11
TORSDOF 5
ENDMDL
MODEL 7
REMARK VINA RESULT:      -5.6      2.094      5.526
REMARK  Name = 
REMARK  8 active torsions:
REMARK  status: ('A' for Active; 'I' for Inactive)
REMARK    1  A    between atoms: C_1  and  C_2
REMARK    2  A    between atoms: C_2  and  C_3
REMARK    3  A    between atoms: C_2  and  N_9
REMARK    4  A    between atoms: C_3  and  C_4
REMARK    5  A    between atoms: N_9  and  S_10
REMARK    6  A    between atoms: S_10  and  N_13
REMARK    7  A    between atoms: N_13  and  C_14
REMARK    8  A    between atoms: N_13  and  C_15
REMARK                            x       y       z     vdW  Elec       q    Type
REMARK                         _______ _______ _______ _____ _____    ______ ____
ROOT
ATOM      1  C   UNL     1       3.195   6.153  17.965  0.00  0.00    +0.000 C 
ATOM      2  C   UNL     1       3.888   4.784  17.801  0.00  0.00    +0.000 C 
ENDROOT
BRANCH   2   3
ATOM      3  N   UNL     1       4.054   4.251  19.205  0.00  0.00    +0.000 NA
ATOM      4  H   UNL     1       3.574   4.877  19.851  0.00  0.00    +0.000 HD
BRANCH   3   5
ATOM      5  S   UNL     1       3.428   2.726  19.543  0.00  0.00    +0.000 S 
ATOM      6  O   UNL     1       3.519   1.942  18.336  0.00  0.00    +0.000 OA
ATOM      7  O   UNL     1       3.886   2.259  20.824  0.00  0.00    +0.000 OA
BRANCH   5   8
ATOM      8  N   UNL     1       1.792   3.108  19.806  0.00  0.00    +0.000 NA
ATOM      9  C   UNL     1       0.953   2.341  18.832  0.00  0.00    +0.000 C 
ATOM     10  C   UNL     1       1.335   2.813  21.193  0.00  0.00    +0.000 C 
ENDBRANCH   5   8
ENDBRANCH   3   5
ENDBRANCH   2   3
BRANCH   2  11
ATOM     11  C   UNL     1       5.181   5.020  16.989  0.00  0.00    +0.000 C 
BRANCH  11  12
ATOM     12  C   UNL     1       6.286   5.713  17.705  0.00  0.00    +0.000 A 
ATOM     13  C   UNL     1       6.959   6.908  17.554  0.00  0.00    +0.000 A 
ATOM     14  C   UNL     1       8.035   6.877  18.480  0.00  0.00    +0.000 A 
ATOM     15  C   UNL     1       7.908   5.700  19.177  0.00  0.00    +0.000 A 
ATOM     16  O   UNL     1       6.792   5.040  18.779  0.00  0.00    +0.000 OA
ENDBRANCH  11  12
ENDBRANCH   2  11
TORSDOF 5
ENDMDL
MODEL 8
REMARK VINA RESULT:      -5.6      2.015      2.430
REMARK  Name = 
REMARK  8 active torsions:
REMARK  status: ('A' for Active; 'I' for Inactive)
REMARK    1  A    between atoms: C_1  and  C_2
REMARK    2  A    between atoms: C_2  and  C_3
REMARK    3  A    between atoms: C_2  and  N_9
REMARK    4  A    between atoms: C_3  and  C_4
REMARK    5  A    between atoms: N_9  and  S_10
REMARK    6  A    between atoms: S_10  and  N_13
REMARK    7  A    between atoms: N_13  and  C_14
REMARK    8  A    between atoms: N_13  and  C_15
REMARK                            x       y       z     vdW  Elec       q    Type
REMARK                         _______ _______ _______ _____ _____    ______ ____
ROOT
ATOM      1  C   UNL     1       3.265   7.464  17.834  0.00  0.00    +0.000 C 
ATOM      2  C   UNL     1       3.476   6.204  18.700  0.00  0.00    +0.000 C 
ENDROOT
BRANCH   2   3
ATOM      3  N   UNL     1       3.512   5.051  17.724  0.00  0.00    +0.000 NA
ATOM      4  H   UNL     1       3.623   5.424  16.782  0.00  0.00    +0.000 HD
BRANCH   3   5
ATOM      5  S   UNL     1       4.752   3.926  17.887  0.00  0.00    +0.000 S 
ATOM      6  O   UNL     1       5.290   4.062  19.218  0.00  0.00    +0.000 OA
ATOM      7  O   UNL     1       4.372   2.662  17.315  0.00  0.00    +0.000 OA
BRANCH   5   8
ATOM      8  N   UNL     1       5.890   4.549  16.788  0.00  0.00    +0.000 NA
ATOM      9  C   UNL     1       7.231   4.591  17.450  0.00  0.00    +0.000 C 
ATOM     10  C   UNL     1       5.985   3.759  15.528  0.00  0.00    +0.000 C 
ENDBRANCH   5   8
ENDBRANCH   3   5
ENDBRANCH   2   3
BRANCH   2  11
ATOM     11  C   UNL     1       2.352   6.184  19.759  0.00  0.00    +0.000 C 
BRANCH  11  12
ATOM     12  C   UNL     1       1.932   4.841  20.242  0.00  0.00    +0.000 A 
ATOM     13  C   UNL     1       2.118   4.109  21.396  0.00  0.00    +0.000 A 
ATOM     14  C   UNL     1       1.593   2.816  21.134  0.00  0.00    +0.000 A 
ATOM     15  C   UNL     1       1.066   2.864  19.867  0.00  0.00    +0.000 A 
ATOM     16  O   UNL     1       1.181   4.118  19.362  0.00  0.00    +0.000 OA
ENDBRANCH  11  12
ENDBRANCH   2  11
TORSDOF 5
ENDMDL
MODEL 9
REMARK VINA RESULT:      -5.5      1.892      2.014
REMARK  Name = 
REMARK  8 active torsions:
REMARK  status: ('A' for Active; 'I' for Inactive)
REMARK    1  A    between atoms: C_1  and  C_2
REMARK    2  A    between atoms: C_2  and  C_3
REMARK    3  A    between atoms: C_2  and  N_9
REMARK    4  A    between atoms: C_3  and  C_4
REMARK    5  A    between atoms: N_9  and  S_10
REMARK    6  A    between atoms: S_10  and  N_13
REMARK    7  A    between atoms: N_13  and  C_14
REMARK    8  A    between atoms: N_13  and  C_15
REMARK                            x       y       z     vdW  Elec       q    Type
REMARK                         _______ _______ _______ _____ _____    ______ ____
ROOT
ATOM      1  C   UNL     1       4.925   3.488  19.419  0.00  0.00    +0.000 C 
ATOM      2  C   UNL     1       4.796   4.502  18.263  0.00  0.00    +0.000 C 
ENDROOT
BRANCH   2   3
ATOM      3  N   UNL     1       6.047   5.349  18.335  0.00  0.00    +0.000 NA
ATOM      4  H   UNL     1       6.625   5.012  19.103  0.00  0.00    +0.000 HD
BRANCH   3   5
ATOM      5  S   UNL     1       7.069   5.350  16.998  0.00  0.00    +0.000 S 
ATOM      6  O   UNL     1       7.516   6.706  16.794  0.00  0.00    +0.000 OA
ATOM      7  O   UNL     1       7.962   4.222  17.039  0.00  0.00    +0.000 OA
BRANCH   5   8
ATOM      8  N   UNL     1       5.971   4.961  15.760  0.00  0.00    +0.000 NA
ATOM      9  C   UNL     1       5.313   6.217  15.283  0.00  0.00    +0.000 C 
ATOM     10  C   UNL     1       6.608   4.266  14.606  0.00  0.00    +0.000 C 
ENDBRANCH   5   8
ENDBRANCH   3   5
ENDBRANCH   2   3
BRANCH   2  11
ATOM     11  C   UNL     1       3.449   5.235  18.445  0.00  0.00    +0.000 C 
BRANCH  11  12
ATOM     12  C   UNL     1       2.317   4.409  18.946  0.00  0.00    +0.000 A 
ATOM     13  C   UNL     1       1.590   4.343  20.116  0.00  0.00    +0.000 A 
ATOM     14  C   UNL     1       0.757   3.198  20.001  0.00  0.00    +0.000 A 
ATOM     15  C   UNL     1       0.984   2.682  18.749  0.00  0.00    +0.000 A 
ATOM     16  O   UNL     1       1.855   3.470  18.070  0.00  0.00    +0.000 OA
ENDBRANCH  11  12
ENDBRANCH   2  11
TORSDOF 5
ENDMDL
