MODEL 1
REMARK VINA RESULT:      -6.2      0.000      0.000
REMARK  Name = 
REMARK  2 active torsions:
REMARK  status: ('A' for Active; 'I' for Inactive)
REMARK    1  A    between atoms: C_2  and  C_3
REMARK    2  A    between atoms: N_5  and  C_6
REMARK                            x       y       z     vdW  Elec       q    Type
REMARK                         _______ _______ _______ _____ _____    ______ ____
ROOT
ATOM      1  C   UNL     1       5.221   4.032  17.818  0.00  0.00    +0.000 C 
ATOM      2  C   UNL     1       4.764   4.164  16.365  0.00  0.00    +0.000 C 
ATOM      3  C   UNL     1       5.890   3.946  15.371  0.00  0.00    +0.000 C 
ATOM      4  C   UNL     1       7.073   4.822  15.681  0.00  0.00    +0.000 C 
ATOM      5  O   UNL     1       7.747   5.364  14.811  0.00  0.00    +0.000 OA
ATOM      6  N   UNL     1       7.397   4.938  17.005  0.00  0.00    +0.000 N 
ATOM      7  C   UNL     1       6.579   4.705  18.076  0.00  0.00    +0.000 C 
ATOM      8  O   UNL     1       6.931   5.046  19.207  0.00  0.00    +0.000 OA
ATOM      9  H   UNL     1       8.226   5.484  17.206  0.00  0.00    +0.000 HD
ENDROOT
BRANCH   1  12
ATOM     10  C   UNL     1       3.492   3.958  19.599  0.00  0.00    +0.000 C 
ATOM     11  O   UNL     1       3.494   2.738  19.678  0.00  0.00    +0.000 OA
ATOM     12  N   UNL     1       4.282   4.672  18.740  0.00  0.00    +0.000 N 
ATOM     13  H   UNL     1       4.351   5.677  18.846  0.00  0.00    +0.000 HD
BRANCH  10  15
ATOM     14  C   UNL     1       1.310   4.519  20.574  0.00  0.00    +0.000 C 
ATOM     15  C   UNL     1       2.605   4.820  20.427  0.00  0.00    +0.000 C 
ENDBRANCH  10  15
ENDBRANCH   1  12
TORSDOF 2
ENDMDL
MODEL 2
REMARK VINA RESULT:      -6.1      3.176      6.042
REMARK  Name = 
REMARK  2 active torsions:
REMARK  status: ('A' for Active; 'I' for Inactive)
REMARK    1  A    between atoms: C_2  and  C_3
REMARK    2  A    between atoms: N_5  and  C_6
REMARK                            x       y       z     vdW  Elec       q    Type
REMARK                         _______ _______ _______ _____ _____    ______ ____
ROOT
ATOM      1  C   UNL     1       5.957   4.284  14.275  0.00  0.00    +0.000 C 
ATOM      2  C   UNL     1       5.533   3.679  15.614  0.00  0.00    +0.000 C 
ATOM      3  C   UNL     1       5.619   4.669  16.761  0.00  0.00    +0.000 C 
ATOM      4  C   UNL     1       6.976   5.315  16.828  0.00  0.00    +0.000 C 
ATOM      5  O   UNL     1       7.545   5.560  17.887  0.00  0.00    +0.000 OA
ATOM      6  N   UNL     1       7.524   5.673  15.627  0.00  0.00    +0.000 N 
ATOM      7  C   UNL     1       7.204   5.174  14.395  0.00  0.00    +0.000 C 
ATOM      8  O   UNL     1       7.916   5.431  13.421  0.00  0.00    +0.000 OA
ATOM      9  H   UNL     1       8.412   6.156  15.680  0.00  0.00    +0.000 HD
ENDROOT
BRANCH   1  12
ATOM     10  C   UNL     1       5.529   2.981  12.204  0.00  0.00    +0.000 C 
ATOM     11  O   UNL     1       4.491   3.569  11.939  0.00  0.00    +0.000 OA
ATOM     12  N   UNL     1       6.303   3.249  13.300  0.00  0.00    +0.000 N 
ATOM     13  H   UNL     1       7.229   2.842  13.366  0.00  0.00    +0.000 HD
BRANCH  10  15
ATOM     14  C   UNL     1       7.356   1.870  10.999  0.00  0.00    +0.000 C 
ATOM     15  C   UNL     1       6.069   1.877  11.365  0.00  0.00    +0.000 C 
ENDBRANCH  10  15
ENDBRANCH   1  12
TORSDOF 2
ENDMDL
MODEL 3
REMARK VINA RESULT:      -6.0      1.875      2.329
REMARK  Name = 
REMARK  2 active torsions:
REMARK  status: ('A' for Active; 'I' for Inactive)
REMARK    1  A    between atoms: C_2  and  C_3
REMARK    2  A    between atoms: N_5  and  C_6
REMARK                            x       y       z     vdW  Elec       q    Type
REMARK                         _______ _______ _______ _____ _____    ______ ____
ROOT
ATOM      1  C   UNL     1       3.565   4.732  17.442  0.00  0.00    +0.000 C 
ATOM      2  C   UNL     1       4.414   6.004  17.425  0.00  0.00    +0.000 C 
ATOM      3  C   UNL     1       5.504   5.971  16.370  0.00  0.00    +0.000 C 
ATOM      4  C   UNL     1       6.341   4.726  16.483  0.00  0.00    +0.000 C 
ATOM      5  O   UNL     1       7.555   4.721  16.311  0.00  0.00    +0.000 OA
ATOM      6  N   UNL     1       5.655   3.570  16.736  0.00  0.00    +0.000 N 
ATOM      7  C   UNL     1       4.407   3.456  17.284  0.00  0.00    +0.000 C 
ATOM      8  O   UNL     1       3.992   2.354  17.649  0.00  0.00    +0.000 OA
ATOM      9  H   UNL     1       6.214   2.726  16.758  0.00  0.00    +0.000 HD
ENDROOT
BRANCH   1  12
ATOM     10  C   UNL     1       1.572   4.089  18.777  0.00  0.00    +0.000 C 
ATOM     11  O   UNL     1       0.920   3.740  17.804  0.00  0.00    +0.000 OA
ATOM     12  N   UNL     1       2.848   4.578  18.708  0.00  0.00    +0.000 N 
ATOM     13  H   UNL     1       3.386   4.688  19.560  0.00  0.00    +0.000 HD
BRANCH  10  15
ATOM     14  C   UNL     1       1.294   2.986  20.952  0.00  0.00    +0.000 C 
ATOM     15  C   UNL     1       1.042   4.039  20.167  0.00  0.00    +0.000 C 
ENDBRANCH  10  15
ENDBRANCH   1  12
TORSDOF 2
ENDMDL
MODEL 4
REMARK VINA RESULT:      -6.0      2.250      4.767
REMARK  Name = 
REMARK  2 active torsions:
REMARK  status: ('A' for Active; 'I' for Inactive)
REMARK    1  A    between atoms: C_2  and  C_3
REMARK    2  A    between atoms: N_5  and  C_6
REMARK                            x       y       z     vdW  Elec       q    Type
REMARK                         _______ _______ _______ _____ _____    ______ ____
ROOT
ATOM      1  C   UNL     1       4.922   4.795  18.621  0.00  0.00    +0.000 C 
ATOM      2  C   UNL     1       3.713   5.507  19.230  0.00  0.00    +0.000 C 
ATOM      3  C   UNL     1       2.446   4.673  19.168  0.00  0.00    +0.000 C 
ATOM      4  C   UNL     1       2.178   4.182  17.772  0.00  0.00    +0.000 C 
ATOM      5  O   UNL     1       1.051   4.124  17.291  0.00  0.00    +0.000 OA
ATOM      6  N   UNL     1       3.271   3.744  17.075  0.00  0.00    +0.000 N 
ATOM      7  C   UNL     1       4.580   4.058  17.316  0.00  0.00    +0.000 C 
ATOM      8  O   UNL     1       5.447   3.763  16.489  0.00  0.00    +0.000 OA
ATOM      9  H   UNL     1       3.080   3.364  16.157  0.00  0.00    +0.000 HD
ENDROOT
BRANCH   1  12
ATOM     10  C   UNL     1       7.137   5.849  19.006  0.00  0.00    +0.000 C 
ATOM     11  O   UNL     1       7.383   5.184  20.002  0.00  0.00    +0.000 OA
ATOM     12  N   UNL     1       5.986   5.738  18.275  0.00  0.00    +0.000 N 
ATOM     13  H   UNL     1       5.923   6.196  17.373  0.00  0.00    +0.000 HD
BRANCH  10  15
ATOM     14  C   UNL     1       7.637   7.794  17.593  0.00  0.00    +0.000 C 
ATOM     15  C   UNL     1       8.065   6.885  18.476  0.00  0.00    +0.000 C 
ENDBRANCH  10  15
ENDBRANCH   1  12
TORSDOF 2
ENDMDL
MODEL 5
REMARK VINA RESULT:      -6.0      1.849      2.575
REMARK  Name = 
REMARK  2 active torsions:
REMARK  status: ('A' for Active; 'I' for Inactive)
REMARK    1  A    between atoms: C_2  and  C_3
REMARK    2  A    between atoms: N_5  and  C_6
REMARK                            x       y       z     vdW  Elec       q    Type
REMARK                         _______ _______ _______ _____ _____    ______ ____
ROOT
ATOM      1  C   UNL     1       4.338   4.977  18.537  0.00  0.00    +0.000 C 
ATOM      2  C   UNL     1       5.574   5.292  19.382  0.00  0.00    +0.000 C 
ATOM      3  C   UNL     1       6.792   5.626  18.541  0.00  0.00    +0.000 C 
ATOM      4  C   UNL     1       7.058   4.562  17.512  0.00  0.00    +0.000 C 
ATOM      5  O   UNL     1       8.189   4.192  17.212  0.00  0.00    +0.000 OA
ATOM      6  N   UNL     1       5.955   4.061  16.876  0.00  0.00    +0.000 N 
ATOM      7  C   UNL     1       4.662   4.099  17.318  0.00  0.00    +0.000 C 
ATOM      8  O   UNL     1       3.795   3.430  16.750  0.00  0.00    +0.000 OA
ATOM      9  H   UNL     1       6.142   3.384  16.146  0.00  0.00    +0.000 HD
ENDROOT
BRANCH   1  12
ATOM     10  C   UNL     1       2.332   4.854  19.996  0.00  0.00    +0.000 C 
ATOM     11  O   UNL     1       2.178   6.066  20.042  0.00  0.00    +0.000 OA
ATOM     12  N   UNL     1       3.336   4.235  19.303  0.00  0.00    +0.000 N 
ATOM     13  H   UNL     1       3.303   3.230  19.170  0.00  0.00    +0.000 HD
BRANCH  10  15
ATOM     14  C   UNL     1       1.939   3.079  21.645  0.00  0.00    +0.000 C 
ATOM     15  C   UNL     1       1.443   3.899  20.712  0.00  0.00    +0.000 C 
ENDBRANCH  10  15
ENDBRANCH   1  12
TORSDOF 2
ENDMDL
MODEL 6
REMARK VINA RESULT:      -5.9      1.994      2.170
REMARK  Name = 
REMARK  2 active torsions:
REMARK  status: ('A' for Active; 'I' for Inactive)
REMARK    1  A    between atoms: C_2  and  C_3
REMARK    2  A    between atoms: N_5  and  C_6
REMARK                            x       y       z     vdW  Elec       q    Type
REMARK                         _______ _______ _______ _____ _____    ______ ____
ROOT
ATOM      1  C   UNL     1       3.926   4.831  17.911  0.00  0.00    +0.000 C 
ATOM      2  C   UNL     1       3.771   6.227  17.306  0.00  0.00    +0.000 C 
ATOM      3  C   UNL     1       4.972   6.646  16.478  0.00  0.00    +0.000 C 
ATOM      4  C   UNL     1       6.253   6.497  17.252  0.00  0.00    +0.000 C 
ATOM      5  O   UNL     1       7.175   7.303  17.178  0.00  0.00    +0.000 OA
ATOM      6  N   UNL     1       6.360   5.365  18.013  0.00  0.00    +0.000 N 
ATOM      7  C   UNL     1       5.336   4.580  18.468  0.00  0.00    +0.000 C 
ATOM      8  O   UNL     1       5.556   3.710  19.315  0.00  0.00    +0.000 OA
ATOM      9  H   UNL     1       7.244   5.241  18.490  0.00  0.00    +0.000 HD
ENDROOT
BRANCH   1  12
ATOM     10  C   UNL     1       1.761   4.102  18.884  0.00  0.00    +0.000 C 
ATOM     11  O   UNL     1       1.289   3.759  17.809  0.00  0.00    +0.000 OA
ATOM     12  N   UNL     1       3.015   4.628  19.037  0.00  0.00    +0.000 N 
ATOM     13  H   UNL     1       3.400   4.731  19.969  0.00  0.00    +0.000 HD
BRANCH  10  15
ATOM     14  C   UNL     1       1.386   3.134  21.109  0.00  0.00    +0.000 C 
ATOM     15  C   UNL     1       1.009   4.004  20.165  0.00  0.00    +0.000 C 
ENDBRANCH  10  15
ENDBRANCH   1  12
TORSDOF 2
ENDMDL
MODEL 7
REMARK VINA RESULT:      -5.9      1.939      5.332
REMARK  Name = 
REMARK  2 active torsions:
REMARK  status: ('A' for Active; 'I' for Inactive)
REMARK    1  A    between atoms: C_2  and  C_3
REMARK    2  A    between atoms: N_5  and  C_6
REMARK                            x       y       z     vdW  Elec       q    Type
REMARK                         _______ _______ _______ _____ _____    ______ ____
ROOT
ATOM      1  C   UNL     1       3.758   4.275  17.677  0.00  0.00    +0.000 C 
ATOM      2  C   UNL     1       2.365   3.707  17.397  0.00  0.00    +0.000 C 
ATOM      3  C   UNL     1       1.461   3.739  18.615  0.00  0.00    +0.000 C 
ATOM      4  C   UNL     1       2.117   3.089  19.803  0.00  0.00    +0.000 C 
ATOM      5  O   UNL     1       1.504   2.389  20.603  0.00  0.00    +0.000 OA
ATOM      6  N   UNL     1       3.443   3.373  19.980  0.00  0.00    +0.000 N 
ATOM      7  C   UNL     1       4.321   3.821  19.032  0.00  0.00    +0.000 C 
ATOM      8  O   UNL     1       5.531   3.838  19.272  0.00  0.00    +0.000 OA
ATOM      9  H   UNL     1       3.867   2.979  20.810  0.00  0.00    +0.000 HD
ENDROOT
BRANCH   1  12
ATOM     10  C   UNL     1       5.342   4.703  15.813  0.00  0.00    +0.000 C 
ATOM     11  O   UNL     1       5.137   5.908  15.793  0.00  0.00    +0.000 OA
ATOM     12  N   UNL     1       4.730   3.836  16.676  0.00  0.00    +0.000 N 
ATOM     13  H   UNL     1       5.071   2.883  16.749  0.00  0.00    +0.000 HD
BRANCH  10  15
ATOM     14  C   UNL     1       5.949   3.856  13.590  0.00  0.00    +0.000 C 
ATOM     15  C   UNL     1       6.280   4.027  14.875  0.00  0.00    +0.000 C 
ENDBRANCH  10  15
ENDBRANCH   1  12
TORSDOF 2
ENDMDL
MODEL 8
REMARK VINA RESULT:      -5.9      1.631      1.658
REMARK  Name = 
REMARK  2 active torsions:
REMARK  status: ('A' for Active; 'I' for Inactive)
REMARK    1  A    between atoms: C_2  and  C_3
REMARK    2  A    between atoms: N_5  and  C_6
REMARK                            x       y       z     vdW  Elec       q    Type
REMARK                         _______ _______ _______ _____ _____    ______ ____
ROOT
ATOM      1  C   UNL     1       4.732   3.791  18.268  0.00  0.00    +0.000 C 
ATOM      2  C   UNL     1       4.073   3.769  16.887  0.00  0.00    +0.000 C 
ATOM      3  C   UNL     1       4.946   4.385  15.809  0.00  0.00    +0.000 C 
ATOM      4  C   UNL     1       5.413   5.760  16.199  0.00  0.00    +0.000 C 
ATOM      5  O   UNL     1       5.498   6.687  15.399  0.00  0.00    +0.000 OA
ATOM      6  N   UNL     1       5.800   5.910  17.502  0.00  0.00    +0.000 N 
ATOM      7  C   UNL     1       5.449   5.118  18.561  0.00  0.00    +0.000 C 
ATOM      8  O   UNL     1       5.697   5.483  19.713  0.00  0.00    +0.000 OA
ATOM      9  H   UNL     1       6.165   6.822  17.747  0.00  0.00    +0.000 HD
ENDROOT
BRANCH   1  12
ATOM     10  C   UNL     1       3.877   2.688  20.322  0.00  0.00    +0.000 C 
ATOM     11  O   UNL     1       4.811   1.903  20.399  0.00  0.00    +0.000 OA
ATOM     12  N   UNL     1       3.747   3.630  19.338  0.00  0.00    +0.000 N 
ATOM     13  H   UNL     1       3.042   4.352  19.430  0.00  0.00    +0.000 HD
BRANCH  10  15
ATOM     14  C   UNL     1       1.512   3.024  20.891  0.00  0.00    +0.000 C 
ATOM     15  C   UNL     1       2.747   2.698  21.290  0.00  0.00    +0.000 C 
ENDBRANCH  10  15
ENDBRANCH   1  12
TORSDOF 2
ENDMDL
MODEL 9
REMARK VINA RESULT:      -5.9      1.628      1.715
REMARK  Name = 
REMARK  2 active torsions:
REMARK  status: ('A' for Active; 'I' for Inactive)
REMARK    1  A    between atoms: C_2  and  C_3
REMARK    2  A    between atoms: N_5  and  C_6
REMARK                            x       y       z     vdW  Elec       q    Type
REMARK                         _______ _______ _______ _____ _____    ______ ____
ROOT
ATOM      1  C   UNL     1       4.838   3.722  17.121  0.00  0.00    +0.000 C 
ATOM      2  C   UNL     1       4.956   4.481  15.799  0.00  0.00    +0.000 C 
ATOM      3  C   UNL     1       6.373   4.940  15.508  0.00  0.00    +0.000 C 
ATOM      4  C   UNL     1       6.950   5.710  16.664  0.00  0.00    +0.000 C 
ATOM      5  O   UNL     1       7.663   6.698  16.518  0.00  0.00    +0.000 OA
ATOM      6  N   UNL     1       6.679   5.209  17.907  0.00  0.00    +0.000 N 
ATOM      7  C   UNL     1       5.656   4.368  18.250  0.00  0.00    +0.000 C 
ATOM      8  O   UNL     1       5.402   4.159  19.439  0.00  0.00    +0.000 OA
ATOM      9  H   UNL     1       7.113   5.698  18.680  0.00  0.00    +0.000 HD
ENDROOT
BRANCH   1  12
ATOM     10  C   UNL     1       2.860   2.541  18.048  0.00  0.00    +0.000 C 
ATOM     11  O   UNL     1       3.412   1.451  18.085  0.00  0.00    +0.000 OA
ATOM     12  N   UNL     1       3.457   3.689  17.602  0.00  0.00    +0.000 N 
ATOM     13  H   UNL     1       3.000   4.580  17.757  0.00  0.00    +0.000 HD
BRANCH  10  15
ATOM     14  C   UNL     1       1.167   3.305  19.654  0.00  0.00    +0.000 C 
ATOM     15  C   UNL     1       1.447   2.746  18.471  0.00  0.00    +0.000 C 
ENDBRANCH  10  15
ENDBRANCH   1  12
TORSDOF 2
ENDMDL
