MODEL 1
REMARK VINA RESULT:      -7.3      0.000      0.000
REMARK  Name = 
REMARK  5 active torsions:
REMARK  status: ('A' for Active; 'I' for Inactive)
REMARK    1  A    between atoms: N_3  and  C_4
REMARK    2  A    between atoms: N_7  and  C_8
REMARK    3  A    between atoms: C_8  and  C_9
REMARK    4  A    between atoms: C_21  and  C_22
REMARK    5  A    between atoms: C_22  and  O_23
REMARK                            x       y       z     vdW  Elec       q    Type
REMARK                         _______ _______ _______ _____ _____    ______ ____
ROOT
ATOM      1  C   UNL     1       1.592   7.648  20.430  0.00  0.00    +0.000 A 
ATOM      2  C   UNL     1       1.277   8.503  21.504  0.00  0.00    +0.000 A 
ATOM      3  N   UNL     1       1.019   9.753  21.105  0.00  0.00    +0.000 NA
ATOM      4  N   UNL     1       1.172   9.698  19.767  0.00  0.00    +0.000 N 
ATOM      5  C   UNL     1       1.587   8.469  19.319  0.00  0.00    +0.000 A 
ENDROOT
BRANCH   1   8
ATOM      6  O   UNL     1       3.678   6.421  19.005  0.00  0.00    +0.000 OA
ATOM      7  C   UNL     1       2.893   5.750  19.671  0.00  0.00    +0.000 C 
ATOM      8  N   UNL     1       1.852   6.288  20.399  0.00  0.00    +0.000 N 
ATOM      9  N   UNL     1       3.025   4.372  19.781  0.00  0.00    +0.000 N 
ATOM     10  C   UNL     1       4.189   3.725  19.194  0.00  0.00    +0.000 C 
ATOM     11  C   UNL     1       3.610   2.594  18.369  0.00  0.00    +0.000 C 
ATOM     12  C   UNL     1       2.422   2.136  19.205  0.00  0.00    +0.000 C 
ATOM     13  C   UNL     1       1.922   3.414  19.915  0.00  0.00    +0.000 C 
ATOM     14  H   UNL     1       1.534   5.768  21.195  0.00  0.00    +0.000 HD
BRANCH  13  15
ATOM     15  C   UNL     1       1.540   3.096  21.369  0.00  0.00    +0.000 C 
BRANCH  15  16
ATOM     16  O   UNL     1       2.640   2.550  22.087  0.00  0.00    +0.000 OA
ATOM     17  H   UNL     1       2.717   3.026  22.932  0.00  0.00    +0.000 HD
ENDBRANCH  15  16
ENDBRANCH  13  15
ENDBRANCH   1   8
BRANCH   4  18
ATOM     18  C   UNL     1       0.799  10.850  18.952  0.00  0.00    +0.000 C 
BRANCH  18  19
ATOM     19  C   UNL     1      -0.674  10.860  18.627  0.00  0.00    +0.000 A 
ATOM     20  C   UNL     1      -1.201   9.958  17.691  0.00  0.00    +0.000 A 
ATOM     21  C   UNL     1      -2.551  10.018  17.335  0.00  0.00    +0.000 A 
ATOM     22  C   UNL     1      -3.384  10.966  17.924  0.00  0.00    +0.000 A 
ATOM     23 CL   UNL     1      -5.027  11.086  17.430  0.00  0.00    +0.000 Cl
ATOM     24  C   UNL     1      -2.890  11.829  18.898  0.00  0.00    +0.000 A 
ATOM     25  C   UNL     1      -1.542  11.767  19.256  0.00  0.00    +0.000 A 
ENDBRANCH  18  19
ENDBRANCH   4  18
TORSDOF 5
ENDMDL
MODEL 2
REMARK VINA RESULT:      -7.3      3.747      8.254
REMARK  Name = 
REMARK  5 active torsions:
REMARK  status: ('A' for Active; 'I' for Inactive)
REMARK    1  A    between atoms: N_3  and  C_4
REMARK    2  A    between atoms: N_7  and  C_8
REMARK    3  A    between atoms: C_8  and  C_9
REMARK    4  A    between atoms: C_21  and  C_22
REMARK    5  A    between atoms: C_22  and  O_23
REMARK                            x       y       z     vdW  Elec       q    Type
REMARK                         _______ _______ _______ _____ _____    ______ ____
ROOT
ATOM      1  C   UNL     1       2.355   6.610  19.752  0.00  0.00    +0.000 A 
ATOM      2  C   UNL     1       1.833   5.489  20.426  0.00  0.00    +0.000 A 
ATOM      3  N   UNL     1       2.619   4.413  20.316  0.00  0.00    +0.000 NA
ATOM      4  N   UNL     1       3.650   4.849  19.564  0.00  0.00    +0.000 N 
ATOM      5  C   UNL     1       3.502   6.145  19.139  0.00  0.00    +0.000 A 
ENDROOT
BRANCH   1   8
ATOM      6  O   UNL     1       1.095   8.021  21.828  0.00  0.00    +0.000 OA
ATOM      7  C   UNL     1       1.280   8.548  20.733  0.00  0.00    +0.000 C 
ATOM      8  N   UNL     1       1.897   7.915  19.674  0.00  0.00    +0.000 N 
ATOM      9  N   UNL     1       0.915   9.865  20.488  0.00  0.00    +0.000 N 
ATOM     10  C   UNL     1       0.414  10.676  21.588  0.00  0.00    +0.000 C 
ATOM     11  C   UNL     1      -0.869  11.276  21.053  0.00  0.00    +0.000 C 
ATOM     12  C   UNL     1      -0.546  11.523  19.586  0.00  0.00    +0.000 C 
ATOM     13  C   UNL     1       0.443  10.398  19.206  0.00  0.00    +0.000 C 
ATOM     14  H   UNL     1       2.359   8.497  19.000  0.00  0.00    +0.000 HD
BRANCH  13  15
ATOM     15  C   UNL     1       1.560  10.957  18.309  0.00  0.00    +0.000 C 
BRANCH  15  16
ATOM     16  O   UNL     1       2.007   9.985  17.370  0.00  0.00    +0.000 OA
ATOM     17  H   UNL     1       2.349  10.453  16.589  0.00  0.00    +0.000 HD
ENDBRANCH  15  16
ENDBRANCH  13  15
ENDBRANCH   1   8
BRANCH   4  18
ATOM     18  C   UNL     1       4.814   3.989  19.371  0.00  0.00    +0.000 C 
BRANCH  18  19
ATOM     19  C   UNL     1       5.431   4.168  18.006  0.00  0.00    +0.000 A 
ATOM     20  C   UNL     1       6.740   4.656  17.876  0.00  0.00    +0.000 A 
ATOM     21  C   UNL     1       7.282   4.893  16.610  0.00  0.00    +0.000 A 
ATOM     22  C   UNL     1       6.528   4.627  15.470  0.00  0.00    +0.000 A 
ATOM     23 CL   UNL     1       7.172   4.988  13.916  0.00  0.00    +0.000 Cl
ATOM     24  C   UNL     1       5.250   4.087  15.581  0.00  0.00    +0.000 A 
ATOM     25  C   UNL     1       4.709   3.848  16.845  0.00  0.00    +0.000 A 
ENDBRANCH  18  19
ENDBRANCH   4  18
TORSDOF 5
ENDMDL
MODEL 3
REMARK VINA RESULT:      -7.3      0.299      1.051
REMARK  Name = 
REMARK  5 active torsions:
REMARK  status: ('A' for Active; 'I' for Inactive)
REMARK    1  A    between atoms: N_3  and  C_4
REMARK    2  A    between atoms: N_7  and  C_8
REMARK    3  A    between atoms: C_8  and  C_9
REMARK    4  A    between atoms: C_21  and  C_22
REMARK    5  A    between atoms: C_22  and  O_23
REMARK                            x       y       z     vdW  Elec       q    Type
REMARK                         _______ _______ _______ _____ _____    ______ ____
ROOT
ATOM      1  C   UNL     1       1.616   7.471  20.401  0.00  0.00    +0.000 A 
ATOM      2  C   UNL     1       1.237   8.312  21.465  0.00  0.00    +0.000 A 
ATOM      3  N   UNL     1       1.032   9.574  21.072  0.00  0.00    +0.000 NA
ATOM      4  N   UNL     1       1.284   9.540  19.747  0.00  0.00    +0.000 N 
ATOM      5  C   UNL     1       1.710   8.311  19.309  0.00  0.00    +0.000 A 
ENDROOT
BRANCH   1   8
ATOM      6  O   UNL     1       3.818   6.234  19.171  0.00  0.00    +0.000 OA
ATOM      7  C   UNL     1       2.955   5.564  19.735  0.00  0.00    +0.000 C 
ATOM      8  N   UNL     1       1.853   6.106  20.364  0.00  0.00    +0.000 N 
ATOM      9  N   UNL     1       3.050   4.181  19.824  0.00  0.00    +0.000 N 
ATOM     10  C   UNL     1       4.257   3.524  19.346  0.00  0.00    +0.000 C 
ATOM     11  C   UNL     1       3.747   2.424  18.438  0.00  0.00    +0.000 C 
ATOM     12  C   UNL     1       2.470   1.972  19.134  0.00  0.00    +0.000 C 
ATOM     13  C   UNL     1       1.922   3.244  19.819  0.00  0.00    +0.000 C 
ATOM     14  H   UNL     1       1.445   5.575  21.109  0.00  0.00    +0.000 HD
BRANCH  13  15
ATOM     15  C   UNL     1       1.384   2.901  21.218  0.00  0.00    +0.000 C 
BRANCH  15  16
ATOM     16  O   UNL     1       2.236   3.405  22.240  0.00  0.00    +0.000 OA
ATOM     17  H   UNL     1       2.986   2.794  22.339  0.00  0.00    +0.000 HD
ENDBRANCH  15  16
ENDBRANCH  13  15
ENDBRANCH   1   8
BRANCH   4  18
ATOM     18  C   UNL     1       0.995  10.713  18.929  0.00  0.00    +0.000 C 
BRANCH  18  19
ATOM     19  C   UNL     1      -0.471  10.815  18.585  0.00  0.00    +0.000 A 
ATOM     20  C   UNL     1      -1.281  11.778  19.205  0.00  0.00    +0.000 A 
ATOM     21  C   UNL     1      -2.652  11.822  18.943  0.00  0.00    +0.000 A 
ATOM     22  C   UNL     1      -3.218  10.918  18.047  0.00  0.00    +0.000 A 
ATOM     23 CL   UNL     1      -4.918  10.928  17.781  0.00  0.00    +0.000 Cl
ATOM     24  C   UNL     1      -2.419   9.996  17.378  0.00  0.00    +0.000 A 
ATOM     25  C   UNL     1      -1.048   9.953  17.639  0.00  0.00    +0.000 A 
ENDBRANCH  18  19
ENDBRANCH   4  18
TORSDOF 5
ENDMDL
MODEL 4
REMARK VINA RESULT:      -7.2      4.330      8.459
REMARK  Name = 
REMARK  5 active torsions:
REMARK  status: ('A' for Active; 'I' for Inactive)
REMARK    1  A    between atoms: N_3  and  C_4
REMARK    2  A    between atoms: N_7  and  C_8
REMARK    3  A    between atoms: C_8  and  C_9
REMARK    4  A    between atoms: C_21  and  C_22
REMARK    5  A    between atoms: C_22  and  O_23
REMARK                            x       y       z     vdW  Elec       q    Type
REMARK                         _______ _______ _______ _____ _____    ______ ____
ROOT
ATOM      1  C   UNL     1       2.536   6.226  18.318  0.00  0.00    +0.000 A 
ATOM      2  C   UNL     1       1.837   5.038  18.028  0.00  0.00    +0.000 A 
ATOM      3  N   UNL     1       2.651   4.043  17.659  0.00  0.00    +0.000 NA
ATOM      4  N   UNL     1       3.878   4.600  17.711  0.00  0.00    +0.000 N 
ATOM      5  C   UNL     1       3.855   5.934  18.034  0.00  0.00    +0.000 A 
ENDROOT
BRANCH   1   8
ATOM      6  O   UNL     1       1.771   6.766  20.967  0.00  0.00    +0.000 OA
ATOM      7  C   UNL     1       1.721   7.644  20.108  0.00  0.00    +0.000 C 
ATOM      8  N   UNL     1       2.088   7.449  18.792  0.00  0.00    +0.000 N 
ATOM      9  N   UNL     1       1.327   8.939  20.413  0.00  0.00    +0.000 N 
ATOM     10  C   UNL     1       1.086   9.295  21.803  0.00  0.00    +0.000 C 
ATOM     11  C   UNL     1      -0.276   9.958  21.786  0.00  0.00    +0.000 C 
ATOM     12  C   UNL     1      -0.274  10.709  20.461  0.00  0.00    +0.000 C 
ATOM     13  C   UNL     1       0.596   9.845  19.520  0.00  0.00    +0.000 C 
ATOM     14  H   UNL     1       2.400   8.253  18.280  0.00  0.00    +0.000 HD
BRANCH  13  15
ATOM     15  C   UNL     1       1.499  10.745  18.661  0.00  0.00    +0.000 C 
BRANCH  15  16
ATOM     16  O   UNL     1       1.866  10.103  17.445  0.00  0.00    +0.000 OA
ATOM     17  H   UNL     1       2.741   9.696  17.569  0.00  0.00    +0.000 HD
ENDBRANCH  15  16
ENDBRANCH  13  15
ENDBRANCH   1   8
BRANCH   4  18
ATOM     18  C   UNL     1       5.058   3.758  17.538  0.00  0.00    +0.000 C 
BRANCH  18  19
ATOM     19  C   UNL     1       5.812   4.093  16.274  0.00  0.00    +0.000 A 
ATOM     20  C   UNL     1       7.030   4.787  16.336  0.00  0.00    +0.000 A 
ATOM     21  C   UNL     1       7.688   5.162  15.162  0.00  0.00    +0.000 A 
ATOM     22  C   UNL     1       7.144   4.832  13.924  0.00  0.00    +0.000 A 
ATOM     23 CL   UNL     1       7.919   5.359  12.481  0.00  0.00    +0.000 Cl
ATOM     24  C   UNL     1       5.968   4.092  13.846  0.00  0.00    +0.000 A 
ATOM     25  C   UNL     1       5.311   3.714  15.019  0.00  0.00    +0.000 A 
ENDBRANCH  18  19
ENDBRANCH   4  18
TORSDOF 5
ENDMDL
MODEL 5
REMARK VINA RESULT:      -7.2      3.808      8.217
REMARK  Name = 
REMARK  5 active torsions:
REMARK  status: ('A' for Active; 'I' for Inactive)
REMARK    1  A    between atoms: N_3  and  C_4
REMARK    2  A    between atoms: N_7  and  C_8
REMARK    3  A    between atoms: C_8  and  C_9
REMARK    4  A    between atoms: C_21  and  C_22
REMARK    5  A    between atoms: C_22  and  O_23
REMARK                            x       y       z     vdW  Elec       q    Type
REMARK                         _______ _______ _______ _____ _____    ______ ____
ROOT
ATOM      1  C   UNL     1       2.346   6.626  19.752  0.00  0.00    +0.000 A 
ATOM      2  C   UNL     1       1.892   5.523  20.500  0.00  0.00    +0.000 A 
ATOM      3  N   UNL     1       2.665   4.444  20.341  0.00  0.00    +0.000 NA
ATOM      4  N   UNL     1       3.619   4.859  19.483  0.00  0.00    +0.000 N 
ATOM      5  C   UNL     1       3.429   6.145  19.043  0.00  0.00    +0.000 A 
ENDROOT
BRANCH   1   8
ATOM      6  O   UNL     1       1.082   8.012  21.842  0.00  0.00    +0.000 OA
ATOM      7  C   UNL     1       1.263   8.550  20.752  0.00  0.00    +0.000 C 
ATOM      8  N   UNL     1       1.882   7.930  19.686  0.00  0.00    +0.000 N 
ATOM      9  N   UNL     1       0.891   9.867  20.519  0.00  0.00    +0.000 N 
ATOM     10  C   UNL     1       0.388  10.665  21.627  0.00  0.00    +0.000 C 
ATOM     11  C   UNL     1      -0.899  11.264  21.099  0.00  0.00    +0.000 C 
ATOM     12  C   UNL     1      -0.578  11.526  19.634  0.00  0.00    +0.000 C 
ATOM     13  C   UNL     1       0.416  10.410  19.242  0.00  0.00    +0.000 C 
ATOM     14  H   UNL     1       2.341   8.520  19.018  0.00  0.00    +0.000 HD
BRANCH  13  15
ATOM     15  C   UNL     1       1.528  10.982  18.350  0.00  0.00    +0.000 C 
BRANCH  15  16
ATOM     16  O   UNL     1       1.973  10.024  17.396  0.00  0.00    +0.000 OA
ATOM     17  H   UNL     1       1.492  10.179  16.564  0.00  0.00    +0.000 HD
ENDBRANCH  15  16
ENDBRANCH  13  15
ENDBRANCH   1   8
BRANCH   4  18
ATOM     18  C   UNL     1       4.759   3.993  19.201  0.00  0.00    +0.000 C 
BRANCH  18  19
ATOM     19  C   UNL     1       5.371   4.284  17.853  0.00  0.00    +0.000 A 
ATOM     20  C   UNL     1       4.647   4.037  16.676  0.00  0.00    +0.000 A 
ATOM     21  C   UNL     1       5.242   4.236  15.427  0.00  0.00    +0.000 A 
ATOM     22  C   UNL     1       6.553   4.698  15.347  0.00  0.00    +0.000 A 
ATOM     23 CL   UNL     1       7.306   4.871  13.810  0.00  0.00    +0.000 Cl
ATOM     24  C   UNL     1       7.264   5.004  16.504  0.00  0.00    +0.000 A 
ATOM     25  C   UNL     1       6.669   4.808  17.751  0.00  0.00    +0.000 A 
ENDBRANCH  18  19
ENDBRANCH   4  18
TORSDOF 5
ENDMDL
MODEL 6
REMARK VINA RESULT:      -7.2      4.440      8.454
REMARK  Name = 
REMARK  5 active torsions:
REMARK  status: ('A' for Active; 'I' for Inactive)
REMARK    1  A    between atoms: N_3  and  C_4
REMARK    2  A    between atoms: N_7  and  C_8
REMARK    3  A    between atoms: C_8  and  C_9
REMARK    4  A    between atoms: C_21  and  C_22
REMARK    5  A    between atoms: C_22  and  O_23
REMARK                            x       y       z     vdW  Elec       q    Type
REMARK                         _______ _______ _______ _____ _____    ______ ____
ROOT
ATOM      1  C   UNL     1       2.675   6.469  18.316  0.00  0.00    +0.000 A 
ATOM      2  C   UNL     1       2.069   5.215  18.111  0.00  0.00    +0.000 A 
ATOM      3  N   UNL     1       2.942   4.283  17.716  0.00  0.00    +0.000 NA
ATOM      4  N   UNL     1       4.115   4.946  17.665  0.00  0.00    +0.000 N 
ATOM      5  C   UNL     1       3.994   6.283  17.949  0.00  0.00    +0.000 A 
ENDROOT
BRANCH   1   8
ATOM      6  O   UNL     1       1.786   6.943  20.938  0.00  0.00    +0.000 OA
ATOM      7  C   UNL     1       1.727   7.827  20.086  0.00  0.00    +0.000 C 
ATOM      8  N   UNL     1       2.152   7.664  18.783  0.00  0.00    +0.000 N 
ATOM      9  N   UNL     1       1.261   9.099  20.387  0.00  0.00    +0.000 N 
ATOM     10  C   UNL     1       0.950   9.428  21.771  0.00  0.00    +0.000 C 
ATOM     11  C   UNL     1      -0.440  10.026  21.708  0.00  0.00    +0.000 C 
ATOM     12  C   UNL     1      -0.424  10.790  20.391  0.00  0.00    +0.000 C 
ATOM     13  C   UNL     1       0.522   9.979  19.476  0.00  0.00    +0.000 C 
ATOM     14  H   UNL     1       2.445   8.487  18.292  0.00  0.00    +0.000 HD
BRANCH  13  15
ATOM     15  C   UNL     1       1.413  10.930  18.661  0.00  0.00    +0.000 C 
BRANCH  15  16
ATOM     16  O   UNL     1       1.887  10.306  17.473  0.00  0.00    +0.000 OA
ATOM     17  H   UNL     1       1.399   9.473  17.352  0.00  0.00    +0.000 HD
ENDBRANCH  15  16
ENDBRANCH  13  15
ENDBRANCH   1   8
BRANCH   4  18
ATOM     18  C   UNL     1       5.352   4.206  17.435  0.00  0.00    +0.000 C 
BRANCH  18  19
ATOM     19  C   UNL     1       5.841   4.349  16.015  0.00  0.00    +0.000 A 
ATOM     20  C   UNL     1       5.127   3.768  14.956  0.00  0.00    +0.000 A 
ATOM     21  C   UNL     1       5.620   3.836  13.651  0.00  0.00    +0.000 A 
ATOM     22  C   UNL     1       6.818   4.499  13.394  0.00  0.00    +0.000 A 
ATOM     23 CL   UNL     1       7.459   4.519  11.798  0.00  0.00    +0.000 Cl
ATOM     24  C   UNL     1       7.507   5.132  14.424  0.00  0.00    +0.000 A 
ATOM     25  C   UNL     1       7.013   5.066  15.728  0.00  0.00    +0.000 A 
ENDBRANCH  18  19
ENDBRANCH   4  18
TORSDOF 5
ENDMDL
MODEL 7
REMARK VINA RESULT:      -7.1      1.726      1.952
REMARK  Name = 
REMARK  5 active torsions:
REMARK  status: ('A' for Active; 'I' for Inactive)
REMARK    1  A    between atoms: N_3  and  C_4
REMARK    2  A    between atoms: N_7  and  C_8
REMARK    3  A    between atoms: C_8  and  C_9
REMARK    4  A    between atoms: C_21  and  C_22
REMARK    5  A    between atoms: C_22  and  O_23
REMARK                            x       y       z     vdW  Elec       q    Type
REMARK                         _______ _______ _______ _____ _____    ______ ____
ROOT
ATOM      1  C   UNL     1       2.200   7.626  19.374  0.00  0.00    +0.000 A 
ATOM      2  C   UNL     1       1.400   8.048  20.454  0.00  0.00    +0.000 A 
ATOM      3  N   UNL     1       0.858   9.253  20.250  0.00  0.00    +0.000 NA
ATOM      4  N   UNL     1       1.316   9.605  19.031  0.00  0.00    +0.000 N 
ATOM      5  C   UNL     1       2.186   8.690  18.494  0.00  0.00    +0.000 A 
ENDROOT
BRANCH   1   8
ATOM      6  O   UNL     1       1.304   5.521  17.744  0.00  0.00    +0.000 OA
ATOM      7  C   UNL     1       2.373   5.438  18.345  0.00  0.00    +0.000 C 
ATOM      8  N   UNL     1       2.875   6.436  19.156  0.00  0.00    +0.000 N 
ATOM      9  N   UNL     1       3.197   4.329  18.216  0.00  0.00    +0.000 N 
ATOM     10  C   UNL     1       2.845   3.296  17.252  0.00  0.00    +0.000 C 
ATOM     11  C   UNL     1       2.921   2.007  18.044  0.00  0.00    +0.000 C 
ATOM     12  C   UNL     1       4.091   2.255  18.987  0.00  0.00    +0.000 C 
ATOM     13  C   UNL     1       4.059   3.775  19.265  0.00  0.00    +0.000 C 
ATOM     14  H   UNL     1       3.870   6.475  19.270  0.00  0.00    +0.000 HD
BRANCH  13  15
ATOM     15  C   UNL     1       5.488   4.341  19.269  0.00  0.00    +0.000 C 
BRANCH  15  16
ATOM     16  O   UNL     1       6.257   3.817  18.193  0.00  0.00    +0.000 OA
ATOM     17  H   UNL     1       6.832   3.115  18.545  0.00  0.00    +0.000 HD
ENDBRANCH  15  16
ENDBRANCH  13  15
ENDBRANCH   1   8
BRANCH   4  18
ATOM     18  C   UNL     1       0.791  10.804  18.384  0.00  0.00    +0.000 C 
BRANCH  18  19
ATOM     19  C   UNL     1      -0.715  10.788  18.298  0.00  0.00    +0.000 A 
ATOM     20  C   UNL     1      -1.370   9.846  17.490  0.00  0.00    +0.000 A 
ATOM     21  C   UNL     1      -2.760   9.880  17.352  0.00  0.00    +0.000 A 
ATOM     22  C   UNL     1      -3.503  10.841  18.033  0.00  0.00    +0.000 A 
ATOM     23 CL   UNL     1      -5.206  10.926  17.804  0.00  0.00    +0.000 Cl
ATOM     24  C   UNL     1      -2.874  11.744  18.886  0.00  0.00    +0.000 A 
ATOM     25  C   UNL     1      -1.485  11.708  19.025  0.00  0.00    +0.000 A 
ENDBRANCH  18  19
ENDBRANCH   4  18
TORSDOF 5
ENDMDL
MODEL 8
REMARK VINA RESULT:      -7.1      1.803      2.319
REMARK  Name = 
REMARK  5 active torsions:
REMARK  status: ('A' for Active; 'I' for Inactive)
REMARK    1  A    between atoms: N_3  and  C_4
REMARK    2  A    between atoms: N_7  and  C_8
REMARK    3  A    between atoms: C_8  and  C_9
REMARK    4  A    between atoms: C_21  and  C_22
REMARK    5  A    between atoms: C_22  and  O_23
REMARK                            x       y       z     vdW  Elec       q    Type
REMARK                         _______ _______ _______ _____ _____    ______ ____
ROOT
ATOM      1  C   UNL     1       2.584   7.545  18.439  0.00  0.00    +0.000 A 
ATOM      2  C   UNL     1       2.710   8.555  17.465  0.00  0.00    +0.000 A 
ATOM      3  N   UNL     1       1.992   9.644  17.761  0.00  0.00    +0.000 NA
ATOM      4  N   UNL     1       1.401   9.328  18.932  0.00  0.00    +0.000 N 
ATOM      5  C   UNL     1       1.670   8.047  19.345  0.00  0.00    +0.000 A 
ENDROOT
BRANCH   1   8
ATOM      6  O   UNL     1       1.484   5.097  17.613  0.00  0.00    +0.000 OA
ATOM      7  C   UNL     1       2.600   5.142  18.128  0.00  0.00    +0.000 C 
ATOM      8  N   UNL     1       3.201   6.310  18.550  0.00  0.00    +0.000 N 
ATOM      9  N   UNL     1       3.376   4.002  18.286  0.00  0.00    +0.000 N 
ATOM     10  C   UNL     1       2.909   2.745  17.719  0.00  0.00    +0.000 C 
ATOM     11  C   UNL     1       3.017   1.758  18.862  0.00  0.00    +0.000 C 
ATOM     12  C   UNL     1       4.272   2.216  19.591  0.00  0.00    +0.000 C 
ATOM     13  C   UNL     1       4.311   3.748  19.387  0.00  0.00    +0.000 C 
ATOM     14  H   UNL     1       4.204   6.326  18.570  0.00  0.00    +0.000 HD
BRANCH  13  15
ATOM     15  C   UNL     1       5.750   4.208  19.107  0.00  0.00    +0.000 C 
BRANCH  15  16
ATOM     16  O   UNL     1       5.991   5.508  19.634  0.00  0.00    +0.000 OA
ATOM     17  H   UNL     1       5.169   5.825  20.047  0.00  0.00    +0.000 HD
ENDBRANCH  15  16
ENDBRANCH  13  15
ENDBRANCH   1   8
BRANCH   4  18
ATOM     18  C   UNL     1       0.663  10.351  19.665  0.00  0.00    +0.000 C 
BRANCH  18  19
ATOM     19  C   UNL     1      -0.684  10.630  19.044  0.00  0.00    +0.000 A 
ATOM     20  C   UNL     1      -1.112   9.908  17.920  0.00  0.00    +0.000 A 
ATOM     21  C   UNL     1      -2.325  10.219  17.301  0.00  0.00    +0.000 A 
ATOM     22  C   UNL     1      -3.124  11.239  17.811  0.00  0.00    +0.000 A 
ATOM     23 CL   UNL     1      -4.582  11.668  17.005  0.00  0.00    +0.000 Cl
ATOM     24  C   UNL     1      -2.742  11.925  18.961  0.00  0.00    +0.000 A 
ATOM     25  C   UNL     1      -1.531  11.612  19.581  0.00  0.00    +0.000 A 
ENDBRANCH  18  19
ENDBRANCH   4  18
TORSDOF 5
ENDMDL
MODEL 9
REMARK VINA RESULT:      -7.0      3.840      8.068
REMARK  Name = 
REMARK  5 active torsions:
REMARK  status: ('A' for Active; 'I' for Inactive)
REMARK    1  A    between atoms: N_3  and  C_4
REMARK    2  A    between atoms: N_7  and  C_8
REMARK    3  A    between atoms: C_8  and  C_9
REMARK    4  A    between atoms: C_21  and  C_22
REMARK    5  A    between atoms: C_22  and  O_23
REMARK                            x       y       z     vdW  Elec       q    Type
REMARK                         _______ _______ _______ _____ _____    ______ ____
ROOT
ATOM      1  C   UNL     1       2.241   6.233  20.119  0.00  0.00    +0.000 A 
ATOM      2  C   UNL     1       1.699   4.942  20.272  0.00  0.00    +0.000 A 
ATOM      3  N   UNL     1       2.583   3.979  19.992  0.00  0.00    +0.000 NA
ATOM      4  N   UNL     1       3.699   4.659  19.656  0.00  0.00    +0.000 N 
ATOM      5  C   UNL     1       3.521   6.020  19.648  0.00  0.00    +0.000 A 
ENDROOT
BRANCH   1   8
ATOM      6  O   UNL     1       1.948   8.289  18.228  0.00  0.00    +0.000 OA
ATOM      7  C   UNL     1       1.586   8.450  19.391  0.00  0.00    +0.000 C 
ATOM      8  N   UNL     1       1.694   7.481  20.368  0.00  0.00    +0.000 N 
ATOM      9  N   UNL     1       0.984   9.629  19.809  0.00  0.00    +0.000 N 
ATOM     10  C   UNL     1       0.665  10.649  18.821  0.00  0.00    +0.000 C 
ATOM     11  C   UNL     1       1.250  11.921  19.398  0.00  0.00    +0.000 C 
ATOM     12  C   UNL     1       1.020  11.754  20.894  0.00  0.00    +0.000 C 
ATOM     13  C   UNL     1       1.114  10.232  21.140  0.00  0.00    +0.000 C 
ATOM     14  H   UNL     1       1.043   7.526  21.130  0.00  0.00    +0.000 HD
BRANCH  13  15
ATOM     15  C   UNL     1       0.032   9.790  22.138  0.00  0.00    +0.000 C 
BRANCH  15  16
ATOM     16  O   UNL     1       0.547   9.713  23.463  0.00  0.00    +0.000 OA
ATOM     17  H   UNL     1      -0.202   9.604  24.074  0.00  0.00    +0.000 HD
ENDBRANCH  15  16
ENDBRANCH  13  15
ENDBRANCH   1   8
BRANCH   4  18
ATOM     18  C   UNL     1       4.949   3.935  19.451  0.00  0.00    +0.000 C 
BRANCH  18  19
ATOM     19  C   UNL     1       5.487   4.120  18.053  0.00  0.00    +0.000 A 
ATOM     20  C   UNL     1       6.804   4.560  17.852  0.00  0.00    +0.000 A 
ATOM     21  C   UNL     1       7.276   4.803  16.560  0.00  0.00    +0.000 A 
ATOM     22  C   UNL     1       6.444   4.591  15.463  0.00  0.00    +0.000 A 
ATOM     23 CL   UNL     1       7.005   4.961  13.880  0.00  0.00    +0.000 Cl
ATOM     24  C   UNL     1       5.155   4.097  15.643  0.00  0.00    +0.000 A 
ATOM     25  C   UNL     1       4.684   3.852  16.934  0.00  0.00    +0.000 A 
ENDBRANCH  18  19
ENDBRANCH   4  18
TORSDOF 5
ENDMDL
