MODEL 1
REMARK VINA RESULT:      -8.1      0.000      0.000
REMARK  Name = 
REMARK  9 active torsions:
REMARK  status: ('A' for Active; 'I' for Inactive)
REMARK    1  A    between atoms: C_1  and  C_2
REMARK    2  A    between atoms: N_10  and  S_11
REMARK    3  A    between atoms: S_11  and  C_14
REMARK    4  A    between atoms: C_16  and  O_17
REMARK    5  A    between atoms: O_17  and  C_18
REMARK    6  A    between atoms: C_18  and  C_19
REMARK    7  A    between atoms: C_25  and  O_26
REMARK    8  A    between atoms: O_26  and  C_27
REMARK    9  A    between atoms: C_27  and  C_28
REMARK                            x       y       z     vdW  Elec       q    Type
REMARK                         _______ _______ _______ _____ _____    ______ ____
ROOT
ATOM      1  C   UNL     1       2.834   6.001  18.829  0.00  0.00    +0.000 A 
ATOM      2  C   UNL     1       2.478   7.070  17.982  0.00  0.00    +0.000 A 
ATOM      3  C   UNL     1       1.935   8.240  18.494  0.00  0.00    +0.000 A 
ATOM      4  C   UNL     1       1.678   8.320  19.856  0.00  0.00    +0.000 A 
ATOM      5  C   UNL     1       1.902   7.218  20.680  0.00  0.00    +0.000 A 
ATOM      6  C   UNL     1       2.440   6.021  20.176  0.00  0.00    +0.000 A 
ENDROOT
BRANCH   1   7
ATOM      7  S   UNL     1       3.767   4.668  18.072  0.00  0.00    +0.000 S 
ATOM      8  O   UNL     1       2.906   4.063  17.073  0.00  0.00    +0.000 OA
ATOM      9  O   UNL     1       4.310   3.831  19.120  0.00  0.00    +0.000 OA
BRANCH   7  19
ATOM     10  C   UNL     1       6.662   5.696  19.278  0.00  0.00    +0.000 C 
ATOM     11  C   UNL     1       6.204   6.160  17.910  0.00  0.00    +0.000 C 
ATOM     12  C   UNL     1       7.398   6.022  16.923  0.00  0.00    +0.000 C 
ATOM     13  C   UNL     1       6.819   5.257  15.783  0.00  0.00    +0.000 A 
ATOM     14  C   UNL     1       7.484   4.845  14.636  0.00  0.00    +0.000 A 
ATOM     15  C   UNL     1       6.747   4.206  13.643  0.00  0.00    +0.000 A 
ATOM     16  C   UNL     1       5.365   4.027  13.788  0.00  0.00    +0.000 A 
ATOM     17  C   UNL     1       4.715   4.432  14.959  0.00  0.00    +0.000 A 
ATOM     18  C   UNL     1       5.471   4.984  15.976  0.00  0.00    +0.000 A 
ATOM     19  N   UNL     1       5.045   5.450  17.258  0.00  0.00    +0.000 N 
ENDBRANCH   7  19
ENDBRANCH   1   7
BRANCH   3  20
ATOM     20  O   UNL     1       1.656   9.381  17.803  0.00  0.00    +0.000 OA
BRANCH  20  21
ATOM     21  C   UNL     1       1.026  10.453  18.507  0.00  0.00    +0.000 C 
BRANCH  21  22
ATOM     22  C   UNL     1      -0.482  10.440  18.270  0.00  0.00    +0.000 C 
ATOM     23  F   UNL     1      -0.977  11.664  17.983  0.00  0.00    +0.000 F 
ATOM     24  F   UNL     1      -0.789   9.631  17.228  0.00  0.00    +0.000 F 
ATOM     25  F   UNL     1      -1.143   9.972  19.353  0.00  0.00    +0.000 F 
ENDBRANCH  21  22
ENDBRANCH  20  21
ENDBRANCH   3  20
BRANCH   6  26
ATOM     26  O   UNL     1       2.555   4.902  20.961  0.00  0.00    +0.000 OA
BRANCH  26  27
ATOM     27  C   UNL     1       1.391   4.053  21.011  0.00  0.00    +0.000 C 
BRANCH  27  28
ATOM     28  C   UNL     1       1.666   2.598  21.378  0.00  0.00    +0.000 C 
ATOM     29  F   UNL     1       1.581   1.753  20.332  0.00  0.00    +0.000 F 
ATOM     30  F   UNL     1       2.918   2.483  21.890  0.00  0.00    +0.000 F 
ATOM     31  F   UNL     1       0.812   2.170  22.337  0.00  0.00    +0.000 F 
ENDBRANCH  27  28
ENDBRANCH  26  27
ENDBRANCH   6  26
TORSDOF 8
ENDMDL
MODEL 2
REMARK VINA RESULT:      -8.1      1.411      1.710
REMARK  Name = 
REMARK  9 active torsions:
REMARK  status: ('A' for Active; 'I' for Inactive)
REMARK    1  A    between atoms: C_1  and  C_2
REMARK    2  A    between atoms: N_10  and  S_11
REMARK    3  A    between atoms: S_11  and  C_14
REMARK    4  A    between atoms: C_16  and  O_17
REMARK    5  A    between atoms: O_17  and  C_18
REMARK    6  A    between atoms: C_18  and  C_19
REMARK    7  A    between atoms: C_25  and  O_26
REMARK    8  A    between atoms: O_26  and  C_27
REMARK    9  A    between atoms: C_27  and  C_28
REMARK                            x       y       z     vdW  Elec       q    Type
REMARK                         _______ _______ _______ _____ _____    ______ ____
ROOT
ATOM      1  C   UNL     1       3.507   5.287  19.379  0.00  0.00    +0.000 A 
ATOM      2  C   UNL     1       3.330   6.555  18.792  0.00  0.00    +0.000 A 
ATOM      3  C   UNL     1       2.357   7.430  19.255  0.00  0.00    +0.000 A 
ATOM      4  C   UNL     1       1.505   7.010  20.268  0.00  0.00    +0.000 A 
ATOM      5  C   UNL     1       1.587   5.709  20.761  0.00  0.00    +0.000 A 
ATOM      6  C   UNL     1       2.558   4.806  20.294  0.00  0.00    +0.000 A 
ENDROOT
BRANCH   1   7
ATOM      7  S   UNL     1       4.965   4.374  18.866  0.00  0.00    +0.000 S 
ATOM      8  O   UNL     1       4.498   3.179  18.190  0.00  0.00    +0.000 OA
ATOM      9  O   UNL     1       5.845   4.229  20.007  0.00  0.00    +0.000 OA
BRANCH   7  19
ATOM     10  C   UNL     1       7.765   6.103  19.121  0.00  0.00    +0.000 C 
ATOM     11  C   UNL     1       6.812   6.369  17.972  0.00  0.00    +0.000 C 
ATOM     12  C   UNL     1       7.642   6.448  16.659  0.00  0.00    +0.000 C 
ATOM     13  C   UNL     1       6.937   5.506  15.746  0.00  0.00    +0.000 A 
ATOM     14  C   UNL     1       7.293   5.187  14.442  0.00  0.00    +0.000 A 
ATOM     15  C   UNL     1       6.457   4.341  13.720  0.00  0.00    +0.000 A 
ATOM     16  C   UNL     1       5.270   3.861  14.289  0.00  0.00    +0.000 A 
ATOM     17  C   UNL     1       4.936   4.176  15.610  0.00  0.00    +0.000 A 
ATOM     18  C   UNL     1       5.817   4.945  16.348  0.00  0.00    +0.000 A 
ATOM     19  N   UNL     1       5.709   5.376  17.706  0.00  0.00    +0.000 N 
ENDBRANCH   7  19
ENDBRANCH   1   7
BRANCH   3  20
ATOM     20  O   UNL     1       2.158   8.717  18.854  0.00  0.00    +0.000 OA
BRANCH  20  21
ATOM     21  C   UNL     1       1.229   9.514  19.592  0.00  0.00    +0.000 C 
BRANCH  21  22
ATOM     22  C   UNL     1       0.136  10.055  18.674  0.00  0.00    +0.000 C 
ATOM     23  F   UNL     1      -1.103   9.907  19.192  0.00  0.00    +0.000 F 
ATOM     24  F   UNL     1       0.320  11.379  18.452  0.00  0.00    +0.000 F 
ATOM     25  F   UNL     1       0.157   9.437  17.472  0.00  0.00    +0.000 F 
ENDBRANCH  21  22
ENDBRANCH  20  21
ENDBRANCH   3  20
BRANCH   6  26
ATOM     26  O   UNL     1       2.568   3.495  20.697  0.00  0.00    +0.000 OA
BRANCH  26  27
ATOM     27  C   UNL     1       1.385   2.735  20.374  0.00  0.00    +0.000 C 
BRANCH  27  28
ATOM     28  C   UNL     1       1.210   2.409  18.894  0.00  0.00    +0.000 C 
ATOM     29  F   UNL     1       1.200   3.497  18.100  0.00  0.00    +0.000 F 
ATOM     30  F   UNL     1       2.228   1.613  18.476  0.00  0.00    +0.000 F 
ATOM     31  F   UNL     1       0.065   1.719  18.682  0.00  0.00    +0.000 F 
ENDBRANCH  27  28
ENDBRANCH  26  27
ENDBRANCH   6  26
TORSDOF 8
ENDMDL
MODEL 3
REMARK VINA RESULT:      -7.9      1.464      1.737
REMARK  Name = 
REMARK  9 active torsions:
REMARK  status: ('A' for Active; 'I' for Inactive)
REMARK    1  A    between atoms: C_1  and  C_2
REMARK    2  A    between atoms: N_10  and  S_11
REMARK    3  A    between atoms: S_11  and  C_14
REMARK    4  A    between atoms: C_16  and  O_17
REMARK    5  A    between atoms: O_17  and  C_18
REMARK    6  A    between atoms: C_18  and  C_19
REMARK    7  A    between atoms: C_25  and  O_26
REMARK    8  A    between atoms: O_26  and  C_27
REMARK    9  A    between atoms: C_27  and  C_28
REMARK                            x       y       z     vdW  Elec       q    Type
REMARK                         _______ _______ _______ _____ _____    ______ ____
ROOT
ATOM      1  C   UNL     1       3.420   5.072  19.199  0.00  0.00    +0.000 A 
ATOM      2  C   UNL     1       3.238   6.365  18.672  0.00  0.00    +0.000 A 
ATOM      3  C   UNL     1       2.366   7.266  19.267  0.00  0.00    +0.000 A 
ATOM      4  C   UNL     1       1.613   6.851  20.356  0.00  0.00    +0.000 A 
ATOM      5  C   UNL     1       1.688   5.531  20.800  0.00  0.00    +0.000 A 
ATOM      6  C   UNL     1       2.556   4.602  20.201  0.00  0.00    +0.000 A 
ENDROOT
BRANCH   1   7
ATOM      7  S   UNL     1       4.766   4.113  18.499  0.00  0.00    +0.000 S 
ATOM      8  O   UNL     1       4.167   3.097  17.656  0.00  0.00    +0.000 OA
ATOM      9  O   UNL     1       5.644   3.697  19.573  0.00  0.00    +0.000 OA
BRANCH   7  19
ATOM     10  C   UNL     1       7.485   5.869  19.148  0.00  0.00    +0.000 C 
ATOM     11  C   UNL     1       6.640   6.201  17.934  0.00  0.00    +0.000 C 
ATOM     12  C   UNL     1       7.588   6.392  16.716  0.00  0.00    +0.000 C 
ATOM     13  C   UNL     1       6.998   5.506  15.674  0.00  0.00    +0.000 A 
ATOM     14  C   UNL     1       7.484   5.291  14.392  0.00  0.00    +0.000 A 
ATOM     15  C   UNL     1       6.743   4.485  13.533  0.00  0.00    +0.000 A 
ATOM     16  C   UNL     1       5.519   3.943  13.948  0.00  0.00    +0.000 A 
ATOM     17  C   UNL     1       5.053   4.154  15.250  0.00  0.00    +0.000 A 
ATOM     18  C   UNL     1       5.840   4.883  16.123  0.00  0.00    +0.000 A 
ATOM     19  N   UNL     1       5.592   5.211  17.491  0.00  0.00    +0.000 N 
ENDBRANCH   7  19
ENDBRANCH   1   7
BRANCH   3  20
ATOM     20  O   UNL     1       2.185   8.573  18.927  0.00  0.00    +0.000 OA
BRANCH  20  21
ATOM     21  C   UNL     1       1.173   9.311  19.616  0.00  0.00    +0.000 C 
BRANCH  21  22
ATOM     22  C   UNL     1       0.617  10.421  18.727  0.00  0.00    +0.000 C 
ATOM     23  F   UNL     1       1.582  11.212  18.210  0.00  0.00    +0.000 F 
ATOM     24  F   UNL     1      -0.066   9.891  17.684  0.00  0.00    +0.000 F 
ATOM     25  F   UNL     1      -0.241  11.211  19.411  0.00  0.00    +0.000 F 
ENDBRANCH  21  22
ENDBRANCH  20  21
ENDBRANCH   3  20
BRANCH   6  26
ATOM     26  O   UNL     1       2.549   3.279  20.563  0.00  0.00    +0.000 OA
BRANCH  26  27
ATOM     27  C   UNL     1       1.337   2.558  20.261  0.00  0.00    +0.000 C 
BRANCH  27  28
ATOM     28  C   UNL     1       1.102   2.281  18.779  0.00  0.00    +0.000 C 
ATOM     29  F   UNL     1      -0.001   1.547  18.537  0.00  0.00    +0.000 F 
ATOM     30  F   UNL     1       0.961   3.454  18.110  0.00  0.00    +0.000 F 
ATOM     31  F   UNL     1       2.163   1.645  18.230  0.00  0.00    +0.000 F 
ENDBRANCH  27  28
ENDBRANCH  26  27
ENDBRANCH   6  26
TORSDOF 8
ENDMDL
MODEL 4
REMARK VINA RESULT:      -7.9      1.323      1.567
REMARK  Name = 
REMARK  9 active torsions:
REMARK  status: ('A' for Active; 'I' for Inactive)
REMARK    1  A    between atoms: C_1  and  C_2
REMARK    2  A    between atoms: N_10  and  S_11
REMARK    3  A    between atoms: S_11  and  C_14
REMARK    4  A    between atoms: C_16  and  O_17
REMARK    5  A    between atoms: O_17  and  C_18
REMARK    6  A    between atoms: C_18  and  C_19
REMARK    7  A    between atoms: C_25  and  O_26
REMARK    8  A    between atoms: O_26  and  C_27
REMARK    9  A    between atoms: C_27  and  C_28
REMARK                            x       y       z     vdW  Elec       q    Type
REMARK                         _______ _______ _______ _____ _____    ______ ____
ROOT
ATOM      1  C   UNL     1       3.383   5.595  18.953  0.00  0.00    +0.000 A 
ATOM      2  C   UNL     1       3.223   6.780  18.207  0.00  0.00    +0.000 A 
ATOM      3  C   UNL     1       2.436   7.822  18.676  0.00  0.00    +0.000 A 
ATOM      4  C   UNL     1       1.744   7.656  19.868  0.00  0.00    +0.000 A 
ATOM      5  C   UNL     1       1.789   6.437  20.543  0.00  0.00    +0.000 A 
ATOM      6  C   UNL     1       2.571   5.366  20.075  0.00  0.00    +0.000 A 
ENDROOT
BRANCH   1   7
ATOM      7  S   UNL     1       4.632   4.450  18.362  0.00  0.00    +0.000 S 
ATOM      8  O   UNL     1       3.943   3.439  17.583  0.00  0.00    +0.000 OA
ATOM      9  O   UNL     1       5.442   4.030  19.487  0.00  0.00    +0.000 OA
BRANCH   7  19
ATOM     10  C   UNL     1       7.530   5.923  18.934  0.00  0.00    +0.000 C 
ATOM     11  C   UNL     1       6.739   6.265  17.687  0.00  0.00    +0.000 C 
ATOM     12  C   UNL     1       7.713   6.261  16.475  0.00  0.00    +0.000 C 
ATOM     13  C   UNL     1       7.032   5.380  15.486  0.00  0.00    +0.000 A 
ATOM     14  C   UNL     1       7.501   5.023  14.228  0.00  0.00    +0.000 A 
ATOM     15  C   UNL     1       6.678   4.250  13.415  0.00  0.00    +0.000 A 
ATOM     16  C   UNL     1       5.397   3.882  13.845  0.00  0.00    +0.000 A 
ATOM     17  C   UNL     1       4.948   4.234  15.122  0.00  0.00    +0.000 A 
ATOM     18  C   UNL     1       5.807   4.926  15.956  0.00  0.00    +0.000 A 
ATOM     19  N   UNL     1       5.588   5.374  17.295  0.00  0.00    +0.000 N 
ENDBRANCH   7  19
ENDBRANCH   1   7
BRANCH   3  20
ATOM     20  O   UNL     1       2.291   9.054  18.112  0.00  0.00    +0.000 OA
BRANCH  20  21
ATOM     21  C   UNL     1       1.036   9.720  18.270  0.00  0.00    +0.000 C 
BRANCH  21  22
ATOM     22  C   UNL     1       1.243  11.139  18.794  0.00  0.00    +0.000 C 
ATOM     23  F   UNL     1       2.373  11.711  18.324  0.00  0.00    +0.000 F 
ATOM     24  F   UNL     1       0.210  11.934  18.425  0.00  0.00    +0.000 F 
ATOM     25  F   UNL     1       1.304  11.157  20.145  0.00  0.00    +0.000 F 
ENDBRANCH  21  22
ENDBRANCH  20  21
ENDBRANCH   3  20
BRANCH   6  26
ATOM     26  O   UNL     1       2.529   4.134  20.675  0.00  0.00    +0.000 OA
BRANCH  26  27
ATOM     27  C   UNL     1       1.270   3.438  20.581  0.00  0.00    +0.000 C 
BRANCH  27  28
ATOM     28  C   UNL     1       1.018   2.733  19.252  0.00  0.00    +0.000 C 
ATOM     29  F   UNL     1       1.022   3.564  18.192  0.00  0.00    +0.000 F 
ATOM     30  F   UNL     1       1.980   1.800  19.038  0.00  0.00    +0.000 F 
ATOM     31  F   UNL     1      -0.165   2.074  19.269  0.00  0.00    +0.000 F 
ENDBRANCH  27  28
ENDBRANCH  26  27
ENDBRANCH   6  26
TORSDOF 8
ENDMDL
MODEL 5
REMARK VINA RESULT:      -7.8      0.748      1.073
REMARK  Name = 
REMARK  9 active torsions:
REMARK  status: ('A' for Active; 'I' for Inactive)
REMARK    1  A    between atoms: C_1  and  C_2
REMARK    2  A    between atoms: N_10  and  S_11
REMARK    3  A    between atoms: S_11  and  C_14
REMARK    4  A    between atoms: C_16  and  O_17
REMARK    5  A    between atoms: O_17  and  C_18
REMARK    6  A    between atoms: C_18  and  C_19
REMARK    7  A    between atoms: C_25  and  O_26
REMARK    8  A    between atoms: O_26  and  C_27
REMARK    9  A    between atoms: C_27  and  C_28
REMARK                            x       y       z     vdW  Elec       q    Type
REMARK                         _______ _______ _______ _____ _____    ______ ____
ROOT
ATOM      1  C   UNL     1       2.924   6.088  18.856  0.00  0.00    +0.000 A 
ATOM      2  C   UNL     1       2.659   7.129  17.945  0.00  0.00    +0.000 A 
ATOM      3  C   UNL     1       2.061   8.310  18.360  0.00  0.00    +0.000 A 
ATOM      4  C   UNL     1       1.658   8.429  19.683  0.00  0.00    +0.000 A 
ATOM      5  C   UNL     1       1.795   7.353  20.559  0.00  0.00    +0.000 A 
ATOM      6  C   UNL     1       2.387   6.144  20.151  0.00  0.00    +0.000 A 
ENDROOT
BRANCH   1   7
ATOM      7  S   UNL     1       3.937   4.738  18.244  0.00  0.00    +0.000 S 
ATOM      8  O   UNL     1       3.120   3.987  17.311  0.00  0.00    +0.000 OA
ATOM      9  O   UNL     1       4.518   4.046  19.375  0.00  0.00    +0.000 OA
BRANCH   7  19
ATOM     10  C   UNL     1       6.899   5.757  19.288  0.00  0.00    +0.000 C 
ATOM     11  C   UNL     1       6.373   6.211  17.941  0.00  0.00    +0.000 C 
ATOM     12  C   UNL     1       7.512   6.056  16.895  0.00  0.00    +0.000 C 
ATOM     13  C   UNL     1       6.870   5.285  15.794  0.00  0.00    +0.000 A 
ATOM     14  C   UNL     1       7.471   4.857  14.617  0.00  0.00    +0.000 A 
ATOM     15  C   UNL     1       6.679   4.215  13.670  0.00  0.00    +0.000 A 
ATOM     16  C   UNL     1       5.305   4.047  13.889  0.00  0.00    +0.000 A 
ATOM     17  C   UNL     1       4.720   4.467  15.088  0.00  0.00    +0.000 A 
ATOM     18  C   UNL     1       5.532   5.023  16.060  0.00  0.00    +0.000 A 
ATOM     19  N   UNL     1       5.176   5.504  17.357  0.00  0.00    +0.000 N 
ENDBRANCH   7  19
ENDBRANCH   1   7
BRANCH   3  20
ATOM     20  O   UNL     1       1.854   9.429  17.610  0.00  0.00    +0.000 OA
BRANCH  20  21
ATOM     21  C   UNL     1       2.238  10.689  18.165  0.00  0.00    +0.000 C 
BRANCH  21  22
ATOM     22  C   UNL     1       1.012  11.456  18.656  0.00  0.00    +0.000 C 
ATOM     23  F   UNL     1       0.968  12.724  18.192  0.00  0.00    +0.000 F 
ATOM     24  F   UNL     1      -0.123  10.842  18.247  0.00  0.00    +0.000 F 
ATOM     25  F   UNL     1       0.978  11.510  20.006  0.00  0.00    +0.000 F 
ENDBRANCH  21  22
ENDBRANCH  20  21
ENDBRANCH   3  20
BRANCH   6  26
ATOM     26  O   UNL     1       2.420   5.050  20.977  0.00  0.00    +0.000 OA
BRANCH  26  27
ATOM     27  C   UNL     1       1.326   4.123  20.827  0.00  0.00    +0.000 C 
BRANCH  27  28
ATOM     28  C   UNL     1       1.609   2.704  21.312  0.00  0.00    +0.000 C 
ATOM     29  F   UNL     1       0.768   2.287  22.278  0.00  0.00    +0.000 F 
ATOM     30  F   UNL     1       1.499   1.834  20.276  0.00  0.00    +0.000 F 
ATOM     31  F   UNL     1       2.876   2.594  21.779  0.00  0.00    +0.000 F 
ENDBRANCH  27  28
ENDBRANCH  26  27
ENDBRANCH   6  26
TORSDOF 8
ENDMDL
MODEL 6
REMARK VINA RESULT:      -7.5      0.953      1.297
REMARK  Name = 
REMARK  9 active torsions:
REMARK  status: ('A' for Active; 'I' for Inactive)
REMARK    1  A    between atoms: C_1  and  C_2
REMARK    2  A    between atoms: N_10  and  S_11
REMARK    3  A    between atoms: S_11  and  C_14
REMARK    4  A    between atoms: C_16  and  O_17
REMARK    5  A    between atoms: O_17  and  C_18
REMARK    6  A    between atoms: C_18  and  C_19
REMARK    7  A    between atoms: C_25  and  O_26
REMARK    8  A    between atoms: O_26  and  C_27
REMARK    9  A    between atoms: C_27  and  C_28
REMARK                            x       y       z     vdW  Elec       q    Type
REMARK                         _______ _______ _______ _____ _____    ______ ____
ROOT
ATOM      1  C   UNL     1       3.539   5.598  18.878  0.00  0.00    +0.000 A 
ATOM      2  C   UNL     1       3.144   6.648  18.026  0.00  0.00    +0.000 A 
ATOM      3  C   UNL     1       2.343   7.683  18.487  0.00  0.00    +0.000 A 
ATOM      4  C   UNL     1       1.870   7.635  19.791  0.00  0.00    +0.000 A 
ATOM      5  C   UNL     1       2.145   6.532  20.598  0.00  0.00    +0.000 A 
ATOM      6  C   UNL     1       2.945   5.469  20.143  0.00  0.00    +0.000 A 
ENDROOT
BRANCH   1   7
ATOM      7  S   UNL     1       4.785   4.479  18.231  0.00  0.00    +0.000 S 
ATOM      8  O   UNL     1       4.082   3.433  17.514  0.00  0.00    +0.000 OA
ATOM      9  O   UNL     1       5.675   4.107  19.310  0.00  0.00    +0.000 OA
BRANCH   7  19
ATOM     10  C   UNL     1       7.597   6.161  18.634  0.00  0.00    +0.000 C 
ATOM     11  C   UNL     1       6.745   6.393  17.401  0.00  0.00    +0.000 C 
ATOM     12  C   UNL     1       7.678   6.393  16.157  0.00  0.00    +0.000 C 
ATOM     13  C   UNL     1       7.026   5.424  15.233  0.00  0.00    +0.000 A 
ATOM     14  C   UNL     1       7.477   5.038  13.978  0.00  0.00    +0.000 A 
ATOM     15  C   UNL     1       6.682   4.176  13.230  0.00  0.00    +0.000 A 
ATOM     16  C   UNL     1       5.442   3.747  13.721  0.00  0.00    +0.000 A 
ATOM     17  C   UNL     1       5.011   4.130  14.995  0.00  0.00    +0.000 A 
ATOM     18  C   UNL     1       5.849   4.915  15.767  0.00  0.00    +0.000 A 
ATOM     19  N   UNL     1       5.643   5.411  17.091  0.00  0.00    +0.000 N 
ENDBRANCH   7  19
ENDBRANCH   1   7
BRANCH   3  20
ATOM     20  O   UNL     1       1.986   8.807  17.804  0.00  0.00    +0.000 OA
BRANCH  20  21
ATOM     21  C   UNL     1       1.573   9.948  18.559  0.00  0.00    +0.000 C 
BRANCH  21  22
ATOM     22  C   UNL     1       0.070  10.172  18.416  0.00  0.00    +0.000 C 
ATOM     23  F   UNL     1      -0.627   9.754  19.495  0.00  0.00    +0.000 F 
ATOM     24  F   UNL     1      -0.197  11.490  18.254  0.00  0.00    +0.000 F 
ATOM     25  F   UNL     1      -0.420   9.525  17.334  0.00  0.00    +0.000 F 
ENDBRANCH  21  22
ENDBRANCH  20  21
ENDBRANCH   3  20
BRANCH   6  26
ATOM     26  O   UNL     1       3.123   4.335  20.894  0.00  0.00    +0.000 OA
BRANCH  26  27
ATOM     27  C   UNL     1       2.581   3.123  20.330  0.00  0.00    +0.000 C 
BRANCH  27  28
ATOM     28  C   UNL     1       1.084   2.923  20.544  0.00  0.00    +0.000 C 
ATOM     29  F   UNL     1       0.351   4.024  20.288  0.00  0.00    +0.000 F 
ATOM     30  F   UNL     1       0.631   1.938  19.728  0.00  0.00    +0.000 F 
ATOM     31  F   UNL     1       0.824   2.528  21.813  0.00  0.00    +0.000 F 
ENDBRANCH  27  28
ENDBRANCH  26  27
ENDBRANCH   6  26
TORSDOF 8
ENDMDL
MODEL 7
REMARK VINA RESULT:      -7.3      1.748      2.172
REMARK  Name = 
REMARK  9 active torsions:
REMARK  status: ('A' for Active; 'I' for Inactive)
REMARK    1  A    between atoms: C_1  and  C_2
REMARK    2  A    between atoms: N_10  and  S_11
REMARK    3  A    between atoms: S_11  and  C_14
REMARK    4  A    between atoms: C_16  and  O_17
REMARK    5  A    between atoms: O_17  and  C_18
REMARK    6  A    between atoms: C_18  and  C_19
REMARK    7  A    between atoms: C_25  and  O_26
REMARK    8  A    between atoms: O_26  and  C_27
REMARK    9  A    between atoms: C_27  and  C_28
REMARK                            x       y       z     vdW  Elec       q    Type
REMARK                         _______ _______ _______ _____ _____    ______ ____
ROOT
ATOM      1  C   UNL     1       3.741   5.109  19.653  0.00  0.00    +0.000 A 
ATOM      2  C   UNL     1       3.470   6.446  19.299  0.00  0.00    +0.000 A 
ATOM      3  C   UNL     1       2.356   7.107  19.794  0.00  0.00    +0.000 A 
ATOM      4  C   UNL     1       1.462   6.409  20.595  0.00  0.00    +0.000 A 
ATOM      5  C   UNL     1       1.652   5.050  20.840  0.00  0.00    +0.000 A 
ATOM      6  C   UNL     1       2.769   4.361  20.335  0.00  0.00    +0.000 A 
ENDROOT
BRANCH   1   7
ATOM      7  S   UNL     1       5.344   4.469  19.162  0.00  0.00    +0.000 S 
ATOM      8  O   UNL     1       5.132   3.112  18.696  0.00  0.00    +0.000 OA
ATOM      9  O   UNL     1       6.282   4.695  20.241  0.00  0.00    +0.000 OA
BRANCH   7  19
ATOM     10  C   UNL     1       7.903   6.531  18.853  0.00  0.00    +0.000 C 
ATOM     11  C   UNL     1       6.780   6.558  17.834  0.00  0.00    +0.000 C 
ATOM     12  C   UNL     1       7.411   6.592  16.414  0.00  0.00    +0.000 C 
ATOM     13  C   UNL     1       6.720   5.482  15.701  0.00  0.00    +0.000 A 
ATOM     14  C   UNL     1       6.939   5.069  14.393  0.00  0.00    +0.000 A 
ATOM     15  C   UNL     1       6.132   4.058  13.879  0.00  0.00    +0.000 A 
ATOM     16  C   UNL     1       5.104   3.507  14.654  0.00  0.00    +0.000 A 
ATOM     17  C   UNL     1       4.910   3.921  15.975  0.00  0.00    +0.000 A 
ATOM     18  C   UNL     1       5.773   4.862  16.506  0.00  0.00    +0.000 A 
ATOM     19  N   UNL     1       5.791   5.421  17.821  0.00  0.00    +0.000 N 
ENDBRANCH   7  19
ENDBRANCH   1   7
BRANCH   3  20
ATOM     20  O   UNL     1       2.043   8.423  19.622  0.00  0.00    +0.000 OA
BRANCH  20  21
ATOM     21  C   UNL     1       2.117   8.962  18.300  0.00  0.00    +0.000 C 
BRANCH  21  22
ATOM     22  C   UNL     1       1.505  10.360  18.255  0.00  0.00    +0.000 C 
ATOM     23  F   UNL     1       1.448  10.946  19.470  0.00  0.00    +0.000 F 
ATOM     24  F   UNL     1       2.240  11.170  17.455  0.00  0.00    +0.000 F 
ATOM     25  F   UNL     1       0.250  10.328  17.753  0.00  0.00    +0.000 F 
ENDBRANCH  21  22
ENDBRANCH  20  21
ENDBRANCH   3  20
BRANCH   6  26
ATOM     26  O   UNL     1       2.898   3.003  20.481  0.00  0.00    +0.000 OA
BRANCH  26  27
ATOM     27  C   UNL     1       1.756   2.222  20.073  0.00  0.00    +0.000 C 
BRANCH  27  28
ATOM     28  C   UNL     1       1.441   2.269  18.581  0.00  0.00    +0.000 C 
ATOM     29  F   UNL     1       2.430   1.786  17.806  0.00  0.00    +0.000 F 
ATOM     30  F   UNL     1       0.330   1.532  18.324  0.00  0.00    +0.000 F 
ATOM     31  F   UNL     1       1.169   3.534  18.182  0.00  0.00    +0.000 F 
ENDBRANCH  27  28
ENDBRANCH  26  27
ENDBRANCH   6  26
TORSDOF 8
ENDMDL
MODEL 8
REMARK VINA RESULT:      -7.3      1.125      1.436
REMARK  Name = 
REMARK  9 active torsions:
REMARK  status: ('A' for Active; 'I' for Inactive)
REMARK    1  A    between atoms: C_1  and  C_2
REMARK    2  A    between atoms: N_10  and  S_11
REMARK    3  A    between atoms: S_11  and  C_14
REMARK    4  A    between atoms: C_16  and  O_17
REMARK    5  A    between atoms: O_17  and  C_18
REMARK    6  A    between atoms: C_18  and  C_19
REMARK    7  A    between atoms: C_25  and  O_26
REMARK    8  A    between atoms: O_26  and  C_27
REMARK    9  A    between atoms: C_27  and  C_28
REMARK                            x       y       z     vdW  Elec       q    Type
REMARK                         _______ _______ _______ _____ _____    ______ ____
ROOT
ATOM      1  C   UNL     1       3.342   5.720  18.386  0.00  0.00    +0.000 A 
ATOM      2  C   UNL     1       2.984   6.848  17.623  0.00  0.00    +0.000 A 
ATOM      3  C   UNL     1       2.383   7.952  18.212  0.00  0.00    +0.000 A 
ATOM      4  C   UNL     1       2.071   7.903  19.564  0.00  0.00    +0.000 A 
ATOM      5  C   UNL     1       2.300   6.739  20.297  0.00  0.00    +0.000 A 
ATOM      6  C   UNL     1       2.896   5.608  19.712  0.00  0.00    +0.000 A 
ENDROOT
BRANCH   1   7
ATOM      7  S   UNL     1       4.347   4.487  17.554  0.00  0.00    +0.000 S 
ATOM      8  O   UNL     1       3.454   3.711  16.715  0.00  0.00    +0.000 OA
ATOM      9  O   UNL     1       5.147   3.798  18.544  0.00  0.00    +0.000 OA
BRANCH   7  19
ATOM     10  C   UNL     1       7.127   6.095  18.317  0.00  0.00    +0.000 C 
ATOM     11  C   UNL     1       6.450   6.343  16.984  0.00  0.00    +0.000 C 
ATOM     12  C   UNL     1       7.536   6.314  15.872  0.00  0.00    +0.000 C 
ATOM     13  C   UNL     1       6.983   5.358  14.872  0.00  0.00    +0.000 A 
ATOM     14  C   UNL     1       7.583   4.955  13.686  0.00  0.00    +0.000 A 
ATOM     15  C   UNL     1       6.868   4.112  12.841  0.00  0.00    +0.000 A 
ATOM     16  C   UNL     1       5.564   3.718  13.167  0.00  0.00    +0.000 A 
ATOM     17  C   UNL     1       4.982   4.118  14.375  0.00  0.00    +0.000 A 
ATOM     18  C   UNL     1       5.734   4.883  15.248  0.00  0.00    +0.000 A 
ATOM     19  N   UNL     1       5.371   5.391  16.534  0.00  0.00    +0.000 N 
ENDBRANCH   7  19
ENDBRANCH   1   7
BRANCH   3  20
ATOM     20  O   UNL     1       2.092   9.141  17.614  0.00  0.00    +0.000 OA
BRANCH  20  21
ATOM     21  C   UNL     1       0.952   9.865  18.080  0.00  0.00    +0.000 C 
BRANCH  21  22
ATOM     22  C   UNL     1       1.356  11.261  18.549  0.00  0.00    +0.000 C 
ATOM     23  F   UNL     1       2.471  11.716  17.937  0.00  0.00    +0.000 F 
ATOM     24  F   UNL     1       0.368  12.150  18.290  0.00  0.00    +0.000 F 
ATOM     25  F   UNL     1       1.580  11.283  19.882  0.00  0.00    +0.000 F 
ENDBRANCH  21  22
ENDBRANCH  20  21
ENDBRANCH   3  20
BRANCH   6  26
ATOM     26  O   UNL     1       3.019   4.427  20.400  0.00  0.00    +0.000 OA
BRANCH  26  27
ATOM     27  C   UNL     1       1.907   4.086  21.253  0.00  0.00    +0.000 C 
BRANCH  27  28
ATOM     28  C   UNL     1       1.734   2.594  21.522  0.00  0.00    +0.000 C 
ATOM     29  F   UNL     1       2.795   2.029  22.129  0.00  0.00    +0.000 F 
ATOM     30  F   UNL     1       0.656   2.394  22.323  0.00  0.00    +0.000 F 
ATOM     31  F   UNL     1       1.495   1.918  20.373  0.00  0.00    +0.000 F 
ENDBRANCH  27  28
ENDBRANCH  26  27
ENDBRANCH   6  26
TORSDOF 8
ENDMDL
MODEL 9
REMARK VINA RESULT:      -7.3      5.172      9.693
REMARK  Name = 
REMARK  9 active torsions:
REMARK  status: ('A' for Active; 'I' for Inactive)
REMARK    1  A    between atoms: C_1  and  C_2
REMARK    2  A    between atoms: N_10  and  S_11
REMARK    3  A    between atoms: S_11  and  C_14
REMARK    4  A    between atoms: C_16  and  O_17
REMARK    5  A    between atoms: O_17  and  C_18
REMARK    6  A    between atoms: C_18  and  C_19
REMARK    7  A    between atoms: C_25  and  O_26
REMARK    8  A    between atoms: O_26  and  C_27
REMARK    9  A    between atoms: C_27  and  C_28
REMARK                            x       y       z     vdW  Elec       q    Type
REMARK                         _______ _______ _______ _____ _____    ______ ____
ROOT
ATOM      1  C   UNL     1      -0.624  11.420  21.103  0.00  0.00    +0.000 A 
ATOM      2  C   UNL     1       0.278  10.575  20.427  0.00  0.00    +0.000 A 
ATOM      3  C   UNL     1       0.748   9.410  21.016  0.00  0.00    +0.000 A 
ATOM      4  C   UNL     1       0.370   9.118  22.320  0.00  0.00    +0.000 A 
ATOM      5  C   UNL     1      -0.414  10.016  23.042  0.00  0.00    +0.000 A 
ATOM      6  C   UNL     1      -0.887  11.207  22.465  0.00  0.00    +0.000 A 
ENDROOT
BRANCH   1   7
ATOM      7  S   UNL     1      -1.354  12.740  20.130  0.00  0.00    +0.000 S 
ATOM      8  O   UNL     1      -0.532  12.895  18.945  0.00  0.00    +0.000 OA
ATOM      9  O   UNL     1      -1.559  13.887  20.989  0.00  0.00    +0.000 OA
BRANCH   7  19
ATOM     10  C   UNL     1      -4.345  14.091  20.483  0.00  0.00    +0.000 C 
ATOM     11  C   UNL     1      -4.214  12.632  20.091  0.00  0.00    +0.000 C 
ATOM     12  C   UNL     1      -5.188  12.355  18.912  0.00  0.00    +0.000 C 
ATOM     13  C   UNL     1      -4.322  11.699  17.893  0.00  0.00    +0.000 A 
ATOM     14  C   UNL     1      -4.704  11.267  16.629  0.00  0.00    +0.000 A 
ATOM     15  C   UNL     1      -3.763  10.601  15.850  0.00  0.00    +0.000 A 
ATOM     16  C   UNL     1      -2.481  10.341  16.350  0.00  0.00    +0.000 A 
ATOM     17  C   UNL     1      -2.107  10.800  17.618  0.00  0.00    +0.000 A 
ATOM     18  C   UNL     1      -3.020  11.538  18.349  0.00  0.00    +0.000 A 
ATOM     19  N   UNL     1      -2.867  12.124  19.643  0.00  0.00    +0.000 N 
ENDBRANCH   7  19
ENDBRANCH   1   7
BRANCH   3  20
ATOM     20  O   UNL     1       1.528   8.457  20.433  0.00  0.00    +0.000 OA
BRANCH  20  21
ATOM     21  C   UNL     1       1.838   8.601  19.045  0.00  0.00    +0.000 C 
BRANCH  21  22
ATOM     22  C   UNL     1       2.598   7.380  18.534  0.00  0.00    +0.000 C 
ATOM     23  F   UNL     1       3.633   7.706  17.729  0.00  0.00    +0.000 F 
ATOM     24  F   UNL     1       3.107   6.673  19.571  0.00  0.00    +0.000 F 
ATOM     25  F   UNL     1       1.783   6.552  17.842  0.00  0.00    +0.000 F 
ENDBRANCH  21  22
ENDBRANCH  20  21
ENDBRANCH   3  20
BRANCH   6  26
ATOM     26  O   UNL     1      -1.563  12.142  23.207  0.00  0.00    +0.000 OA
BRANCH  26  27
ATOM     27  C   UNL     1      -2.957  11.860  23.445  0.00  0.00    +0.000 C 
BRANCH  27  28
ATOM     28  C   UNL     1      -3.703  12.920  24.250  0.00  0.00    +0.000 C 
ATOM     29  F   UNL     1      -4.181  12.467  25.425  0.00  0.00    +0.000 F 
ATOM     30  F   UNL     1      -2.872  13.958  24.524  0.00  0.00    +0.000 F 
ATOM     31  F   UNL     1      -4.738  13.429  23.540  0.00  0.00    +0.000 F 
ENDBRANCH  27  28
ENDBRANCH  26  27
ENDBRANCH   6  26
TORSDOF 8
ENDMDL
