MODEL 1
REMARK VINA RESULT:      -7.8      0.000      0.000
REMARK  Name = 
REMARK  1 active torsions:
REMARK  status: ('A' for Active; 'I' for Inactive)
REMARK    1  A    between atoms: C_6  and  C_7
REMARK                            x       y       z     vdW  Elec       q    Type
REMARK                         _______ _______ _______ _____ _____    ______ ____
ROOT
ATOM      1  C   UNL     1       7.282   4.732  14.134  0.00  0.00    +0.000 A 
ATOM      2  C   UNL     1       6.064   4.210  13.705  0.00  0.00    +0.000 A 
ATOM      3  C   UNL     1       5.052   3.967  14.630  0.00  0.00    +0.000 A 
ATOM      4  C   UNL     1       5.247   4.240  15.994  0.00  0.00    +0.000 A 
ATOM      5  C   UNL     1       4.219   4.029  16.914  0.00  0.00    +0.000 A 
ATOM      6  C   UNL     1       4.384   4.324  18.282  0.00  0.00    +0.000 A 
ATOM      7  C   UNL     1       5.643   4.800  18.718  0.00  0.00    +0.000 A 
ATOM      8  C   UNL     1       6.676   5.006  17.798  0.00  0.00    +0.000 A 
ATOM      9  C   UNL     1       6.489   4.750  16.433  0.00  0.00    +0.000 A 
ATOM     10  C   UNL     1       7.495   4.995  15.487  0.00  0.00    +0.000 A 
ENDROOT
BRANCH   6  11
ATOM     11  C   UNL     1       3.118   4.119  19.184  0.00  0.00    +0.000 C 
ATOM     12  C   UNL     1       2.722   2.932  18.176  0.00  0.00    +0.000 C 
ATOM     13  C   UNL     1       1.744   1.996  18.867  0.00  0.00    +0.000 C 
ATOM     14  C   UNL     1       0.846   2.924  19.614  0.00  0.00    +0.000 C 
ATOM     15  C   UNL     1       1.553   4.265  19.491  0.00  0.00    +0.000 C 
ATOM     16  C   UNL     1       1.458   5.019  20.804  0.00  0.00    +0.000 C 
ATOM     17  N   UNL     1       2.472   6.042  20.666  0.00  0.00    +0.000 NA
ATOM     18  C   UNL     1       3.136   5.723  19.386  0.00  0.00    +0.000 C 
ATOM     19  H   UNL     1       3.152   5.941  21.420  0.00  0.00    +0.000 HD
ENDBRANCH   6  11
TORSDOF 1
ENDMDL
MODEL 2
REMARK VINA RESULT:      -7.8      3.047      4.399
REMARK  Name = 
REMARK  1 active torsions:
REMARK  status: ('A' for Active; 'I' for Inactive)
REMARK    1  A    between atoms: C_6  and  C_7
REMARK                            x       y       z     vdW  Elec       q    Type
REMARK                         _______ _______ _______ _____ _____    ______ ____
ROOT
ATOM      1  C   UNL     1       5.627   3.974  16.010  0.00  0.00    +0.000 A 
ATOM      2  C   UNL     1       5.860   5.242  15.482  0.00  0.00    +0.000 A 
ATOM      3  C   UNL     1       5.174   6.340  15.994  0.00  0.00    +0.000 A 
ATOM      4  C   UNL     1       4.246   6.184  17.037  0.00  0.00    +0.000 A 
ATOM      5  C   UNL     1       3.586   7.291  17.573  0.00  0.00    +0.000 A 
ATOM      6  C   UNL     1       2.674   7.159  18.639  0.00  0.00    +0.000 A 
ATOM      7  C   UNL     1       2.401   5.861  19.130  0.00  0.00    +0.000 A 
ATOM      8  C   UNL     1       3.057   4.750  18.591  0.00  0.00    +0.000 A 
ATOM      9  C   UNL     1       3.994   4.895  17.560  0.00  0.00    +0.000 A 
ATOM     10  C   UNL     1       4.699   3.801  17.037  0.00  0.00    +0.000 A 
ENDROOT
BRANCH   6  11
ATOM     11  C   UNL     1       2.074   8.496  19.195  0.00  0.00    +0.000 C 
ATOM     12  C   UNL     1       1.538   7.620  20.431  0.00  0.00    +0.000 C 
ATOM     13  C   UNL     1       1.254   8.539  21.608  0.00  0.00    +0.000 C 
ATOM     14  C   UNL     1       0.628   9.734  20.971  0.00  0.00    +0.000 C 
ATOM     15  C   UNL     1       0.855   9.495  19.486  0.00  0.00    +0.000 C 
ATOM     16  C   UNL     1       1.221  10.800  18.805  0.00  0.00    +0.000 C 
ATOM     17  N   UNL     1       1.776  10.365  17.542  0.00  0.00    +0.000 NA
ATOM     18  C   UNL     1       1.809   8.893  17.650  0.00  0.00    +0.000 C 
ATOM     19  H   UNL     1       2.734  10.707  17.464  0.00  0.00    +0.000 HD
ENDBRANCH   6  11
TORSDOF 1
ENDMDL
MODEL 3
REMARK VINA RESULT:      -7.8      1.317      2.062
REMARK  Name = 
REMARK  1 active torsions:
REMARK  status: ('A' for Active; 'I' for Inactive)
REMARK    1  A    between atoms: C_6  and  C_7
REMARK                            x       y       z     vdW  Elec       q    Type
REMARK                         _______ _______ _______ _____ _____    ______ ____
ROOT
ATOM      1  C   UNL     1       7.479   4.836  14.185  0.00  0.00    +0.000 A 
ATOM      2  C   UNL     1       6.356   4.240  13.617  0.00  0.00    +0.000 A 
ATOM      3  C   UNL     1       5.265   3.915  14.418  0.00  0.00    +0.000 A 
ATOM      4  C   UNL     1       5.285   4.179  15.798  0.00  0.00    +0.000 A 
ATOM      5  C   UNL     1       4.177   3.885  16.593  0.00  0.00    +0.000 A 
ATOM      6  C   UNL     1       4.165   4.169  17.974  0.00  0.00    +0.000 A 
ATOM      7  C   UNL     1       5.331   4.722  18.553  0.00  0.00    +0.000 A 
ATOM      8  C   UNL     1       6.445   5.011  17.759  0.00  0.00    +0.000 A 
ATOM      9  C   UNL     1       6.432   4.765  16.380  0.00  0.00    +0.000 A 
ATOM     10  C   UNL     1       7.519   5.092  15.556  0.00  0.00    +0.000 A 
ENDROOT
BRANCH   6  11
ATOM     11  C   UNL     1       2.823   3.865  18.723  0.00  0.00    +0.000 C 
ATOM     12  C   UNL     1       3.229   5.059  19.718  0.00  0.00    +0.000 C 
ATOM     13  C   UNL     1       1.984   5.562  20.431  0.00  0.00    +0.000 C 
ATOM     14  C   UNL     1       1.231   4.310  20.735  0.00  0.00    +0.000 C 
ATOM     15  C   UNL     1       1.982   3.252  19.942  0.00  0.00    +0.000 C 
ATOM     16  C   UNL     1       0.997   2.283  19.316  0.00  0.00    +0.000 C 
ATOM     17  N   UNL     1       1.794   1.610  18.312  0.00  0.00    +0.000 NA
ATOM     18  C   UNL     1       3.091   2.316  18.349  0.00  0.00    +0.000 C 
ATOM     19  H   UNL     1       1.369   1.757  17.397  0.00  0.00    +0.000 HD
ENDBRANCH   6  11
TORSDOF 1
ENDMDL
MODEL 4
REMARK VINA RESULT:      -7.7      2.561      3.454
REMARK  Name = 
REMARK  1 active torsions:
REMARK  status: ('A' for Active; 'I' for Inactive)
REMARK    1  A    between atoms: C_6  and  C_7
REMARK                            x       y       z     vdW  Elec       q    Type
REMARK                         _______ _______ _______ _____ _____    ______ ____
ROOT
ATOM      1  C   UNL     1       8.073   7.417  17.922  0.00  0.00    +0.000 A 
ATOM      2  C   UNL     1       8.250   6.486  18.942  0.00  0.00    +0.000 A 
ATOM      3  C   UNL     1       7.190   5.667  19.322  0.00  0.00    +0.000 A 
ATOM      4  C   UNL     1       5.941   5.771  18.688  0.00  0.00    +0.000 A 
ATOM      5  C   UNL     1       4.890   4.924  19.046  0.00  0.00    +0.000 A 
ATOM      6  C   UNL     1       3.639   4.992  18.402  0.00  0.00    +0.000 A 
ATOM      7  C   UNL     1       3.451   5.978  17.406  0.00  0.00    +0.000 A 
ATOM      8  C   UNL     1       4.500   6.831  17.050  0.00  0.00    +0.000 A 
ATOM      9  C   UNL     1       5.755   6.728  17.666  0.00  0.00    +0.000 A 
ATOM     10  C   UNL     1       6.835   7.541  17.292  0.00  0.00    +0.000 A 
ENDROOT
BRANCH   6  11
ATOM     11  C   UNL     1       2.582   3.924  18.847  0.00  0.00    +0.000 C 
ATOM     12  C   UNL     1       2.352   4.844  20.144  0.00  0.00    +0.000 C 
ATOM     13  C   UNL     1       1.001   4.515  20.758  0.00  0.00    +0.000 C 
ATOM     14  C   UNL     1       0.921   3.030  20.642  0.00  0.00    +0.000 C 
ATOM     15  C   UNL     1       2.102   2.687  19.746  0.00  0.00    +0.000 C 
ATOM     16  C   UNL     1       1.706   1.596  18.769  0.00  0.00    +0.000 C 
ATOM     17  N   UNL     1       2.750   1.661  17.769  0.00  0.00    +0.000 NA
ATOM     18  C   UNL     1       3.558   2.831  18.165  0.00  0.00    +0.000 C 
ATOM     19  H   UNL     1       2.328   1.850  16.859  0.00  0.00    +0.000 HD
ENDBRANCH   6  11
TORSDOF 1
ENDMDL
MODEL 5
REMARK VINA RESULT:      -7.7      1.043      1.080
REMARK  Name = 
REMARK  1 active torsions:
REMARK  status: ('A' for Active; 'I' for Inactive)
REMARK    1  A    between atoms: C_6  and  C_7
REMARK                            x       y       z     vdW  Elec       q    Type
REMARK                         _______ _______ _______ _____ _____    ______ ____
ROOT
ATOM      1  C   UNL     1       7.079   4.671  14.405  0.00  0.00    +0.000 A 
ATOM      2  C   UNL     1       5.784   4.225  14.150  0.00  0.00    +0.000 A 
ATOM      3  C   UNL     1       4.856   4.168  15.186  0.00  0.00    +0.000 A 
ATOM      4  C   UNL     1       5.212   4.553  16.490  0.00  0.00    +0.000 A 
ATOM      5  C   UNL     1       4.270   4.529  17.519  0.00  0.00    +0.000 A 
ATOM      6  C   UNL     1       4.599   4.939  18.827  0.00  0.00    +0.000 A 
ATOM      7  C   UNL     1       5.931   5.336  19.089  0.00  0.00    +0.000 A 
ATOM      8  C   UNL     1       6.877   5.355  18.060  0.00  0.00    +0.000 A 
ATOM      9  C   UNL     1       6.531   4.986  16.754  0.00  0.00    +0.000 A 
ATOM     10  C   UNL     1       7.451   5.044  15.697  0.00  0.00    +0.000 A 
ENDROOT
BRANCH   6  11
ATOM     11  C   UNL     1       3.420   4.940  19.860  0.00  0.00    +0.000 C 
ATOM     12  C   UNL     1       3.427   3.341  19.712  0.00  0.00    +0.000 C 
ATOM     13  C   UNL     1       2.745   2.724  20.923  0.00  0.00    +0.000 C 
ATOM     14  C   UNL     1       1.588   3.633  21.169  0.00  0.00    +0.000 C 
ATOM     15  C   UNL     1       1.871   4.811  20.250  0.00  0.00    +0.000 C 
ATOM     16  C   UNL     1       1.514   6.108  20.951  0.00  0.00    +0.000 C 
ATOM     17  N   UNL     1       2.184   7.108  20.149  0.00  0.00    +0.000 NA
ATOM     18  C   UNL     1       2.956   6.324  19.165  0.00  0.00    +0.000 C 
ATOM     19  H   UNL     1       2.837   7.625  20.738  0.00  0.00    +0.000 HD
ENDBRANCH   6  11
TORSDOF 1
ENDMDL
MODEL 6
REMARK VINA RESULT:      -7.7      1.840      5.875
REMARK  Name = 
REMARK  1 active torsions:
REMARK  status: ('A' for Active; 'I' for Inactive)
REMARK    1  A    between atoms: C_6  and  C_7
REMARK                            x       y       z     vdW  Elec       q    Type
REMARK                         _______ _______ _______ _____ _____    ______ ____
ROOT
ATOM      1  C   UNL     1       1.340   2.870  21.531  0.00  0.00    +0.000 A 
ATOM      2  C   UNL     1       2.576   2.228  21.566  0.00  0.00    +0.000 A 
ATOM      3  C   UNL     1       3.566   2.583  20.654  0.00  0.00    +0.000 A 
ATOM      4  C   UNL     1       3.332   3.581  19.693  0.00  0.00    +0.000 A 
ATOM      5  C   UNL     1       4.337   3.960  18.803  0.00  0.00    +0.000 A 
ATOM      6  C   UNL     1       4.132   4.980  17.852  0.00  0.00    +0.000 A 
ATOM      7  C   UNL     1       2.856   5.586  17.785  0.00  0.00    +0.000 A 
ATOM      8  C   UNL     1       1.845   5.203  18.672  0.00  0.00    +0.000 A 
ATOM      9  C   UNL     1       2.072   4.219  19.643  0.00  0.00    +0.000 A 
ATOM     10  C   UNL     1       1.088   3.853  20.574  0.00  0.00    +0.000 A 
ENDROOT
BRANCH   6  11
ATOM     11  C   UNL     1       5.376   5.359  16.976  0.00  0.00    +0.000 C 
ATOM     12  C   UNL     1       4.967   4.116  16.043  0.00  0.00    +0.000 C 
ATOM     13  C   UNL     1       5.599   4.292  14.672  0.00  0.00    +0.000 C 
ATOM     14  C   UNL     1       6.961   4.815  14.984  0.00  0.00    +0.000 C 
ATOM     15  C   UNL     1       6.879   5.134  16.469  0.00  0.00    +0.000 C 
ATOM     16  C   UNL     1       7.610   6.431  16.758  0.00  0.00    +0.000 C 
ATOM     17  N   UNL     1       7.122   6.794  18.071  0.00  0.00    +0.000 NA
ATOM     18  C   UNL     1       6.087   5.784  18.364  0.00  0.00    +0.000 C 
ATOM     19  H   UNL     1       6.678   7.711  18.020  0.00  0.00    +0.000 HD
ENDBRANCH   6  11
TORSDOF 1
ENDMDL
MODEL 7
REMARK VINA RESULT:      -7.7      2.400      2.946
REMARK  Name = 
REMARK  1 active torsions:
REMARK  status: ('A' for Active; 'I' for Inactive)
REMARK    1  A    between atoms: C_6  and  C_7
REMARK                            x       y       z     vdW  Elec       q    Type
REMARK                         _______ _______ _______ _____ _____    ______ ____
ROOT
ATOM      1  C   UNL     1       7.692   7.304  17.682  0.00  0.00    +0.000 A 
ATOM      2  C   UNL     1       8.046   6.429  18.707  0.00  0.00    +0.000 A 
ATOM      3  C   UNL     1       7.082   5.597  19.269  0.00  0.00    +0.000 A 
ATOM      4  C   UNL     1       5.752   5.631  18.817  0.00  0.00    +0.000 A 
ATOM      5  C   UNL     1       4.795   4.770  19.357  0.00  0.00    +0.000 A 
ATOM      6  C   UNL     1       3.464   4.769  18.896  0.00  0.00    +0.000 A 
ATOM      7  C   UNL     1       3.100   5.700  17.896  0.00  0.00    +0.000 A 
ATOM      8  C   UNL     1       4.056   6.567  17.357  0.00  0.00    +0.000 A 
ATOM      9  C   UNL     1       5.387   6.532  17.791  0.00  0.00    +0.000 A 
ATOM     10  C   UNL     1       6.373   7.359  17.231  0.00  0.00    +0.000 A 
ENDROOT
BRANCH   6  11
ATOM     11  C   UNL     1       2.521   3.691  19.534  0.00  0.00    +0.000 C 
ATOM     12  C   UNL     1       1.857   3.560  18.077  0.00  0.00    +0.000 C 
ATOM     13  C   UNL     1       1.134   2.227  17.974  0.00  0.00    +0.000 C 
ATOM     14  C   UNL     1       0.487   2.081  19.310  0.00  0.00    +0.000 C 
ATOM     15  C   UNL     1       1.113   3.204  20.124  0.00  0.00    +0.000 C 
ATOM     16  C   UNL     1       1.402   2.719  21.532  0.00  0.00    +0.000 C 
ATOM     17  N   UNL     1       2.321   3.716  22.038  0.00  0.00    +0.000 NA
ATOM     18  C   UNL     1       2.582   4.589  20.876  0.00  0.00    +0.000 C 
ATOM     19  H   UNL     1       3.193   3.260  22.305  0.00  0.00    +0.000 HD
ENDBRANCH   6  11
TORSDOF 1
ENDMDL
MODEL 8
REMARK VINA RESULT:      -7.7      2.960      5.232
REMARK  Name = 
REMARK  1 active torsions:
REMARK  status: ('A' for Active; 'I' for Inactive)
REMARK    1  A    between atoms: C_6  and  C_7
REMARK                            x       y       z     vdW  Elec       q    Type
REMARK                         _______ _______ _______ _____ _____    ______ ____
ROOT
ATOM      1  C   UNL     1       2.954   1.976  18.377  0.00  0.00    +0.000 A 
ATOM      2  C   UNL     1       2.057   2.199  19.418  0.00  0.00    +0.000 A 
ATOM      3  C   UNL     1       1.753   3.502  19.802  0.00  0.00    +0.000 A 
ATOM      4  C   UNL     1       2.345   4.598  19.152  0.00  0.00    +0.000 A 
ATOM      5  C   UNL     1       2.012   5.904  19.514  0.00  0.00    +0.000 A 
ATOM      6  C   UNL     1       2.572   7.016  18.855  0.00  0.00    +0.000 A 
ATOM      7  C   UNL     1       3.525   6.781  17.837  0.00  0.00    +0.000 A 
ATOM      8  C   UNL     1       3.865   5.473  17.477  0.00  0.00    +0.000 A 
ATOM      9  C   UNL     1       3.271   4.373  18.109  0.00  0.00    +0.000 A 
ATOM     10  C   UNL     1       3.561   3.053  17.730  0.00  0.00    +0.000 A 
ENDROOT
BRANCH   6  11
ATOM     11  C   UNL     1       2.041   8.419  19.309  0.00  0.00    +0.000 C 
ATOM     12  C   UNL     1       1.506   7.673  20.628  0.00  0.00    +0.000 C 
ATOM     13  C   UNL     1       1.292   8.698  21.730  0.00  0.00    +0.000 C 
ATOM     14  C   UNL     1       0.696   9.861  21.009  0.00  0.00    +0.000 C 
ATOM     15  C   UNL     1       0.872   9.489  19.545  0.00  0.00    +0.000 C 
ATOM     16  C   UNL     1       1.269  10.716  18.747  0.00  0.00    +0.000 C 
ATOM     17  N   UNL     1       1.772  10.153  17.512  0.00  0.00    +0.000 NA
ATOM     18  C   UNL     1       1.749   8.695  17.744  0.00  0.00    +0.000 C 
ATOM     19  H   UNL     1       2.739  10.447  17.381  0.00  0.00    +0.000 HD
ENDBRANCH   6  11
TORSDOF 1
ENDMDL
MODEL 9
REMARK VINA RESULT:      -7.6      2.149      6.208
REMARK  Name = 
REMARK  1 active torsions:
REMARK  status: ('A' for Active; 'I' for Inactive)
REMARK    1  A    between atoms: C_6  and  C_7
REMARK                            x       y       z     vdW  Elec       q    Type
REMARK                         _______ _______ _______ _____ _____    ______ ____
ROOT
ATOM      1  C   UNL     1       0.936   2.678  21.201  0.00  0.00    +0.000 A 
ATOM      2  C   UNL     1       2.190   2.566  21.797  0.00  0.00    +0.000 A 
ATOM      3  C   UNL     1       3.331   2.902  21.074  0.00  0.00    +0.000 A 
ATOM      4  C   UNL     1       3.233   3.350  19.746  0.00  0.00    +0.000 A 
ATOM      5  C   UNL     1       4.376   3.721  19.035  0.00  0.00    +0.000 A 
ATOM      6  C   UNL     1       4.296   4.201  17.713  0.00  0.00    +0.000 A 
ATOM      7  C   UNL     1       3.025   4.257  17.096  0.00  0.00    +0.000 A 
ATOM      8  C   UNL     1       1.879   3.881  17.805  0.00  0.00    +0.000 A 
ATOM      9  C   UNL     1       1.963   3.445  19.134  0.00  0.00    +0.000 A 
ATOM     10  C   UNL     1       0.823   3.109  19.878  0.00  0.00    +0.000 A 
ENDROOT
BRANCH   6  11
ATOM     11  C   UNL     1       5.650   4.660  17.069  0.00  0.00    +0.000 C 
ATOM     12  C   UNL     1       5.697   5.780  18.220  0.00  0.00    +0.000 C 
ATOM     13  C   UNL     1       7.127   6.267  18.386  0.00  0.00    +0.000 C 
ATOM     14  C   UNL     1       7.629   6.349  16.983  0.00  0.00    +0.000 C 
ATOM     15  C   UNL     1       6.536   5.657  16.182  0.00  0.00    +0.000 C 
ATOM     16  C   UNL     1       7.159   4.800  15.097  0.00  0.00    +0.000 C 
ATOM     17  N   UNL     1       6.070   3.932  14.702  0.00  0.00    +0.000 NA
ATOM     18  C   UNL     1       4.987   4.257  15.651  0.00  0.00    +0.000 C 
ATOM     19  H   UNL     1       6.349   2.962  14.845  0.00  0.00    +0.000 HD
ENDBRANCH   6  11
TORSDOF 1
ENDMDL
