MODEL 1
REMARK VINA RESULT:      -8.4      0.000      0.000
REMARK  Name = 
REMARK  6 active torsions:
REMARK  status: ('A' for Active; 'I' for Inactive)
REMARK    1  A    between atoms: N_1  and  C_2
REMARK    2  A    between atoms: C_3  and  C_4
REMARK    3  A    between atoms: N_6  and  C_7
REMARK    4  A    between atoms: C_7  and  C_8
REMARK    5  A    between atoms: C_8  and  C_9
REMARK    6  A    between atoms: C_12  and  N_13
REMARK                            x       y       z     vdW  Elec       q    Type
REMARK                         _______ _______ _______ _____ _____    ______ ____
ROOT
ATOM      1  C   UNL     1       7.599   7.558  17.469  0.00  0.00    +0.000 C 
ATOM      2  O   UNL     1       8.339   7.374  16.515  0.00  0.00    +0.000 OA
ATOM      3  N   UNL     1       7.741   8.674  18.237  0.00  0.00    +0.000 N 
ATOM      4  H   UNL     1       7.122   8.823  19.046  0.00  0.00    +0.000 HD
ENDROOT
BRANCH   1   6
ATOM      5  C   UNL     1       5.335   6.302  17.063  0.00  0.00    +0.000 A 
ATOM      6  C   UNL     1       6.519   6.591  17.783  0.00  0.00    +0.000 A 
ATOM      7  S   UNL     1       6.542   5.654  19.192  0.00  0.00    +0.000 S 
ATOM      8  C   UNL     1       5.086   4.922  18.915  0.00  0.00    +0.000 A 
ATOM      9  N   UNL     1       4.503   4.008  19.718  0.00  0.00    +0.000 NA
ATOM     10  C   UNL     1       3.297   3.486  19.380  0.00  0.00    +0.000 A 
ATOM     11  C   UNL     1       2.628   3.937  18.207  0.00  0.00    +0.000 A 
ATOM     12  C   UNL     1       3.268   4.871  17.364  0.00  0.00    +0.000 A 
ATOM     13  C   UNL     1       4.524   5.364  17.737  0.00  0.00    +0.000 A 
ATOM     14  C   UNL     1       1.250   3.434  17.848  0.00  0.00    +0.000 C 
ATOM     15  C   UNL     1       0.586   2.655  18.999  0.00  0.00    +0.000 C 
ATOM     16  C   UNL     1       1.574   1.660  19.589  0.00  0.00    +0.000 C 
ATOM     17  C   UNL     1       2.720   2.421  20.267  0.00  0.00    +0.000 C 
BRANCH   5  18
ATOM     18  N   UNL     1       4.980   6.892  15.817  0.00  0.00    +0.000 N 
ATOM     19  H   UNL     1       5.383   6.573  14.930  0.00  0.00    +0.000 HD
ATOM     20  H   UNL     1       4.276   7.640  15.769  0.00  0.00    +0.000 HD
ENDBRANCH   5  18
ENDBRANCH   1   6
BRANCH   3  21
ATOM     21  C   UNL     1       8.727   9.690  17.951  0.00  0.00    +0.000 C 
BRANCH  21  22
ATOM     22  C   UNL     1       9.508  10.045  19.228  0.00  0.00    +0.000 C 
BRANCH  22  23
ATOM     23  C   UNL     1      10.201  11.367  19.062  0.00  0.00    +0.000 A 
ATOM     24  C   UNL     1      10.504  12.158  20.176  0.00  0.00    +0.000 A 
ATOM     25  C   UNL     1      11.092  13.413  20.011  0.00  0.00    +0.000 A 
ATOM     26  C   UNL     1      11.373  13.912  18.722  0.00  0.00    +0.000 A 
ATOM     27  C   UNL     1      11.090  13.090  17.610  0.00  0.00    +0.000 A 
ATOM     28  C   UNL     1      10.524  11.831  17.781  0.00  0.00    +0.000 A 
BRANCH  26  29
ATOM     29  N   UNL     1      11.876  15.246  18.546  0.00  0.00    +0.000 N 
ATOM     30  C   UNL     1      12.026  15.863  17.236  0.00  0.00    +0.000 C 
ATOM     31  C   UNL     1      11.325  17.231  17.259  0.00  0.00    +0.000 C 
ATOM     32  N   UNL     1      11.853  18.049  18.363  0.00  0.00    +0.000 NA
ATOM     33  C   UNL     1      11.618  17.392  19.657  0.00  0.00    +0.000 C 
ATOM     34  C   UNL     1      12.333  16.046  19.675  0.00  0.00    +0.000 C 
ATOM     35  H   UNL     1      11.368  18.977  18.364  0.00  0.00    +0.000 HD
ENDBRANCH  26  29
ENDBRANCH  22  23
ENDBRANCH  21  22
ENDBRANCH   3  21
TORSDOF 6
ENDMDL
MODEL 2
REMARK VINA RESULT:      -8.2      1.122      1.850
REMARK  Name = 
REMARK  6 active torsions:
REMARK  status: ('A' for Active; 'I' for Inactive)
REMARK    1  A    between atoms: N_1  and  C_2
REMARK    2  A    between atoms: C_3  and  C_4
REMARK    3  A    between atoms: N_6  and  C_7
REMARK    4  A    between atoms: C_7  and  C_8
REMARK    5  A    between atoms: C_8  and  C_9
REMARK    6  A    between atoms: C_12  and  N_13
REMARK                            x       y       z     vdW  Elec       q    Type
REMARK                         _______ _______ _______ _____ _____    ______ ____
ROOT
ATOM      1  C   UNL     1       7.513   7.679  17.482  0.00  0.00    +0.000 C 
ATOM      2  O   UNL     1       8.276   7.415  16.566  0.00  0.00    +0.000 OA
ATOM      3  N   UNL     1       7.678   8.825  18.199  0.00  0.00    +0.000 N 
ATOM      4  H   UNL     1       7.039   9.041  18.976  0.00  0.00    +0.000 HD
ENDROOT
BRANCH   1   6
ATOM      5  C   UNL     1       6.321   5.704  18.727  0.00  0.00    +0.000 A 
ATOM      6  C   UNL     1       6.382   6.775  17.804  0.00  0.00    +0.000 A 
ATOM      7  S   UNL     1       4.894   6.890  17.004  0.00  0.00    +0.000 S 
ATOM      8  C   UNL     1       4.200   5.607  17.783  0.00  0.00    +0.000 A 
ATOM      9  N   UNL     1       2.945   5.156  17.585  0.00  0.00    +0.000 NA
ATOM     10  C   UNL     1       2.495   4.085  18.286  0.00  0.00    +0.000 A 
ATOM     11  C   UNL     1       3.363   3.411  19.192  0.00  0.00    +0.000 A 
ATOM     12  C   UNL     1       4.662   3.917  19.409  0.00  0.00    +0.000 A 
ATOM     13  C   UNL     1       5.076   5.041  18.684  0.00  0.00    +0.000 A 
ATOM     14  C   UNL     1       2.916   2.168  19.925  0.00  0.00    +0.000 C 
ATOM     15  C   UNL     1       1.600   1.593  19.371  0.00  0.00    +0.000 C 
ATOM     16  C   UNL     1       0.585   2.711  19.185  0.00  0.00    +0.000 C 
ATOM     17  C   UNL     1       1.068   3.661  18.083  0.00  0.00    +0.000 C 
BRANCH   5  18
ATOM     18  N   UNL     1       7.384   5.318  19.590  0.00  0.00    +0.000 N 
ATOM     19  H   UNL     1       7.891   5.997  20.168  0.00  0.00    +0.000 HD
ATOM     20  H   UNL     1       7.654   4.330  19.685  0.00  0.00    +0.000 HD
ENDBRANCH   5  18
ENDBRANCH   1   6
BRANCH   3  21
ATOM     21  C   UNL     1       8.716   9.783  17.899  0.00  0.00    +0.000 C 
BRANCH  21  22
ATOM     22  C   UNL     1       9.491  10.144  19.177  0.00  0.00    +0.000 C 
BRANCH  22  23
ATOM     23  C   UNL     1       9.923  11.581  19.136  0.00  0.00    +0.000 A 
ATOM     24  C   UNL     1       9.435  12.444  18.148  0.00  0.00    +0.000 A 
ATOM     25  C   UNL     1       9.889  13.762  18.078  0.00  0.00    +0.000 A 
ATOM     26  C   UNL     1      10.858  14.239  18.984  0.00  0.00    +0.000 A 
ATOM     27  C   UNL     1      11.318  13.366  19.993  0.00  0.00    +0.000 A 
ATOM     28  C   UNL     1      10.847  12.060  20.074  0.00  0.00    +0.000 A 
BRANCH  26  29
ATOM     29  N   UNL     1      11.406  15.560  18.845  0.00  0.00    +0.000 N 
ATOM     30  C   UNL     1      11.933  16.064  17.584  0.00  0.00    +0.000 C 
ATOM     31  C   UNL     1      11.270  17.418  17.287  0.00  0.00    +0.000 C 
ATOM     32  N   UNL     1      11.468  18.337  18.420  0.00  0.00    +0.000 NA
ATOM     33  C   UNL     1      10.864  17.790  19.645  0.00  0.00    +0.000 C 
ATOM     34  C   UNL     1      11.529  16.461  19.983  0.00  0.00    +0.000 C 
ATOM     35  H   UNL     1      11.013  19.254  18.201  0.00  0.00    +0.000 HD
ENDBRANCH  26  29
ENDBRANCH  22  23
ENDBRANCH  21  22
ENDBRANCH   3  21
TORSDOF 6
ENDMDL
MODEL 3
REMARK VINA RESULT:      -8.1      1.269      1.703
REMARK  Name = 
REMARK  6 active torsions:
REMARK  status: ('A' for Active; 'I' for Inactive)
REMARK    1  A    between atoms: N_1  and  C_2
REMARK    2  A    between atoms: C_3  and  C_4
REMARK    3  A    between atoms: N_6  and  C_7
REMARK    4  A    between atoms: C_7  and  C_8
REMARK    5  A    between atoms: C_8  and  C_9
REMARK    6  A    between atoms: C_12  and  N_13
REMARK                            x       y       z     vdW  Elec       q    Type
REMARK                         _______ _______ _______ _____ _____    ______ ____
ROOT
ATOM      1  C   UNL     1       7.515   7.650  17.357  0.00  0.00    +0.000 C 
ATOM      2  O   UNL     1       8.343   7.364  16.506  0.00  0.00    +0.000 OA
ATOM      3  N   UNL     1       7.600   8.837  18.020  0.00  0.00    +0.000 N 
ATOM      4  H   UNL     1       6.906   9.072  18.743  0.00  0.00    +0.000 HD
ENDROOT
BRANCH   1   6
ATOM      5  C   UNL     1       6.417   5.432  18.221  0.00  0.00    +0.000 A 
ATOM      6  C   UNL     1       6.391   6.729  17.654  0.00  0.00    +0.000 A 
ATOM      7  S   UNL     1       4.789   7.127  17.278  0.00  0.00    +0.000 S 
ATOM      8  C   UNL     1       4.149   5.692  17.794  0.00  0.00    +0.000 A 
ATOM      9  N   UNL     1       2.841   5.362  17.764  0.00  0.00    +0.000 NA
ATOM     10  C   UNL     1       2.443   4.145  18.212  0.00  0.00    +0.000 A 
ATOM     11  C   UNL     1       3.408   3.202  18.667  0.00  0.00    +0.000 A 
ATOM     12  C   UNL     1       4.767   3.577  18.720  0.00  0.00    +0.000 A 
ATOM     13  C   UNL     1       5.131   4.853  18.272  0.00  0.00    +0.000 A 
ATOM     14  C   UNL     1       3.003   1.811  19.095  0.00  0.00    +0.000 C 
ATOM     15  C   UNL     1       1.551   1.473  18.712  0.00  0.00    +0.000 C 
ATOM     16  C   UNL     1       0.633   2.627  19.088  0.00  0.00    +0.000 C 
ATOM     17  C   UNL     1       0.971   3.848  18.224  0.00  0.00    +0.000 C 
BRANCH   5  18
ATOM     18  N   UNL     1       7.593   4.771  18.675  0.00  0.00    +0.000 N 
ATOM     19  H   UNL     1       7.580   3.798  18.999  0.00  0.00    +0.000 HD
ATOM     20  H   UNL     1       8.506   5.246  18.657  0.00  0.00    +0.000 HD
ENDBRANCH   5  18
ENDBRANCH   1   6
BRANCH   3  21
ATOM     21  C   UNL     1       8.628   9.810  17.736  0.00  0.00    +0.000 C 
BRANCH  21  22
ATOM     22  C   UNL     1       9.190  10.386  19.046  0.00  0.00    +0.000 C 
BRANCH  22  23
ATOM     23  C   UNL     1       9.746  11.761  18.814  0.00  0.00    +0.000 A 
ATOM     24  C   UNL     1       9.449  12.808  19.694  0.00  0.00    +0.000 A 
ATOM     25  C   UNL     1       9.917  14.098  19.439  0.00  0.00    +0.000 A 
ATOM     26  C   UNL     1      10.678  14.372  18.284  0.00  0.00    +0.000 A 
ATOM     27  C   UNL     1      10.995  13.300  17.422  0.00  0.00    +0.000 A 
ATOM     28  C   UNL     1      10.545  12.012  17.692  0.00  0.00    +0.000 A 
BRANCH  26  29
ATOM     29  N   UNL     1      11.068  15.717  17.963  0.00  0.00    +0.000 N 
ATOM     30  C   UNL     1      10.294  16.569  17.070  0.00  0.00    +0.000 C 
ATOM     31  C   UNL     1      10.029  17.905  17.781  0.00  0.00    +0.000 C 
ATOM     32  N   UNL     1      11.300  18.505  18.217  0.00  0.00    +0.000 NA
ATOM     33  C   UNL     1      12.000  17.617  19.158  0.00  0.00    +0.000 C 
ATOM     34  C   UNL     1      12.308  16.295  18.466  0.00  0.00    +0.000 C 
ATOM     35  H   UNL     1      11.103  19.414  18.697  0.00  0.00    +0.000 HD
ENDBRANCH  26  29
ENDBRANCH  22  23
ENDBRANCH  21  22
ENDBRANCH   3  21
TORSDOF 6
ENDMDL
MODEL 4
REMARK VINA RESULT:      -8.0      1.115      1.217
REMARK  Name = 
REMARK  6 active torsions:
REMARK  status: ('A' for Active; 'I' for Inactive)
REMARK    1  A    between atoms: N_1  and  C_2
REMARK    2  A    between atoms: C_3  and  C_4
REMARK    3  A    between atoms: N_6  and  C_7
REMARK    4  A    between atoms: C_7  and  C_8
REMARK    5  A    between atoms: C_8  and  C_9
REMARK    6  A    between atoms: C_12  and  N_13
REMARK                            x       y       z     vdW  Elec       q    Type
REMARK                         _______ _______ _______ _____ _____    ______ ____
ROOT
ATOM      1  C   UNL     1       7.639   7.650  17.406  0.00  0.00    +0.000 C 
ATOM      2  O   UNL     1       8.430   7.419  16.505  0.00  0.00    +0.000 OA
ATOM      3  N   UNL     1       7.718   8.820  18.100  0.00  0.00    +0.000 N 
ATOM      4  H   UNL     1       7.056   9.009  18.865  0.00  0.00    +0.000 HD
ENDROOT
BRANCH   1   6
ATOM      5  C   UNL     1       5.349   6.425  17.055  0.00  0.00    +0.000 A 
ATOM      6  C   UNL     1       6.565   6.681  17.733  0.00  0.00    +0.000 A 
ATOM      7  S   UNL     1       6.640   5.697  19.108  0.00  0.00    +0.000 S 
ATOM      8  C   UNL     1       5.167   4.985  18.869  0.00  0.00    +0.000 A 
ATOM      9  N   UNL     1       4.611   4.049  19.665  0.00  0.00    +0.000 NA
ATOM     10  C   UNL     1       3.387   3.547  19.361  0.00  0.00    +0.000 A 
ATOM     11  C   UNL     1       2.673   4.042  18.233  0.00  0.00    +0.000 A 
ATOM     12  C   UNL     1       3.284   4.999  17.396  0.00  0.00    +0.000 A 
ATOM     13  C   UNL     1       4.560   5.470  17.731  0.00  0.00    +0.000 A 
ATOM     14  C   UNL     1       1.276   3.561  17.918  0.00  0.00    +0.000 C 
ATOM     15  C   UNL     1       0.655   2.748  19.069  0.00  0.00    +0.000 C 
ATOM     16  C   UNL     1       1.659   1.727  19.582  0.00  0.00    +0.000 C 
ATOM     17  C   UNL     1       2.839   2.456  20.237  0.00  0.00    +0.000 C 
BRANCH   5  18
ATOM     18  N   UNL     1       4.947   7.059  15.846  0.00  0.00    +0.000 N 
ATOM     19  H   UNL     1       4.731   6.526  14.997  0.00  0.00    +0.000 HD
ATOM     20  H   UNL     1       4.827   8.080  15.800  0.00  0.00    +0.000 HD
ENDBRANCH   5  18
ENDBRANCH   1   6
BRANCH   3  21
ATOM     21  C   UNL     1       8.695   9.837  17.793  0.00  0.00    +0.000 C 
BRANCH  21  22
ATOM     22  C   UNL     1       9.429  10.272  19.072  0.00  0.00    +0.000 C 
BRANCH  22  23
ATOM     23  C   UNL     1       9.658  11.756  19.063  0.00  0.00    +0.000 A 
ATOM     24  C   UNL     1       9.259  12.546  20.147  0.00  0.00    +0.000 A 
ATOM     25  C   UNL     1       9.418  13.932  20.105  0.00  0.00    +0.000 A 
ATOM     26  C   UNL     1       9.962  14.560  18.965  0.00  0.00    +0.000 A 
ATOM     27  C   UNL     1      10.387  13.748  17.893  0.00  0.00    +0.000 A 
ATOM     28  C   UNL     1      10.247  12.365  17.947  0.00  0.00    +0.000 A 
BRANCH  26  29
ATOM     29  N   UNL     1      10.025  15.993  18.877  0.00  0.00    +0.000 N 
ATOM     30  C   UNL     1      11.118  16.693  18.216  0.00  0.00    +0.000 C 
ATOM     31  C   UNL     1      10.520  17.681  17.202  0.00  0.00    +0.000 C 
ATOM     32  N   UNL     1       9.564  18.576  17.873  0.00  0.00    +0.000 NA
ATOM     33  C   UNL     1       8.460  17.807  18.468  0.00  0.00    +0.000 C 
ATOM     34  C   UNL     1       9.022  16.843  19.505  0.00  0.00    +0.000 C 
ATOM     35  H   UNL     1       9.168  19.243  17.170  0.00  0.00    +0.000 HD
ENDBRANCH  26  29
ENDBRANCH  22  23
ENDBRANCH  21  22
ENDBRANCH   3  21
TORSDOF 6
ENDMDL
MODEL 5
REMARK VINA RESULT:      -7.9      6.533     10.150
REMARK  Name = 
REMARK  6 active torsions:
REMARK  status: ('A' for Active; 'I' for Inactive)
REMARK    1  A    between atoms: N_1  and  C_2
REMARK    2  A    between atoms: C_3  and  C_4
REMARK    3  A    between atoms: N_6  and  C_7
REMARK    4  A    between atoms: C_7  and  C_8
REMARK    5  A    between atoms: C_8  and  C_9
REMARK    6  A    between atoms: C_12  and  N_13
REMARK                            x       y       z     vdW  Elec       q    Type
REMARK                         _______ _______ _______ _____ _____    ______ ____
ROOT
ATOM      1  C   UNL     1       1.706   5.521  20.722  0.00  0.00    +0.000 C 
ATOM      2  O   UNL     1       2.677   5.144  21.359  0.00  0.00    +0.000 OA
ATOM      3  N   UNL     1       0.760   4.625  20.326  0.00  0.00    +0.000 N 
ATOM      4  H   UNL     1      -0.053   4.944  19.781  0.00  0.00    +0.000 HD
ENDROOT
BRANCH   1   6
ATOM      5  C   UNL     1       1.980   7.693  19.280  0.00  0.00    +0.000 A 
ATOM      6  C   UNL     1       1.527   6.958  20.402  0.00  0.00    +0.000 A 
ATOM      7  S   UNL     1       0.723   8.012  21.455  0.00  0.00    +0.000 S 
ATOM      8  C   UNL     1       0.961   9.363  20.532  0.00  0.00    +0.000 A 
ATOM      9  N   UNL     1       0.532  10.605  20.836  0.00  0.00    +0.000 NA
ATOM     10  C   UNL     1       0.800  11.636  19.995  0.00  0.00    +0.000 A 
ATOM     11  C   UNL     1       1.573  11.414  18.819  0.00  0.00    +0.000 A 
ATOM     12  C   UNL     1       1.985  10.102  18.502  0.00  0.00    +0.000 A 
ATOM     13  C   UNL     1       1.664   9.064  19.385  0.00  0.00    +0.000 A 
ATOM     14  C   UNL     1       1.955  12.555  17.906  0.00  0.00    +0.000 C 
ATOM     15  C   UNL     1       1.678  13.934  18.534  0.00  0.00    +0.000 C 
ATOM     16  C   UNL     1       0.287  13.953  19.149  0.00  0.00    +0.000 C 
ATOM     17  C   UNL     1       0.243  12.987  20.340  0.00  0.00    +0.000 C 
BRANCH   5  18
ATOM     18  N   UNL     1       2.686   7.134  18.178  0.00  0.00    +0.000 N 
ATOM     19  H   UNL     1       3.071   7.715  17.426  0.00  0.00    +0.000 HD
ATOM     20  H   UNL     1       2.862   6.121  18.123  0.00  0.00    +0.000 HD
ENDBRANCH   5  18
ENDBRANCH   1   6
BRANCH   3  21
ATOM     21  C   UNL     1       0.835   3.222  20.659  0.00  0.00    +0.000 C 
BRANCH  21  22
ATOM     22  C   UNL     1       0.985   2.380  19.380  0.00  0.00    +0.000 C 
BRANCH  22  23
ATOM     23  C   UNL     1       2.262   2.731  18.672  0.00  0.00    +0.000 A 
ATOM     24  C   UNL     1       3.501   2.519  19.289  0.00  0.00    +0.000 A 
ATOM     25  C   UNL     1       4.681   2.905  18.651  0.00  0.00    +0.000 A 
ATOM     26  C   UNL     1       4.644   3.532  17.387  0.00  0.00    +0.000 A 
ATOM     27  C   UNL     1       3.390   3.711  16.766  0.00  0.00    +0.000 A 
ATOM     28  C   UNL     1       2.218   3.305  17.395  0.00  0.00    +0.000 A 
BRANCH  26  29
ATOM     29  N   UNL     1       5.847   4.028  16.780  0.00  0.00    +0.000 N 
ATOM     30  C   UNL     1       6.184   3.782  15.384  0.00  0.00    +0.000 C 
ATOM     31  C   UNL     1       6.511   5.127  14.718  0.00  0.00    +0.000 C 
ATOM     32  N   UNL     1       7.573   5.816  15.469  0.00  0.00    +0.000 NA
ATOM     33  C   UNL     1       7.145   6.082  16.851  0.00  0.00    +0.000 C 
ATOM     34  C   UNL     1       6.847   4.760  17.548  0.00  0.00    +0.000 C 
ATOM     35  H   UNL     1       7.786   6.728  15.002  0.00  0.00    +0.000 HD
ENDBRANCH  26  29
ENDBRANCH  22  23
ENDBRANCH  21  22
ENDBRANCH   3  21
TORSDOF 6
ENDMDL
MODEL 6
REMARK VINA RESULT:      -7.9      0.778      1.434
REMARK  Name = 
REMARK  6 active torsions:
REMARK  status: ('A' for Active; 'I' for Inactive)
REMARK    1  A    between atoms: N_1  and  C_2
REMARK    2  A    between atoms: C_3  and  C_4
REMARK    3  A    between atoms: N_6  and  C_7
REMARK    4  A    between atoms: C_7  and  C_8
REMARK    5  A    between atoms: C_8  and  C_9
REMARK    6  A    between atoms: C_12  and  N_13
REMARK                            x       y       z     vdW  Elec       q    Type
REMARK                         _______ _______ _______ _____ _____    ______ ____
ROOT
ATOM      1  C   UNL     1       7.659   7.556  17.473  0.00  0.00    +0.000 C 
ATOM      2  O   UNL     1       8.382   7.360  16.507  0.00  0.00    +0.000 OA
ATOM      3  N   UNL     1       7.831   8.668  18.239  0.00  0.00    +0.000 N 
ATOM      4  H   UNL     1       7.227   8.826  19.057  0.00  0.00    +0.000 HD
ENDROOT
BRANCH   1   6
ATOM      5  C   UNL     1       5.356   6.358  17.113  0.00  0.00    +0.000 A 
ATOM      6  C   UNL     1       6.568   6.606  17.801  0.00  0.00    +0.000 A 
ATOM      7  S   UNL     1       6.614   5.640  19.190  0.00  0.00    +0.000 S 
ATOM      8  C   UNL     1       5.134   4.946  18.944  0.00  0.00    +0.000 A 
ATOM      9  N   UNL     1       4.556   4.029  19.747  0.00  0.00    +0.000 NA
ATOM     10  C   UNL     1       3.329   3.540  19.437  0.00  0.00    +0.000 A 
ATOM     11  C   UNL     1       2.633   4.030  18.295  0.00  0.00    +0.000 A 
ATOM     12  C   UNL     1       3.267   4.967  17.451  0.00  0.00    +0.000 A 
ATOM     13  C   UNL     1       4.546   5.424  17.794  0.00  0.00    +0.000 A 
ATOM     14  C   UNL     1       1.234   3.565  17.970  0.00  0.00    +0.000 C 
ATOM     15  C   UNL     1       0.589   2.777  19.126  0.00  0.00    +0.000 C 
ATOM     16  C   UNL     1       1.572   1.748  19.664  0.00  0.00    +0.000 C 
ATOM     17  C   UNL     1       2.756   2.469  20.321  0.00  0.00    +0.000 C 
BRANCH   5  18
ATOM     18  N   UNL     1       4.976   6.981  15.892  0.00  0.00    +0.000 N 
ATOM     19  H   UNL     1       4.140   6.696  15.371  0.00  0.00    +0.000 HD
ATOM     20  H   UNL     1       5.518   7.768  15.510  0.00  0.00    +0.000 HD
ENDBRANCH   5  18
ENDBRANCH   1   6
BRANCH   3  21
ATOM     21  C   UNL     1       8.829   9.667  17.941  0.00  0.00    +0.000 C 
BRANCH  21  22
ATOM     22  C   UNL     1       9.304  10.348  19.236  0.00  0.00    +0.000 C 
BRANCH  22  23
ATOM     23  C   UNL     1       9.506  11.818  19.007  0.00  0.00    +0.000 A 
ATOM     24  C   UNL     1       9.920  12.296  17.759  0.00  0.00    +0.000 A 
ATOM     25  C   UNL     1      10.165  13.657  17.570  0.00  0.00    +0.000 A 
ATOM     26  C   UNL     1      10.021  14.568  18.637  0.00  0.00    +0.000 A 
ATOM     27  C   UNL     1       9.573  14.076  19.881  0.00  0.00    +0.000 A 
ATOM     28  C   UNL     1       9.308  12.722  20.059  0.00  0.00    +0.000 A 
BRANCH  26  29
ATOM     29  N   UNL     1      10.378  15.950  18.474  0.00  0.00    +0.000 N 
ATOM     30  C   UNL     1       9.996  16.980  19.431  0.00  0.00    +0.000 C 
ATOM     31  C   UNL     1      11.255  17.763  19.832  0.00  0.00    +0.000 C 
ATOM     32  N   UNL     1      11.926  18.290  18.633  0.00  0.00    +0.000 NA
ATOM     33  C   UNL     1      12.333  17.194  17.741  0.00  0.00    +0.000 C 
ATOM     34  C   UNL     1      11.097  16.421  17.297  0.00  0.00    +0.000 C 
ATOM     35  H   UNL     1      12.779  18.821  18.923  0.00  0.00    +0.000 HD
ENDBRANCH  26  29
ENDBRANCH  22  23
ENDBRANCH  21  22
ENDBRANCH   3  21
TORSDOF 6
ENDMDL
MODEL 7
REMARK VINA RESULT:      -7.9      7.797     11.343
REMARK  Name = 
REMARK  6 active torsions:
REMARK  status: ('A' for Active; 'I' for Inactive)
REMARK    1  A    between atoms: N_1  and  C_2
REMARK    2  A    between atoms: C_3  and  C_4
REMARK    3  A    between atoms: N_6  and  C_7
REMARK    4  A    between atoms: C_7  and  C_8
REMARK    5  A    between atoms: C_8  and  C_9
REMARK    6  A    between atoms: C_12  and  N_13
REMARK                            x       y       z     vdW  Elec       q    Type
REMARK                         _______ _______ _______ _____ _____    ______ ____
ROOT
ATOM      1  C   UNL     1       0.794  10.217  20.419  0.00  0.00    +0.000 C 
ATOM      2  O   UNL     1      -0.004  10.417  21.322  0.00  0.00    +0.000 OA
ATOM      3  N   UNL     1       1.254  11.259  19.672  0.00  0.00    +0.000 N 
ATOM      4  H   UNL     1       1.919  11.087  18.906  0.00  0.00    +0.000 HD
ENDROOT
BRANCH   1   6
ATOM      5  C   UNL     1       1.901   8.328  18.979  0.00  0.00    +0.000 A 
ATOM      6  C   UNL     1       1.298   8.848  20.148  0.00  0.00    +0.000 A 
ATOM      7  S   UNL     1       1.165   7.607  21.292  0.00  0.00    +0.000 S 
ATOM      8  C   UNL     1       1.827   6.438  20.327  0.00  0.00    +0.000 A 
ATOM      9  N   UNL     1       2.016   5.149  20.677  0.00  0.00    +0.000 NA
ATOM     10  C   UNL     1       2.565   4.284  19.788  0.00  0.00    +0.000 A 
ATOM     11  C   UNL     1       2.897   4.725  18.475  0.00  0.00    +0.000 A 
ATOM     12  C   UNL     1       2.721   6.084  18.139  0.00  0.00    +0.000 A 
ATOM     13  C   UNL     1       2.175   6.948  19.096  0.00  0.00    +0.000 A 
ATOM     14  C   UNL     1       3.434   3.766  17.439  0.00  0.00    +0.000 C 
ATOM     15  C   UNL     1       3.297   2.293  17.867  0.00  0.00    +0.000 C 
ATOM     16  C   UNL     1       3.771   2.125  19.303  0.00  0.00    +0.000 C 
ATOM     17  C   UNL     1       2.821   2.876  20.245  0.00  0.00    +0.000 C 
BRANCH   5  18
ATOM     18  N   UNL     1       2.187   9.086  17.809  0.00  0.00    +0.000 N 
ATOM     19  H   UNL     1       2.368  10.095  17.844  0.00  0.00    +0.000 HD
ATOM     20  H   UNL     1       2.256   8.631  16.888  0.00  0.00    +0.000 HD
ENDBRANCH   5  18
ENDBRANCH   1   6
BRANCH   3  21
ATOM     21  C   UNL     1       0.858  12.624  19.922  0.00  0.00    +0.000 C 
BRANCH  21  22
ATOM     22  C   UNL     1      -0.011  13.146  18.765  0.00  0.00    +0.000 C 
BRANCH  22  23
ATOM     23  C   UNL     1      -1.426  12.670  18.922  0.00  0.00    +0.000 A 
ATOM     24  C   UNL     1      -2.031  11.892  17.928  0.00  0.00    +0.000 A 
ATOM     25  C   UNL     1      -3.366  11.505  18.051  0.00  0.00    +0.000 A 
ATOM     26  C   UNL     1      -4.132  11.906  19.165  0.00  0.00    +0.000 A 
ATOM     27  C   UNL     1      -3.500  12.664  20.174  0.00  0.00    +0.000 A 
ATOM     28  C   UNL     1      -2.163  13.029  20.058  0.00  0.00    +0.000 A 
BRANCH  26  29
ATOM     29  N   UNL     1      -5.534  11.601  19.240  0.00  0.00    +0.000 N 
ATOM     30  C   UNL     1      -6.148  10.528  18.470  0.00  0.00    +0.000 C 
ATOM     31  C   UNL     1      -6.950   9.637  19.432  0.00  0.00    +0.000 C 
ATOM     32  N   UNL     1      -7.917  10.451  20.187  0.00  0.00    +0.000 NA
ATOM     33  C   UNL     1      -7.224  11.477  20.982  0.00  0.00    +0.000 C 
ATOM     34  C   UNL     1      -6.448  12.398  20.049  0.00  0.00    +0.000 C 
ATOM     35  H   UNL     1      -8.455   9.830  20.835  0.00  0.00    +0.000 HD
ENDBRANCH  26  29
ENDBRANCH  22  23
ENDBRANCH  21  22
ENDBRANCH   3  21
TORSDOF 6
ENDMDL
MODEL 8
REMARK VINA RESULT:      -7.8      2.197     12.515
REMARK  Name = 
REMARK  6 active torsions:
REMARK  status: ('A' for Active; 'I' for Inactive)
REMARK    1  A    between atoms: N_1  and  C_2
REMARK    2  A    between atoms: C_3  and  C_4
REMARK    3  A    between atoms: N_6  and  C_7
REMARK    4  A    between atoms: C_7  and  C_8
REMARK    5  A    between atoms: C_8  and  C_9
REMARK    6  A    between atoms: C_12  and  N_13
REMARK                            x       y       z     vdW  Elec       q    Type
REMARK                         _______ _______ _______ _____ _____    ______ ____
ROOT
ATOM      1  C   UNL     1       9.150  10.271  19.264  0.00  0.00    +0.000 C 
ATOM      2  O   UNL     1       9.090   9.780  20.380  0.00  0.00    +0.000 OA
ATOM      3  N   UNL     1       8.750   9.551  18.179  0.00  0.00    +0.000 N 
ATOM      4  H   UNL     1       8.810   9.964  17.238  0.00  0.00    +0.000 HD
ENDROOT
BRANCH   1   6
ATOM      5  C   UNL     1      10.294  12.515  19.990  0.00  0.00    +0.000 A 
ATOM      6  C   UNL     1       9.624  11.664  19.078  0.00  0.00    +0.000 A 
ATOM      7  S   UNL     1       9.363  12.510  17.635  0.00  0.00    +0.000 S 
ATOM      8  C   UNL     1      10.054  13.919  18.156  0.00  0.00    +0.000 A 
ATOM      9  N   UNL     1      10.171  15.049  17.428  0.00  0.00    +0.000 NA
ATOM     10  C   UNL     1      10.755  16.145  17.976  0.00  0.00    +0.000 A 
ATOM     11  C   UNL     1      11.197  16.117  19.329  0.00  0.00    +0.000 A 
ATOM     12  C   UNL     1      11.095  14.916  20.063  0.00  0.00    +0.000 A 
ATOM     13  C   UNL     1      10.510  13.800  19.450  0.00  0.00    +0.000 A 
ATOM     14  C   UNL     1      11.776  17.345  19.990  0.00  0.00    +0.000 C 
ATOM     15  C   UNL     1      11.556  18.623  19.160  0.00  0.00    +0.000 C 
ATOM     16  C   UNL     1      11.916  18.364  17.705  0.00  0.00    +0.000 C 
ATOM     17  C   UNL     1      10.926  17.358  17.106  0.00  0.00    +0.000 C 
BRANCH   5  18
ATOM     18  N   UNL     1      10.692  12.140  21.304  0.00  0.00    +0.000 N 
ATOM     19  H   UNL     1      10.018  12.041  22.070  0.00  0.00    +0.000 HD
ATOM     20  H   UNL     1      11.675  11.920  21.515  0.00  0.00    +0.000 HD
ENDBRANCH   5  18
ENDBRANCH   1   6
BRANCH   3  21
ATOM     21  C   UNL     1       8.216   8.214  18.292  0.00  0.00    +0.000 C 
BRANCH  21  22
ATOM     22  C   UNL     1       7.220   7.942  17.152  0.00  0.00    +0.000 C 
BRANCH  22  23
ATOM     23  C   UNL     1       6.315   6.800  17.512  0.00  0.00    +0.000 A 
ATOM     24  C   UNL     1       5.064   6.661  16.900  0.00  0.00    +0.000 A 
ATOM     25  C   UNL     1       4.202   5.632  17.285  0.00  0.00    +0.000 A 
ATOM     26  C   UNL     1       4.567   4.731  18.307  0.00  0.00    +0.000 A 
ATOM     27  C   UNL     1       5.844   4.866  18.893  0.00  0.00    +0.000 A 
ATOM     28  C   UNL     1       6.709   5.879  18.491  0.00  0.00    +0.000 A 
BRANCH  26  29
ATOM     29  N   UNL     1       3.639   3.742  18.778  0.00  0.00    +0.000 N 
ATOM     30  C   UNL     1       2.594   4.042  19.748  0.00  0.00    +0.000 C 
ATOM     31  C   UNL     1       1.252   3.551  19.185  0.00  0.00    +0.000 C 
ATOM     32  N   UNL     1       1.342   2.124  18.836  0.00  0.00    +0.000 NA
ATOM     33  C   UNL     1       2.376   1.903  17.814  0.00  0.00    +0.000 C 
ATOM     34  C   UNL     1       3.727   2.349  18.360  0.00  0.00    +0.000 C 
ATOM     35  H   UNL     1       0.421   1.805  18.457  0.00  0.00    +0.000 HD
ENDBRANCH  26  29
ENDBRANCH  22  23
ENDBRANCH  21  22
ENDBRANCH   3  21
TORSDOF 6
ENDMDL
MODEL 9
REMARK VINA RESULT:      -7.7      1.201      1.955
REMARK  Name = 
REMARK  6 active torsions:
REMARK  status: ('A' for Active; 'I' for Inactive)
REMARK    1  A    between atoms: N_1  and  C_2
REMARK    2  A    between atoms: C_3  and  C_4
REMARK    3  A    between atoms: N_6  and  C_7
REMARK    4  A    between atoms: C_7  and  C_8
REMARK    5  A    between atoms: C_8  and  C_9
REMARK    6  A    between atoms: C_12  and  N_13
REMARK                            x       y       z     vdW  Elec       q    Type
REMARK                         _______ _______ _______ _____ _____    ______ ____
ROOT
ATOM      1  C   UNL     1       7.745   7.789  17.641  0.00  0.00    +0.000 C 
ATOM      2  O   UNL     1       8.375   7.745  16.596  0.00  0.00    +0.000 OA
ATOM      3  N   UNL     1       8.057   8.717  18.588  0.00  0.00    +0.000 N 
ATOM      4  H   UNL     1       7.531   8.746  19.472  0.00  0.00    +0.000 HD
ENDROOT
BRANCH   1   6
ATOM      5  C   UNL     1       6.576   5.663  18.633  0.00  0.00    +0.000 A 
ATOM      6  C   UNL     1       6.613   6.860  17.878  0.00  0.00    +0.000 A 
ATOM      7  S   UNL     1       5.093   7.109  17.176  0.00  0.00    +0.000 S 
ATOM      8  C   UNL     1       4.413   5.732  17.788  0.00  0.00    +0.000 A 
ATOM      9  N   UNL     1       3.142   5.329  17.585  0.00  0.00    +0.000 NA
ATOM     10  C   UNL     1       2.706   4.169  18.138  0.00  0.00    +0.000 A 
ATOM     11  C   UNL     1       3.602   3.357  18.891  0.00  0.00    +0.000 A 
ATOM     12  C   UNL     1       4.918   3.811  19.118  0.00  0.00    +0.000 A 
ATOM     13  C   UNL     1       5.319   5.027  18.550  0.00  0.00    +0.000 A 
ATOM     14  C   UNL     1       3.167   2.023  19.451  0.00  0.00    +0.000 C 
ATOM     15  C   UNL     1       1.817   1.553  18.880  0.00  0.00    +0.000 C 
ATOM     16  C   UNL     1       0.814   2.696  18.912  0.00  0.00    +0.000 C 
ATOM     17  C   UNL     1       1.264   3.797  17.943  0.00  0.00    +0.000 C 
BRANCH   5  18
ATOM     18  N   UNL     1       7.671   5.140  19.377  0.00  0.00    +0.000 N 
ATOM     19  H   UNL     1       8.401   4.568  18.941  0.00  0.00    +0.000 HD
ATOM     20  H   UNL     1       7.779   5.355  20.377  0.00  0.00    +0.000 HD
ENDBRANCH   5  18
ENDBRANCH   1   6
BRANCH   3  21
ATOM     21  C   UNL     1       9.102   9.695  18.398  0.00  0.00    +0.000 C 
BRANCH  21  22
ATOM     22  C   UNL     1       9.372  10.447  19.712  0.00  0.00    +0.000 C 
BRANCH  22  23
ATOM     23  C   UNL     1       9.831  11.847  19.426  0.00  0.00    +0.000 A 
ATOM     24  C   UNL     1      10.381  12.639  20.441  0.00  0.00    +0.000 A 
ATOM     25  C   UNL     1      10.749  13.960  20.183  0.00  0.00    +0.000 A 
ATOM     26  C   UNL     1      10.555  14.525  18.905  0.00  0.00    +0.000 A 
ATOM     27  C   UNL     1      10.029  13.705  17.884  0.00  0.00    +0.000 A 
ATOM     28  C   UNL     1       9.684  12.382  18.140  0.00  0.00    +0.000 A 
BRANCH  26  29
ATOM     29  N   UNL     1      10.831  15.915  18.668  0.00  0.00    +0.000 N 
ATOM     30  C   UNL     1      10.967  16.885  19.745  0.00  0.00    +0.000 C 
ATOM     31  C   UNL     1      12.289  17.645  19.550  0.00  0.00    +0.000 C 
ATOM     32  N   UNL     1      12.333  18.244  18.206  0.00  0.00    +0.000 NA
ATOM     33  C   UNL     1      12.246  17.204  17.170  0.00  0.00    +0.000 C 
ATOM     34  C   UNL     1      10.927  16.456  17.318  0.00  0.00    +0.000 C 
ATOM     35  H   UNL     1      13.237  18.759  18.091  0.00  0.00    +0.000 HD
ENDBRANCH  26  29
ENDBRANCH  22  23
ENDBRANCH  21  22
ENDBRANCH   3  21
TORSDOF 6
ENDMDL
