MODEL 1
REMARK VINA RESULT:      -7.8      0.000      0.000
REMARK  Name = 
REMARK  4 active torsions:
REMARK  status: ('A' for Active; 'I' for Inactive)
REMARK    1  A    between atoms: C_1  and  O_2
REMARK    2  A    between atoms: O_2  and  C_3
REMARK    3  A    between atoms: C_9  and  N_10
REMARK    4  A    between atoms: C_11  and  C_13
REMARK                            x       y       z     vdW  Elec       q    Type
REMARK                         _______ _______ _______ _____ _____    ______ ____
ROOT
ATOM      1  N   UNL     1       5.583   3.368  16.635  0.00  0.00    +0.000 N 
ATOM      2  C   UNL     1       4.647   4.019  17.434  0.00  0.00    +0.000 C 
ATOM      3  O   UNL     1       4.017   5.012  17.080  0.00  0.00    +0.000 OA
ATOM      4  H   UNL     1       5.884   2.440  16.926  0.00  0.00    +0.000 HD
ENDROOT
BRANCH   2   5
ATOM      5  C   UNL     1       4.376   3.458  18.764  0.00  0.00    +0.000 A 
ATOM      6  N   UNL     1       5.278   2.791  19.515  0.00  0.00    +0.000 NA
ATOM      7  O   UNL     1       4.603   2.429  20.690  0.00  0.00    +0.000 OA
ATOM      8  C   UNL     1       3.329   2.878  20.620  0.00  0.00    +0.000 A 
ATOM      9  C   UNL     1       3.128   3.544  19.444  0.00  0.00    +0.000 A 
ATOM     10  C   UNL     1       1.817   4.134  19.062  0.00  0.00    +0.000 C 
ATOM     11  C   UNL     1       0.842   4.154  20.260  0.00  0.00    +0.000 C 
ATOM     12  C   UNL     1       0.926   2.878  21.126  0.00  0.00    +0.000 C 
ATOM     13  C   UNL     1       2.345   2.649  21.701  0.00  0.00    +0.000 C 
ENDBRANCH   2   5
BRANCH   1  20
ATOM     14  C   UNL     1       7.088   4.744  15.266  0.00  0.00    +0.000 A 
ATOM     15  C   UNL     1       7.545   5.145  13.997  0.00  0.00    +0.000 A 
ATOM     16  C   UNL     1       6.932   4.681  12.832  0.00  0.00    +0.000 A 
ATOM     17  C   UNL     1       5.851   3.821  12.927  0.00  0.00    +0.000 A 
ATOM     18 CL   UNL     1       5.070   3.263  11.500  0.00  0.00    +0.000 Cl
ATOM     19  C   UNL     1       5.393   3.405  14.176  0.00  0.00    +0.000 A 
ATOM     20  C   UNL     1       6.020   3.829  15.361  0.00  0.00    +0.000 A 
BRANCH  14  22
ATOM     21  C   UNL     1       7.263   6.482  16.880  0.00  0.00    +0.000 C 
ATOM     22  O   UNL     1       7.651   5.177  16.445  0.00  0.00    +0.000 OA
ENDBRANCH  14  22
ENDBRANCH   1  20
TORSDOF 3
ENDMDL
MODEL 2
REMARK VINA RESULT:      -7.5      3.001      7.071
REMARK  Name = 
REMARK  4 active torsions:
REMARK  status: ('A' for Active; 'I' for Inactive)
REMARK    1  A    between atoms: C_1  and  O_2
REMARK    2  A    between atoms: O_2  and  C_3
REMARK    3  A    between atoms: C_9  and  N_10
REMARK    4  A    between atoms: C_11  and  C_13
REMARK                            x       y       z     vdW  Elec       q    Type
REMARK                         _______ _______ _______ _____ _____    ______ ____
ROOT
ATOM      1  N   UNL     1       4.208   5.220  17.044  0.00  0.00    +0.000 N 
ATOM      2  C   UNL     1       5.537   4.818  17.153  0.00  0.00    +0.000 C 
ATOM      3  O   UNL     1       5.996   4.228  18.128  0.00  0.00    +0.000 OA
ATOM      4  H   UNL     1       3.877   5.497  16.122  0.00  0.00    +0.000 HD
ENDROOT
BRANCH   2   5
ATOM      5  C   UNL     1       6.428   5.085  16.018  0.00  0.00    +0.000 A 
ATOM      6  N   UNL     1       7.499   5.908  16.058  0.00  0.00    +0.000 NA
ATOM      7  O   UNL     1       8.052   5.878  14.770  0.00  0.00    +0.000 OA
ATOM      8  C   UNL     1       7.313   5.052  13.994  0.00  0.00    +0.000 A 
ATOM      9  C   UNL     1       6.290   4.513  14.721  0.00  0.00    +0.000 A 
ATOM     10  C   UNL     1       5.287   3.582  14.139  0.00  0.00    +0.000 C 
ATOM     11  C   UNL     1       5.721   3.093  12.740  0.00  0.00    +0.000 C 
ATOM     12  C   UNL     1       6.373   4.206  11.889  0.00  0.00    +0.000 C 
ATOM     13  C   UNL     1       7.627   4.809  12.569  0.00  0.00    +0.000 C 
ENDBRANCH   2   5
BRANCH   1  20
ATOM     14  C   UNL     1       2.569   3.893  18.301  0.00  0.00    +0.000 A 
ATOM     15  C   UNL     1       1.660   3.786  19.370  0.00  0.00    +0.000 A 
ATOM     16  C   UNL     1       1.386   4.880  20.193  0.00  0.00    +0.000 A 
ATOM     17  C   UNL     1       2.009   6.091  19.946  0.00  0.00    +0.000 A 
ATOM     18 CL   UNL     1       1.660   7.454  20.936  0.00  0.00    +0.000 Cl
ATOM     19  C   UNL     1       2.921   6.210  18.900  0.00  0.00    +0.000 A 
ATOM     20  C   UNL     1       3.242   5.112  18.083  0.00  0.00    +0.000 A 
BRANCH  14  22
ATOM     21  C   UNL     1       3.468   1.704  18.070  0.00  0.00    +0.000 C 
ATOM     22  O   UNL     1       2.871   2.849  17.457  0.00  0.00    +0.000 OA
ENDBRANCH  14  22
ENDBRANCH   1  20
TORSDOF 3
ENDMDL
MODEL 3
REMARK VINA RESULT:      -7.4      2.989      7.121
REMARK  Name = 
REMARK  4 active torsions:
REMARK  status: ('A' for Active; 'I' for Inactive)
REMARK    1  A    between atoms: C_1  and  O_2
REMARK    2  A    between atoms: O_2  and  C_3
REMARK    3  A    between atoms: C_9  and  N_10
REMARK    4  A    between atoms: C_11  and  C_13
REMARK                            x       y       z     vdW  Elec       q    Type
REMARK                         _______ _______ _______ _____ _____    ______ ____
ROOT
ATOM      1  N   UNL     1       4.767   5.724  17.732  0.00  0.00    +0.000 N 
ATOM      2  C   UNL     1       4.951   4.820  16.689  0.00  0.00    +0.000 C 
ATOM      3  O   UNL     1       4.213   3.862  16.474  0.00  0.00    +0.000 OA
ATOM      4  H   UNL     1       5.291   6.595  17.695  0.00  0.00    +0.000 HD
ENDROOT
BRANCH   2   5
ATOM      5  C   UNL     1       6.075   5.053  15.773  0.00  0.00    +0.000 A 
ATOM      6  N   UNL     1       7.175   5.777  16.074  0.00  0.00    +0.000 NA
ATOM      7  O   UNL     1       7.976   5.749  14.925  0.00  0.00    +0.000 OA
ATOM      8  C   UNL     1       7.351   5.021  13.971  0.00  0.00    +0.000 A 
ATOM      9  C   UNL     1       6.161   4.546  14.446  0.00  0.00    +0.000 A 
ATOM     10  C   UNL     1       5.230   3.730  13.622  0.00  0.00    +0.000 C 
ATOM     11  C   UNL     1       5.903   3.260  12.313  0.00  0.00    +0.000 C 
ATOM     12  C   UNL     1       6.800   4.344  11.675  0.00  0.00    +0.000 C 
ATOM     13  C   UNL     1       7.931   4.808  12.627  0.00  0.00    +0.000 C 
ENDBRANCH   2   5
BRANCH   1  20
ATOM     14  C   UNL     1       2.888   6.651  19.013  0.00  0.00    +0.000 A 
ATOM     15  C   UNL     1       1.882   6.483  19.983  0.00  0.00    +0.000 A 
ATOM     16  C   UNL     1       1.782   5.300  20.717  0.00  0.00    +0.000 A 
ATOM     17  C   UNL     1       2.691   4.280  20.494  0.00  0.00    +0.000 A 
ATOM     18 CL   UNL     1       2.594   2.828  21.411  0.00  0.00    +0.000 Cl
ATOM     19  C   UNL     1       3.685   4.426  19.529  0.00  0.00    +0.000 A 
ATOM     20  C   UNL     1       3.781   5.593  18.751  0.00  0.00    +0.000 A 
BRANCH  14  22
ATOM     21  C   UNL     1       1.845   8.555  18.045  0.00  0.00    +0.000 C 
ATOM     22  O   UNL     1       3.036   7.798  18.267  0.00  0.00    +0.000 OA
ENDBRANCH  14  22
ENDBRANCH   1  20
TORSDOF 3
ENDMDL
MODEL 4
REMARK VINA RESULT:      -7.2      2.725      6.861
REMARK  Name = 
REMARK  4 active torsions:
REMARK  status: ('A' for Active; 'I' for Inactive)
REMARK    1  A    between atoms: C_1  and  O_2
REMARK    2  A    between atoms: O_2  and  C_3
REMARK    3  A    between atoms: C_9  and  N_10
REMARK    4  A    between atoms: C_11  and  C_13
REMARK                            x       y       z     vdW  Elec       q    Type
REMARK                         _______ _______ _______ _____ _____    ______ ____
ROOT
ATOM      1  N   UNL     1       4.403   4.844  16.588  0.00  0.00    +0.000 N 
ATOM      2  C   UNL     1       5.787   4.779  16.722  0.00  0.00    +0.000 C 
ATOM      3  O   UNL     1       6.362   4.533  17.778  0.00  0.00    +0.000 OA
ATOM      4  H   UNL     1       4.022   4.833  15.645  0.00  0.00    +0.000 HD
ENDROOT
BRANCH   2   5
ATOM      5  C   UNL     1       6.600   4.983  15.516  0.00  0.00    +0.000 A 
ATOM      6  N   UNL     1       7.702   5.762  15.456  0.00  0.00    +0.000 NA
ATOM      7  O   UNL     1       8.156   5.679  14.132  0.00  0.00    +0.000 OA
ATOM      8  C   UNL     1       7.328   4.867  13.435  0.00  0.00    +0.000 A 
ATOM      9  C   UNL     1       6.342   4.387  14.250  0.00  0.00    +0.000 A 
ATOM     10  C   UNL     1       5.262   3.486  13.768  0.00  0.00    +0.000 C 
ATOM     11  C   UNL     1       5.571   2.947  12.353  0.00  0.00    +0.000 C 
ATOM     12  C   UNL     1       6.200   4.012  11.428  0.00  0.00    +0.000 C 
ATOM     13  C   UNL     1       7.524   4.578  11.997  0.00  0.00    +0.000 C 
ENDBRANCH   2   5
BRANCH   1  20
ATOM     14  C   UNL     1       3.072   5.917  18.352  0.00  0.00    +0.000 A 
ATOM     15  C   UNL     1       2.115   5.816  19.379  0.00  0.00    +0.000 A 
ATOM     16  C   UNL     1       1.595   4.578  19.758  0.00  0.00    +0.000 A 
ATOM     17  C   UNL     1       2.035   3.430  19.121  0.00  0.00    +0.000 A 
ATOM     18 CL   UNL     1       1.422   1.895  19.598  0.00  0.00    +0.000 Cl
ATOM     19  C   UNL     1       2.972   3.513  18.095  0.00  0.00    +0.000 A 
ATOM     20  C   UNL     1       3.481   4.753  17.669  0.00  0.00    +0.000 A 
BRANCH  14  22
ATOM     21  C   UNL     1       2.738   8.234  17.937  0.00  0.00    +0.000 C 
ATOM     22  O   UNL     1       3.621   7.110  17.943  0.00  0.00    +0.000 OA
ENDBRANCH  14  22
ENDBRANCH   1  20
TORSDOF 3
ENDMDL
MODEL 5
REMARK VINA RESULT:      -7.1      3.750      4.638
REMARK  Name = 
REMARK  4 active torsions:
REMARK  status: ('A' for Active; 'I' for Inactive)
REMARK    1  A    between atoms: C_1  and  O_2
REMARK    2  A    between atoms: O_2  and  C_3
REMARK    3  A    between atoms: C_9  and  N_10
REMARK    4  A    between atoms: C_11  and  C_13
REMARK                            x       y       z     vdW  Elec       q    Type
REMARK                         _______ _______ _______ _____ _____    ______ ____
ROOT
ATOM      1  N   UNL     1       4.523   7.103  17.144  0.00  0.00    +0.000 N 
ATOM      2  C   UNL     1       3.262   6.889  17.694  0.00  0.00    +0.000 C 
ATOM      3  O   UNL     1       2.787   5.777  17.908  0.00  0.00    +0.000 OA
ATOM      4  H   UNL     1       4.910   8.042  17.212  0.00  0.00    +0.000 HD
ENDROOT
BRANCH   2   5
ATOM      5  C   UNL     1       2.472   8.068  18.072  0.00  0.00    +0.000 A 
ATOM      6  N   UNL     1       2.247   9.132  17.271  0.00  0.00    +0.000 NA
ATOM      7  O   UNL     1       1.464  10.018  18.024  0.00  0.00    +0.000 OA
ATOM      8  C   UNL     1       1.239   9.477  19.244  0.00  0.00    +0.000 A 
ATOM      9  C   UNL     1       1.832   8.250  19.331  0.00  0.00    +0.000 A 
ATOM     10  C   UNL     1       1.784   7.414  20.560  0.00  0.00    +0.000 C 
ATOM     11  C   UNL     1       0.760   7.968  21.576  0.00  0.00    +0.000 C 
ATOM     12  C   UNL     1       0.764   9.511  21.653  0.00  0.00    +0.000 C 
ATOM     13  C   UNL     1       0.451  10.170  20.287  0.00  0.00    +0.000 C 
ENDBRANCH   2   5
BRANCH   1  20
ATOM     14  C   UNL     1       6.415   5.568  17.454  0.00  0.00    +0.000 A 
ATOM     15  C   UNL     1       7.209   4.512  16.972  0.00  0.00    +0.000 A 
ATOM     16  C   UNL     1       7.009   3.987  15.694  0.00  0.00    +0.000 A 
ATOM     17  C   UNL     1       6.020   4.520  14.885  0.00  0.00    +0.000 A 
ATOM     18 CL   UNL     1       5.781   3.899  13.299  0.00  0.00    +0.000 Cl
ATOM     19  C   UNL     1       5.217   5.557  15.352  0.00  0.00    +0.000 A 
ATOM     20  C   UNL     1       5.374   6.076  16.649  0.00  0.00    +0.000 A 
BRANCH  14  22
ATOM     21  C   UNL     1       7.794   5.811  19.375  0.00  0.00    +0.000 C 
ATOM     22  O   UNL     1       6.573   6.127  18.701  0.00  0.00    +0.000 OA
ENDBRANCH  14  22
ENDBRANCH   1  20
TORSDOF 3
ENDMDL
MODEL 6
REMARK VINA RESULT:      -7.1      2.838      7.162
REMARK  Name = 
REMARK  4 active torsions:
REMARK  status: ('A' for Active; 'I' for Inactive)
REMARK    1  A    between atoms: C_1  and  O_2
REMARK    2  A    between atoms: O_2  and  C_3
REMARK    3  A    between atoms: C_9  and  N_10
REMARK    4  A    between atoms: C_11  and  C_13
REMARK                            x       y       z     vdW  Elec       q    Type
REMARK                         _______ _______ _______ _____ _____    ______ ____
ROOT
ATOM      1  N   UNL     1       4.860   5.223  18.062  0.00  0.00    +0.000 N 
ATOM      2  C   UNL     1       4.775   4.839  16.727  0.00  0.00    +0.000 C 
ATOM      3  O   UNL     1       3.775   4.338  16.220  0.00  0.00    +0.000 OA
ATOM      4  H   UNL     1       5.637   5.822  18.329  0.00  0.00    +0.000 HD
ENDROOT
BRANCH   2   5
ATOM      5  C   UNL     1       5.943   5.084  15.870  0.00  0.00    +0.000 A 
ATOM      6  N   UNL     1       7.020   5.816  16.229  0.00  0.00    +0.000 NA
ATOM      7  O   UNL     1       7.880   5.798  15.122  0.00  0.00    +0.000 OA
ATOM      8  C   UNL     1       7.309   5.069  14.135  0.00  0.00    +0.000 A 
ATOM      9  C   UNL     1       6.101   4.582  14.547  0.00  0.00    +0.000 A 
ATOM     10  C   UNL     1       5.220   3.762  13.674  0.00  0.00    +0.000 C 
ATOM     11  C   UNL     1       5.963   3.302  12.400  0.00  0.00    +0.000 C 
ATOM     12  C   UNL     1       6.883   4.396  11.813  0.00  0.00    +0.000 C 
ATOM     13  C   UNL     1       7.959   4.865  12.822  0.00  0.00    +0.000 C 
ENDBRANCH   2   5
BRANCH   1  20
ATOM     14  C   UNL     1       3.649   3.677  19.537  0.00  0.00    +0.000 A 
ATOM     15  C   UNL     1       2.690   3.464  20.545  0.00  0.00    +0.000 A 
ATOM     16  C   UNL     1       1.911   4.516  21.029  0.00  0.00    +0.000 A 
ATOM     17  C   UNL     1       2.077   5.786  20.504  0.00  0.00    +0.000 A 
ATOM     18 CL   UNL     1       1.105   7.085  21.074  0.00  0.00    +0.000 Cl
ATOM     19  C   UNL     1       3.030   6.016  19.515  0.00  0.00    +0.000 A 
ATOM     20  C   UNL     1       3.853   4.979  19.039  0.00  0.00    +0.000 A 
BRANCH  14  22
ATOM     21  C   UNL     1       3.743   1.545  18.489  0.00  0.00    +0.000 C 
ATOM     22  O   UNL     1       4.438   2.675  19.019  0.00  0.00    +0.000 OA
ENDBRANCH  14  22
ENDBRANCH   1  20
TORSDOF 3
ENDMDL
MODEL 7
REMARK VINA RESULT:      -7.0      1.729      1.912
REMARK  Name = 
REMARK  4 active torsions:
REMARK  status: ('A' for Active; 'I' for Inactive)
REMARK    1  A    between atoms: C_1  and  O_2
REMARK    2  A    between atoms: O_2  and  C_3
REMARK    3  A    between atoms: C_9  and  N_10
REMARK    4  A    between atoms: C_11  and  C_13
REMARK                            x       y       z     vdW  Elec       q    Type
REMARK                         _______ _______ _______ _____ _____    ______ ____
ROOT
ATOM      1  N   UNL     1       4.675   4.541  16.549  0.00  0.00    +0.000 N 
ATOM      2  C   UNL     1       4.125   5.707  17.074  0.00  0.00    +0.000 C 
ATOM      3  O   UNL     1       4.215   6.809  16.538  0.00  0.00    +0.000 OA
ATOM      4  H   UNL     1       4.363   3.657  16.943  0.00  0.00    +0.000 HD
ENDROOT
BRANCH   2   5
ATOM      5  C   UNL     1       3.364   5.601  18.325  0.00  0.00    +0.000 A 
ATOM      6  N   UNL     1       3.381   6.518  19.316  0.00  0.00    +0.000 NA
ATOM      7  O   UNL     1       2.531   6.020  20.312  0.00  0.00    +0.000 OA
ATOM      8  C   UNL     1       2.028   4.832  19.907  0.00  0.00    +0.000 A 
ATOM      9  C   UNL     1       2.501   4.520  18.664  0.00  0.00    +0.000 A 
ATOM     10  C   UNL     1       2.148   3.261  17.956  0.00  0.00    +0.000 C 
ATOM     11  C   UNL     1       0.985   2.528  18.662  0.00  0.00    +0.000 C 
ATOM     12  C   UNL     1       1.085   2.583  20.202  0.00  0.00    +0.000 C 
ATOM     13  C   UNL     1       1.100   4.035  20.740  0.00  0.00    +0.000 C 
ENDBRANCH   2   5
BRANCH   1  20
ATOM     14  C   UNL     1       6.826   4.985  15.449  0.00  0.00    +0.000 A 
ATOM     15  C   UNL     1       7.655   4.871  14.318  0.00  0.00    +0.000 A 
ATOM     16  C   UNL     1       7.179   4.309  13.132  0.00  0.00    +0.000 A 
ATOM     17  C   UNL     1       5.869   3.867  13.065  0.00  0.00    +0.000 A 
ATOM     18 CL   UNL     1       5.264   3.197  11.601  0.00  0.00    +0.000 Cl
ATOM     19  C   UNL     1       5.039   3.961  14.179  0.00  0.00    +0.000 A 
ATOM     20  C   UNL     1       5.508   4.488  15.396  0.00  0.00    +0.000 A 
BRANCH  14  22
ATOM     21  C   UNL     1       7.703   4.611  17.627  0.00  0.00    +0.000 C 
ATOM     22  O   UNL     1       7.241   5.536  16.640  0.00  0.00    +0.000 OA
ENDBRANCH  14  22
ENDBRANCH   1  20
TORSDOF 3
ENDMDL
MODEL 8
REMARK VINA RESULT:      -6.9      3.846      4.593
REMARK  Name = 
REMARK  4 active torsions:
REMARK  status: ('A' for Active; 'I' for Inactive)
REMARK    1  A    between atoms: C_1  and  O_2
REMARK    2  A    between atoms: O_2  and  C_3
REMARK    3  A    between atoms: C_9  and  N_10
REMARK    4  A    between atoms: C_11  and  C_13
REMARK                            x       y       z     vdW  Elec       q    Type
REMARK                         _______ _______ _______ _____ _____    ______ ____
ROOT
ATOM      1  N   UNL     1       4.403   6.418  18.362  0.00  0.00    +0.000 N 
ATOM      2  C   UNL     1       3.166   5.949  18.794  0.00  0.00    +0.000 C 
ATOM      3  O   UNL     1       2.759   4.807  18.596  0.00  0.00    +0.000 OA
ATOM      4  H   UNL     1       4.738   7.292  18.761  0.00  0.00    +0.000 HD
ENDROOT
BRANCH   2   5
ATOM      5  C   UNL     1       2.316   6.868  19.562  0.00  0.00    +0.000 A 
ATOM      6  N   UNL     1       1.795   6.597  20.779  0.00  0.00    +0.000 NA
ATOM      7  O   UNL     1       1.052   7.731  21.136  0.00  0.00    +0.000 OA
ATOM      8  C   UNL     1       1.138   8.644  20.142  0.00  0.00    +0.000 A 
ATOM      9  C   UNL     1       1.929   8.169  19.134  0.00  0.00    +0.000 A 
ATOM     10  C   UNL     1       2.196   8.935  17.888  0.00  0.00    +0.000 C 
ATOM     11  C   UNL     1       1.726  10.401  18.017  0.00  0.00    +0.000 C 
ATOM     12  C   UNL     1       0.385  10.537  18.771  0.00  0.00    +0.000 C 
ATOM     13  C   UNL     1       0.452   9.954  20.204  0.00  0.00    +0.000 C 
ENDBRANCH   2   5
BRANCH   1  20
ATOM     14  C   UNL     1       6.547   5.262  18.050  0.00  0.00    +0.000 A 
ATOM     15  C   UNL     1       7.400   4.488  17.241  0.00  0.00    +0.000 A 
ATOM     16  C   UNL     1       7.050   4.167  15.928  0.00  0.00    +0.000 A 
ATOM     17  C   UNL     1       5.851   4.625  15.411  0.00  0.00    +0.000 A 
ATOM     18 CL   UNL     1       5.421   4.258  13.787  0.00  0.00    +0.000 Cl
ATOM     19  C   UNL     1       4.990   5.382  16.202  0.00  0.00    +0.000 A 
ATOM     20  C   UNL     1       5.304   5.685  17.539  0.00  0.00    +0.000 A 
BRANCH  14  22
ATOM     21  C   UNL     1       8.237   5.692  19.667  0.00  0.00    +0.000 C 
ATOM     22  O   UNL     1       6.846   5.613  19.346  0.00  0.00    +0.000 OA
ENDBRANCH  14  22
ENDBRANCH   1  20
TORSDOF 3
ENDMDL
MODEL 9
REMARK VINA RESULT:      -6.9      1.688      1.808
REMARK  Name = 
REMARK  4 active torsions:
REMARK  status: ('A' for Active; 'I' for Inactive)
REMARK    1  A    between atoms: C_1  and  O_2
REMARK    2  A    between atoms: O_2  and  C_3
REMARK    3  A    between atoms: C_9  and  N_10
REMARK    4  A    between atoms: C_11  and  C_13
REMARK                            x       y       z     vdW  Elec       q    Type
REMARK                         _______ _______ _______ _____ _____    ______ ____
ROOT
ATOM      1  N   UNL     1       4.871   4.977  15.818  0.00  0.00    +0.000 N 
ATOM      2  C   UNL     1       4.565   4.092  16.848  0.00  0.00    +0.000 C 
ATOM      3  O   UNL     1       4.920   2.916  16.868  0.00  0.00    +0.000 OA
ATOM      4  H   UNL     1       4.727   5.969  15.995  0.00  0.00    +0.000 HD
ENDROOT
BRANCH   2   5
ATOM      5  C   UNL     1       3.803   4.610  17.991  0.00  0.00    +0.000 A 
ATOM      6  N   UNL     1       4.066   5.772  18.627  0.00  0.00    +0.000 NA
ATOM      7  O   UNL     1       3.113   5.871  19.650  0.00  0.00    +0.000 OA
ATOM      8  C   UNL     1       2.311   4.782  19.610  0.00  0.00    +0.000 A 
ATOM      9  C   UNL     1       2.683   3.961  18.584  0.00  0.00    +0.000 A 
ATOM     10  C   UNL     1       2.006   2.669  18.297  0.00  0.00    +0.000 C 
ATOM     11  C   UNL     1       0.690   2.535  19.095  0.00  0.00    +0.000 C 
ATOM     12  C   UNL     1       0.803   3.080  20.536  0.00  0.00    +0.000 C 
ATOM     13  C   UNL     1       1.205   4.575  20.571  0.00  0.00    +0.000 C 
ENDBRANCH   2   5
BRANCH   1  20
ATOM     14  C   UNL     1       6.884   4.938  14.411  0.00  0.00    +0.000 A 
ATOM     15  C   UNL     1       7.531   4.520  13.234  0.00  0.00    +0.000 A 
ATOM     16  C   UNL     1       6.839   3.826  12.240  0.00  0.00    +0.000 A 
ATOM     17  C   UNL     1       5.493   3.553  12.412  0.00  0.00    +0.000 A 
ATOM     18 CL   UNL     1       4.622   2.721  11.183  0.00  0.00    +0.000 Cl
ATOM     19  C   UNL     1       4.840   3.949  13.577  0.00  0.00    +0.000 A 
ATOM     20  C   UNL     1       5.526   4.615  14.607  0.00  0.00    +0.000 A 
BRANCH  14  22
ATOM     21  C   UNL     1       7.786   4.890  16.611  0.00  0.00    +0.000 C 
ATOM     22  O   UNL     1       7.517   5.630  15.418  0.00  0.00    +0.000 OA
ENDBRANCH  14  22
ENDBRANCH   1  20
TORSDOF 3
ENDMDL
