MODEL 1
REMARK VINA RESULT:      -8.7      0.000      0.000
REMARK  Name = 
REMARK  5 active torsions:
REMARK  status: ('A' for Active; 'I' for Inactive)
REMARK    1  A    between atoms: C_1  and  C_2
REMARK    2  A    between atoms: C_2  and  C_4
REMARK    3  A    between atoms: C_7  and  N_8
REMARK    4  A    between atoms: N_8  and  C_9
REMARK    5  A    between atoms: C_11  and  C_12
REMARK                            x       y       z     vdW  Elec       q    Type
REMARK                         _______ _______ _______ _____ _____    ______ ____
ROOT
ATOM      1  C   UNL     1       4.133   4.215  19.259  0.00  0.00    +0.000 A 
ATOM      2  N   UNL     1       3.574   3.435  20.226  0.00  0.00    +0.000 NA
ATOM      3  C   UNL     1       2.457   3.825  20.929  0.00  0.00    +0.000 A 
ATOM      4  C   UNL     1       1.726   2.875  21.814  0.00  0.00    +0.000 C 
ATOM      5  N   UNL     1       1.952   5.072  20.771  0.00  0.00    +0.000 NA
ATOM      6  C   UNL     1       2.496   5.857  19.825  0.00  0.00    +0.000 A 
ATOM      7  C   UNL     1       3.526   5.459  19.008  0.00  0.00    +0.000 A 
ATOM      8  O   UNL     1       3.808   6.417  18.138  0.00  0.00    +0.000 OA
ATOM      9  C   UNL     1       2.970   7.416  18.394  0.00  0.00    +0.000 A 
ATOM     10  C   UNL     1       2.833   8.634  17.725  0.00  0.00    +0.000 A 
ATOM     11  C   UNL     1       1.898   9.563  18.234  0.00  0.00    +0.000 A 
ATOM     12  C   UNL     1       1.135   9.266  19.387  0.00  0.00    +0.000 A 
ATOM     13  C   UNL     1       1.258   8.019  20.013  0.00  0.00    +0.000 A 
ATOM     14  C   UNL     1       2.170   7.120  19.472  0.00  0.00    +0.000 A 
ENDROOT
BRANCH   1  15
ATOM     15  N   UNL     1       5.355   3.798  18.639  0.00  0.00    +0.000 N 
ATOM     16  H   UNL     1       5.990   3.232  19.224  0.00  0.00    +0.000 HD
BRANCH  15  20
ATOM     17  C   UNL     1       6.766   4.587  14.698  0.00  0.00    +0.000 A 
ATOM     18  C   UNL     1       7.537   4.938  15.823  0.00  0.00    +0.000 A 
ATOM     19  C   UNL     1       7.060   4.685  17.117  0.00  0.00    +0.000 A 
ATOM     20  C   UNL     1       5.792   4.104  17.314  0.00  0.00    +0.000 A 
ATOM     21  C   UNL     1       5.023   3.765  16.196  0.00  0.00    +0.000 A 
ATOM     22  C   UNL     1       5.505   3.997  14.905  0.00  0.00    +0.000 A 
BRANCH  17  24
ATOM     23  C   UNL     1       6.822   3.956  12.149  0.00  0.00    +0.000 C 
ATOM     24  C   UNL     1       7.258   4.812  13.307  0.00  0.00    +0.000 C 
ATOM     25  O   UNL     1       8.035   5.729  13.084  0.00  0.00    +0.000 OA
ENDBRANCH  17  24
ENDBRANCH  15  20
ENDBRANCH   1  15
TORSDOF 3
ENDMDL
MODEL 2
REMARK VINA RESULT:      -8.7      2.248      6.864
REMARK  Name = 
REMARK  5 active torsions:
REMARK  status: ('A' for Active; 'I' for Inactive)
REMARK    1  A    between atoms: C_1  and  C_2
REMARK    2  A    between atoms: C_2  and  C_4
REMARK    3  A    between atoms: C_7  and  N_8
REMARK    4  A    between atoms: N_8  and  C_9
REMARK    5  A    between atoms: C_11  and  C_12
REMARK                            x       y       z     vdW  Elec       q    Type
REMARK                         _______ _______ _______ _____ _____    ______ ____
ROOT
ATOM      1  C   UNL     1       2.752   5.571  19.353  0.00  0.00    +0.000 A 
ATOM      2  N   UNL     1       1.768   4.628  19.370  0.00  0.00    +0.000 NA
ATOM      3  C   UNL     1       1.797   3.522  18.551  0.00  0.00    +0.000 A 
ATOM      4  C   UNL     1       0.845   2.392  18.738  0.00  0.00    +0.000 C 
ATOM      5  N   UNL     1       2.750   3.406  17.595  0.00  0.00    +0.000 NA
ATOM      6  C   UNL     1       3.725   4.331  17.560  0.00  0.00    +0.000 A 
ATOM      7  C   UNL     1       3.808   5.378  18.446  0.00  0.00    +0.000 A 
ATOM      8  O   UNL     1       4.903   6.086  18.206  0.00  0.00    +0.000 OA
ATOM      9  C   UNL     1       5.512   5.499  17.179  0.00  0.00    +0.000 A 
ATOM     10  C   UNL     1       6.726   5.835  16.577  0.00  0.00    +0.000 A 
ATOM     11  C   UNL     1       7.132   5.083  15.452  0.00  0.00    +0.000 A 
ATOM     12  C   UNL     1       6.328   4.032  14.953  0.00  0.00    +0.000 A 
ATOM     13  C   UNL     1       5.136   3.686  15.603  0.00  0.00    +0.000 A 
ATOM     14  C   UNL     1       4.779   4.431  16.720  0.00  0.00    +0.000 A 
ENDROOT
BRANCH   1  15
ATOM     15  N   UNL     1       2.608   6.750  20.154  0.00  0.00    +0.000 N 
ATOM     16  H   UNL     1       3.055   6.723  21.084  0.00  0.00    +0.000 HD
BRANCH  15  20
ATOM     17  C   UNL     1       0.376  10.203  19.041  0.00  0.00    +0.000 A 
ATOM     18  C   UNL     1       1.221   9.561  18.114  0.00  0.00    +0.000 A 
ATOM     19  C   UNL     1       1.961   8.432  18.492  0.00  0.00    +0.000 A 
ATOM     20  C   UNL     1       1.895   7.939  19.810  0.00  0.00    +0.000 A 
ATOM     21  C   UNL     1       1.064   8.583  20.732  0.00  0.00    +0.000 A 
ATOM     22  C   UNL     1       0.310   9.696  20.352  0.00  0.00    +0.000 A 
BRANCH  17  24
ATOM     23  C   UNL     1      -1.767  11.255  17.947  0.00  0.00    +0.000 C 
ATOM     24  C   UNL     1      -0.450  11.387  18.662  0.00  0.00    +0.000 C 
ATOM     25  O   UNL     1      -0.060  12.509  18.948  0.00  0.00    +0.000 OA
ENDBRANCH  17  24
ENDBRANCH  15  20
ENDBRANCH   1  15
TORSDOF 3
ENDMDL
MODEL 3
REMARK VINA RESULT:      -8.6      2.232      6.853
REMARK  Name = 
REMARK  5 active torsions:
REMARK  status: ('A' for Active; 'I' for Inactive)
REMARK    1  A    between atoms: C_1  and  C_2
REMARK    2  A    between atoms: C_2  and  C_4
REMARK    3  A    between atoms: C_7  and  N_8
REMARK    4  A    between atoms: N_8  and  C_9
REMARK    5  A    between atoms: C_11  and  C_12
REMARK                            x       y       z     vdW  Elec       q    Type
REMARK                         _______ _______ _______ _____ _____    ______ ____
ROOT
ATOM      1  C   UNL     1       2.755   5.525  19.319  0.00  0.00    +0.000 A 
ATOM      2  N   UNL     1       1.780   4.572  19.338  0.00  0.00    +0.000 NA
ATOM      3  C   UNL     1       1.817   3.468  18.515  0.00  0.00    +0.000 A 
ATOM      4  C   UNL     1       0.877   2.328  18.703  0.00  0.00    +0.000 C 
ATOM      5  N   UNL     1       2.766   3.365  17.554  0.00  0.00    +0.000 NA
ATOM      6  C   UNL     1       3.732   4.301  17.518  0.00  0.00    +0.000 A 
ATOM      7  C   UNL     1       3.809   5.346  18.406  0.00  0.00    +0.000 A 
ATOM      8  O   UNL     1       4.895   6.065  18.163  0.00  0.00    +0.000 OA
ATOM      9  C   UNL     1       5.504   5.488  17.132  0.00  0.00    +0.000 A 
ATOM     10  C   UNL     1       6.712   5.838  16.525  0.00  0.00    +0.000 A 
ATOM     11  C   UNL     1       7.120   5.095  15.395  0.00  0.00    +0.000 A 
ATOM     12  C   UNL     1       6.324   4.037  14.897  0.00  0.00    +0.000 A 
ATOM     13  C   UNL     1       5.140   3.677  15.551  0.00  0.00    +0.000 A 
ATOM     14  C   UNL     1       4.780   4.414  16.673  0.00  0.00    +0.000 A 
ENDROOT
BRANCH   1  15
ATOM     15  N   UNL     1       2.603   6.699  20.125  0.00  0.00    +0.000 N 
ATOM     16  H   UNL     1       3.039   6.666  21.060  0.00  0.00    +0.000 HD
BRANCH  15  20
ATOM     17  C   UNL     1       0.604  10.339  19.177  0.00  0.00    +0.000 A 
ATOM     18  C   UNL     1       0.509   9.779  20.466  0.00  0.00    +0.000 A 
ATOM     19  C   UNL     1       1.161   8.574  20.766  0.00  0.00    +0.000 A 
ATOM     20  C   UNL     1       1.896   7.891  19.779  0.00  0.00    +0.000 A 
ATOM     21  C   UNL     1       1.982   8.443  18.496  0.00  0.00    +0.000 A 
ATOM     22  C   UNL     1       1.350   9.653  18.201  0.00  0.00    +0.000 A 
BRANCH  17  24
ATOM     23  C   UNL     1      -1.394  11.710  18.164  0.00  0.00    +0.000 C 
ATOM     24  C   UNL     1      -0.049  11.637  18.834  0.00  0.00    +0.000 C 
ATOM     25  O   UNL     1       0.513  12.686  19.113  0.00  0.00    +0.000 OA
ENDBRANCH  17  24
ENDBRANCH  15  20
ENDBRANCH   1  15
TORSDOF 3
ENDMDL
MODEL 4
REMARK VINA RESULT:      -8.4      2.446      6.941
REMARK  Name = 
REMARK  5 active torsions:
REMARK  status: ('A' for Active; 'I' for Inactive)
REMARK    1  A    between atoms: C_1  and  C_2
REMARK    2  A    between atoms: C_2  and  C_4
REMARK    3  A    between atoms: C_7  and  N_8
REMARK    4  A    between atoms: N_8  and  C_9
REMARK    5  A    between atoms: C_11  and  C_12
REMARK                            x       y       z     vdW  Elec       q    Type
REMARK                         _______ _______ _______ _____ _____    ______ ____
ROOT
ATOM      1  C   UNL     1       2.377   6.376  20.122  0.00  0.00    +0.000 A 
ATOM      2  N   UNL     1       1.665   5.339  20.646  0.00  0.00    +0.000 NA
ATOM      3  C   UNL     1       1.782   4.052  20.170  0.00  0.00    +0.000 A 
ATOM      4  C   UNL     1       1.178   2.899  20.893  0.00  0.00    +0.000 C 
ATOM      5  N   UNL     1       2.519   3.800  19.061  0.00  0.00    +0.000 NA
ATOM      6  C   UNL     1       3.224   4.814  18.528  0.00  0.00    +0.000 A 
ATOM      7  C   UNL     1       3.241   6.083  19.051  0.00  0.00    +0.000 A 
ATOM      8  O   UNL     1       4.067   6.848  18.353  0.00  0.00    +0.000 OA
ATOM      9  C   UNL     1       4.572   6.078  17.394  0.00  0.00    +0.000 A 
ATOM     10  C   UNL     1       5.525   6.400  16.426  0.00  0.00    +0.000 A 
ATOM     11  C   UNL     1       5.855   5.412  15.472  0.00  0.00    +0.000 A 
ATOM     12  C   UNL     1       5.233   4.142  15.499  0.00  0.00    +0.000 A 
ATOM     13  C   UNL     1       4.314   3.827  16.508  0.00  0.00    +0.000 A 
ATOM     14  C   UNL     1       4.030   4.815  17.443  0.00  0.00    +0.000 A 
ENDROOT
BRANCH   1  15
ATOM     15  N   UNL     1       2.131   7.706  20.592  0.00  0.00    +0.000 N 
ATOM     16  H   UNL     1       2.612   7.974  21.465  0.00  0.00    +0.000 HD
BRANCH  15  20
ATOM     17  C   UNL     1      -0.497  10.495  18.731  0.00  0.00    +0.000 A 
ATOM     18  C   UNL     1       0.557   9.903  18.008  0.00  0.00    +0.000 A 
ATOM     19  C   UNL     1       1.424   8.995  18.631  0.00  0.00    +0.000 A 
ATOM     20  C   UNL     1       1.275   8.681  19.996  0.00  0.00    +0.000 A 
ATOM     21  C   UNL     1       0.234   9.276  20.716  0.00  0.00    +0.000 A 
ATOM     22  C   UNL     1      -0.644  10.166  20.092  0.00  0.00    +0.000 A 
BRANCH  17  24
ATOM     23  C   UNL     1      -2.736  10.975  17.446  0.00  0.00    +0.000 C 
ATOM     24  C   UNL     1      -1.459  11.439  18.090  0.00  0.00    +0.000 C 
ATOM     25  O   UNL     1      -1.216  12.637  18.092  0.00  0.00    +0.000 OA
ENDBRANCH  17  24
ENDBRANCH  15  20
ENDBRANCH   1  15
TORSDOF 3
ENDMDL
MODEL 5
REMARK VINA RESULT:      -8.4      2.449      6.963
REMARK  Name = 
REMARK  5 active torsions:
REMARK  status: ('A' for Active; 'I' for Inactive)
REMARK    1  A    between atoms: C_1  and  C_2
REMARK    2  A    between atoms: C_2  and  C_4
REMARK    3  A    between atoms: C_7  and  N_8
REMARK    4  A    between atoms: N_8  and  C_9
REMARK    5  A    between atoms: C_11  and  C_12
REMARK                            x       y       z     vdW  Elec       q    Type
REMARK                         _______ _______ _______ _____ _____    ______ ____
ROOT
ATOM      1  C   UNL     1       2.379   6.340  20.132  0.00  0.00    +0.000 A 
ATOM      2  N   UNL     1       1.703   5.291  20.679  0.00  0.00    +0.000 NA
ATOM      3  C   UNL     1       1.849   4.002  20.217  0.00  0.00    +0.000 A 
ATOM      4  C   UNL     1       1.287   2.842  20.962  0.00  0.00    +0.000 C 
ATOM      5  N   UNL     1       2.578   3.756  19.101  0.00  0.00    +0.000 NA
ATOM      6  C   UNL     1       3.246   4.782  18.545  0.00  0.00    +0.000 A 
ATOM      7  C   UNL     1       3.235   6.058  19.053  0.00  0.00    +0.000 A 
ATOM      8  O   UNL     1       4.031   6.837  18.334  0.00  0.00    +0.000 OA
ATOM      9  C   UNL     1       4.544   6.069  17.378  0.00  0.00    +0.000 A 
ATOM     10  C   UNL     1       5.474   6.405  16.393  0.00  0.00    +0.000 A 
ATOM     11  C   UNL     1       5.818   5.414  15.446  0.00  0.00    +0.000 A 
ATOM     12  C   UNL     1       5.232   4.128  15.498  0.00  0.00    +0.000 A 
ATOM     13  C   UNL     1       4.336   3.801  16.523  0.00  0.00    +0.000 A 
ATOM     14  C   UNL     1       4.037   4.792  17.450  0.00  0.00    +0.000 A 
ENDROOT
BRANCH   1  15
ATOM     15  N   UNL     1       2.102   7.669  20.590  0.00  0.00    +0.000 N 
ATOM     16  H   UNL     1       2.574   7.955  21.462  0.00  0.00    +0.000 HD
BRANCH  15  20
ATOM     17  C   UNL     1      -0.424  10.627  18.853  0.00  0.00    +0.000 A 
ATOM     18  C   UNL     1      -0.564  10.263  20.206  0.00  0.00    +0.000 A 
ATOM     19  C   UNL     1       0.263   9.281  20.768  0.00  0.00    +0.000 A 
ATOM     20  C   UNL     1       1.228   8.621  19.981  0.00  0.00    +0.000 A 
ATOM     21  C   UNL     1       1.361   8.975  18.635  0.00  0.00    +0.000 A 
ATOM     22  C   UNL     1       0.550   9.968  18.079  0.00  0.00    +0.000 A 
BRANCH  17  24
ATOM     23  C   UNL     1      -2.362  11.384  17.251  0.00  0.00    +0.000 C 
ATOM     24  C   UNL     1      -1.266  11.692  18.233  0.00  0.00    +0.000 C 
ATOM     25  O   UNL     1      -1.075  12.861  18.536  0.00  0.00    +0.000 OA
ENDBRANCH  17  24
ENDBRANCH  15  20
ENDBRANCH   1  15
TORSDOF 3
ENDMDL
MODEL 6
REMARK VINA RESULT:      -8.3      1.777      3.929
REMARK  Name = 
REMARK  5 active torsions:
REMARK  status: ('A' for Active; 'I' for Inactive)
REMARK    1  A    between atoms: C_1  and  C_2
REMARK    2  A    between atoms: C_2  and  C_4
REMARK    3  A    between atoms: C_7  and  N_8
REMARK    4  A    between atoms: N_8  and  C_9
REMARK    5  A    between atoms: C_11  and  C_12
REMARK                            x       y       z     vdW  Elec       q    Type
REMARK                         _______ _______ _______ _____ _____    ______ ____
ROOT
ATOM      1  C   UNL     1       4.699   6.346  17.774  0.00  0.00    +0.000 A 
ATOM      2  N   UNL     1       3.999   7.476  17.471  0.00  0.00    +0.000 NA
ATOM      3  C   UNL     1       2.777   7.757  18.041  0.00  0.00    +0.000 A 
ATOM      4  C   UNL     1       2.134   9.091  17.879  0.00  0.00    +0.000 C 
ATOM      5  N   UNL     1       2.164   6.842  18.829  0.00  0.00    +0.000 NA
ATOM      6  C   UNL     1       2.839   5.718  19.133  0.00  0.00    +0.000 A 
ATOM      7  C   UNL     1       4.115   5.458  18.694  0.00  0.00    +0.000 A 
ATOM      8  O   UNL     1       4.541   4.311  19.202  0.00  0.00    +0.000 OA
ATOM      9  C   UNL     1       3.550   3.842  19.955  0.00  0.00    +0.000 A 
ATOM     10  C   UNL     1       3.520   2.688  20.739  0.00  0.00    +0.000 A 
ATOM     11  C   UNL     1       2.315   2.376  21.407  0.00  0.00    +0.000 A 
ATOM     12  C   UNL     1       1.178   3.206  21.275  0.00  0.00    +0.000 A 
ATOM     13  C   UNL     1       1.247   4.383  20.519  0.00  0.00    +0.000 A 
ATOM     14  C   UNL     1       2.455   4.671  19.895  0.00  0.00    +0.000 A 
ENDROOT
BRANCH   1  15
ATOM     15  N   UNL     1       5.912   6.062  17.068  0.00  0.00    +0.000 N 
ATOM     16  H   UNL     1       6.773   6.472  17.463  0.00  0.00    +0.000 HD
BRANCH  15  20
ATOM     17  C   UNL     1       6.201   3.872  13.426  0.00  0.00    +0.000 A 
ATOM     18  C   UNL     1       5.101   3.696  14.288  0.00  0.00    +0.000 A 
ATOM     19  C   UNL     1       5.019   4.412  15.491  0.00  0.00    +0.000 A 
ATOM     20  C   UNL     1       6.048   5.296  15.870  0.00  0.00    +0.000 A 
ATOM     21  C   UNL     1       7.145   5.464  15.018  0.00  0.00    +0.000 A 
ATOM     22  C   UNL     1       7.218   4.766  13.810  0.00  0.00    +0.000 A 
BRANCH  17  24
ATOM     23  C   UNL     1       5.104   2.553  11.437  0.00  0.00    +0.000 C 
ATOM     24  C   UNL     1       6.302   3.150  12.124  0.00  0.00    +0.000 C 
ATOM     25  O   UNL     1       7.390   3.043  11.578  0.00  0.00    +0.000 OA
ENDBRANCH  17  24
ENDBRANCH  15  20
ENDBRANCH   1  15
TORSDOF 3
ENDMDL
MODEL 7
REMARK VINA RESULT:      -8.1      2.207      7.635
REMARK  Name = 
REMARK  5 active torsions:
REMARK  status: ('A' for Active; 'I' for Inactive)
REMARK    1  A    between atoms: C_1  and  C_2
REMARK    2  A    between atoms: C_2  and  C_4
REMARK    3  A    between atoms: C_7  and  N_8
REMARK    4  A    between atoms: N_8  and  C_9
REMARK    5  A    between atoms: C_11  and  C_12
REMARK                            x       y       z     vdW  Elec       q    Type
REMARK                         _______ _______ _______ _____ _____    ______ ____
ROOT
ATOM      1  C   UNL     1       5.126   5.524  17.449  0.00  0.00    +0.000 A 
ATOM      2  N   UNL     1       6.049   6.348  18.021  0.00  0.00    +0.000 NA
ATOM      3  C   UNL     1       7.167   6.780  17.343  0.00  0.00    +0.000 A 
ATOM      4  C   UNL     1       8.041   7.853  17.892  0.00  0.00    +0.000 C 
ATOM      5  N   UNL     1       7.456   6.282  16.116  0.00  0.00    +0.000 NA
ATOM      6  C   UNL     1       6.558   5.462  15.541  0.00  0.00    +0.000 A 
ATOM      7  C   UNL     1       5.366   5.112  16.127  0.00  0.00    +0.000 A 
ATOM      8  O   UNL     1       4.666   4.347  15.302  0.00  0.00    +0.000 OA
ATOM      9  C   UNL     1       5.401   4.209  14.202  0.00  0.00    +0.000 A 
ATOM     10  C   UNL     1       5.087   3.534  13.021  0.00  0.00    +0.000 A 
ATOM     11  C   UNL     1       6.073   3.482  12.010  0.00  0.00    +0.000 A 
ATOM     12  C   UNL     1       7.336   4.091  12.198  0.00  0.00    +0.000 A 
ATOM     13  C   UNL     1       7.610   4.801  13.374  0.00  0.00    +0.000 A 
ATOM     14  C   UNL     1       6.610   4.851  14.337  0.00  0.00    +0.000 A 
ENDROOT
BRANCH   1  15
ATOM     15  N   UNL     1       4.041   5.028  18.242  0.00  0.00    +0.000 N 
ATOM     16  H   UNL     1       3.909   4.004  18.241  0.00  0.00    +0.000 HD
BRANCH  15  20
ATOM     17  C   UNL     1       1.395   7.349  20.642  0.00  0.00    +0.000 A 
ATOM     18  C   UNL     1       1.676   6.008  20.968  0.00  0.00    +0.000 A 
ATOM     19  C   UNL     1       2.538   5.247  20.167  0.00  0.00    +0.000 A 
ATOM     20  C   UNL     1       3.116   5.801  19.008  0.00  0.00    +0.000 A 
ATOM     21  C   UNL     1       2.830   7.130  18.679  0.00  0.00    +0.000 A 
ATOM     22  C   UNL     1       1.986   7.896  19.488  0.00  0.00    +0.000 A 
BRANCH  17  24
ATOM     23  C   UNL     1       1.030   9.349  22.304  0.00  0.00    +0.000 C 
ATOM     24  C   UNL     1       0.508   8.196  21.492  0.00  0.00    +0.000 C 
ATOM     25  O   UNL     1      -0.691   7.961  21.530  0.00  0.00    +0.000 OA
ENDBRANCH  17  24
ENDBRANCH  15  20
ENDBRANCH   1  15
TORSDOF 3
ENDMDL
MODEL 8
REMARK VINA RESULT:      -8.1      3.103      7.765
REMARK  Name = 
REMARK  5 active torsions:
REMARK  status: ('A' for Active; 'I' for Inactive)
REMARK    1  A    between atoms: C_1  and  C_2
REMARK    2  A    between atoms: C_2  and  C_4
REMARK    3  A    between atoms: C_7  and  N_8
REMARK    4  A    between atoms: N_8  and  C_9
REMARK    5  A    between atoms: C_11  and  C_12
REMARK                            x       y       z     vdW  Elec       q    Type
REMARK                         _______ _______ _______ _____ _____    ______ ____
ROOT
ATOM      1  C   UNL     1       3.370   7.246  17.716  0.00  0.00    +0.000 A 
ATOM      2  N   UNL     1       4.694   7.530  17.557  0.00  0.00    +0.000 NA
ATOM      3  C   UNL     1       5.660   6.548  17.551  0.00  0.00    +0.000 A 
ATOM      4  C   UNL     1       7.063   6.843  17.150  0.00  0.00    +0.000 C 
ATOM      5  N   UNL     1       5.332   5.266  17.843  0.00  0.00    +0.000 NA
ATOM      6  C   UNL     1       4.031   4.970  18.010  0.00  0.00    +0.000 A 
ATOM      7  C   UNL     1       3.021   5.895  17.891  0.00  0.00    +0.000 A 
ATOM      8  O   UNL     1       1.846   5.302  18.046  0.00  0.00    +0.000 OA
ATOM      9  C   UNL     1       2.101   4.015  18.262  0.00  0.00    +0.000 A 
ATOM     10  C   UNL     1       1.198   2.965  18.439  0.00  0.00    +0.000 A 
ATOM     11  C   UNL     1       1.725   1.683  18.715  0.00  0.00    +0.000 A 
ATOM     12  C   UNL     1       3.121   1.480  18.814  0.00  0.00    +0.000 A 
ATOM     13  C   UNL     1       4.007   2.541  18.587  0.00  0.00    +0.000 A 
ATOM     14  C   UNL     1       3.455   3.782  18.295  0.00  0.00    +0.000 A 
ENDROOT
BRANCH   1  15
ATOM     15  N   UNL     1       2.429   8.320  17.817  0.00  0.00    +0.000 N 
ATOM     16  H   UNL     1       2.243   8.844  16.948  0.00  0.00    +0.000 HD
BRANCH  15  20
ATOM     17  C   UNL     1       0.538   9.649  21.396  0.00  0.00    +0.000 A 
ATOM     18  C   UNL     1       1.219   8.417  21.355  0.00  0.00    +0.000 A 
ATOM     19  C   UNL     1       1.829   7.981  20.170  0.00  0.00    +0.000 A 
ATOM     20  C   UNL     1       1.746   8.753  18.995  0.00  0.00    +0.000 A 
ATOM     21  C   UNL     1       1.062   9.973  19.034  0.00  0.00    +0.000 A 
ATOM     22  C   UNL     1       0.471  10.418  20.219  0.00  0.00    +0.000 A 
BRANCH  17  24
ATOM     23  C   UNL     1      -1.204  11.170  22.639  0.00  0.00    +0.000 C 
ATOM     24  C   UNL     1      -0.093  10.157  22.650  0.00  0.00    +0.000 C 
ATOM     25  O   UNL     1       0.291   9.734  23.730  0.00  0.00    +0.000 OA
ENDBRANCH  17  24
ENDBRANCH  15  20
ENDBRANCH   1  15
TORSDOF 3
ENDMDL
MODEL 9
REMARK VINA RESULT:      -7.8      4.245      6.759
REMARK  Name = 
REMARK  5 active torsions:
REMARK  status: ('A' for Active; 'I' for Inactive)
REMARK    1  A    between atoms: C_1  and  C_2
REMARK    2  A    between atoms: C_2  and  C_4
REMARK    3  A    between atoms: C_7  and  N_8
REMARK    4  A    between atoms: N_8  and  C_9
REMARK    5  A    between atoms: C_11  and  C_12
REMARK                            x       y       z     vdW  Elec       q    Type
REMARK                         _______ _______ _______ _____ _____    ______ ____
ROOT
ATOM      1  C   UNL     1       0.581   9.992  19.438  0.00  0.00    +0.000 A 
ATOM      2  N   UNL     1       0.518  10.596  20.658  0.00  0.00    +0.000 NA
ATOM      3  C   UNL     1      -0.595  11.291  21.077  0.00  0.00    +0.000 A 
ATOM      4  C   UNL     1      -0.740  11.747  22.487  0.00  0.00    +0.000 C 
ATOM      5  N   UNL     1      -1.623  11.511  20.223  0.00  0.00    +0.000 NA
ATOM      6  C   UNL     1      -1.574  10.927  19.012  0.00  0.00    +0.000 A 
ATOM      7  C   UNL     1      -0.544  10.116  18.603  0.00  0.00    +0.000 A 
ATOM      8  O   UNL     1      -0.799   9.638  17.394  0.00  0.00    +0.000 OA
ATOM      9  C   UNL     1      -1.977  10.137  17.033  0.00  0.00    +0.000 A 
ATOM     10  C   UNL     1      -2.707   9.899  15.868  0.00  0.00    +0.000 A 
ATOM     11  C   UNL     1      -3.918  10.605  15.692  0.00  0.00    +0.000 A 
ATOM     12  C   UNL     1      -4.368  11.525  16.668  0.00  0.00    +0.000 A 
ATOM     13  C   UNL     1      -3.640  11.713  17.850  0.00  0.00    +0.000 A 
ATOM     14  C   UNL     1      -2.466  10.986  17.999  0.00  0.00    +0.000 A 
ENDROOT
BRANCH   1  15
ATOM     15  N   UNL     1       1.805   9.376  19.023  0.00  0.00    +0.000 N 
ATOM     16  H   UNL     1       2.521  10.008  18.631  0.00  0.00    +0.000 HD
BRANCH  15  20
ATOM     17  C   UNL     1       2.595   5.192  19.155  0.00  0.00    +0.000 A 
ATOM     18  C   UNL     1       2.044   5.857  20.268  0.00  0.00    +0.000 A 
ATOM     19  C   UNL     1       1.797   7.236  20.220  0.00  0.00    +0.000 A 
ATOM     20  C   UNL     1       2.124   7.984  19.072  0.00  0.00    +0.000 A 
ATOM     21  C   UNL     1       2.680   7.325  17.971  0.00  0.00    +0.000 A 
ATOM     22  C   UNL     1       2.908   5.947  18.009  0.00  0.00    +0.000 A 
BRANCH  17  24
ATOM     23  C   UNL     1       2.270   2.804  18.112  0.00  0.00    +0.000 C 
ATOM     24  C   UNL     1       2.839   3.719  19.162  0.00  0.00    +0.000 C 
ATOM     25  O   UNL     1       3.534   3.228  20.039  0.00  0.00    +0.000 OA
ENDBRANCH  17  24
ENDBRANCH  15  20
ENDBRANCH   1  15
TORSDOF 3
ENDMDL
