MODEL 1
REMARK VINA RESULT:      -7.4      0.000      0.000
REMARK  Name = 
REMARK  5 active torsions:
REMARK  status: ('A' for Active; 'I' for Inactive)
REMARK    1  A    between atoms: C_1  and  C_2
REMARK    2  A    between atoms: N_4  and  C_5
REMARK    3  A    between atoms: C_8  and  C_9
REMARK    4  A    between atoms: C_9  and  O_11
REMARK    5  A    between atoms: O_11  and  C_12
REMARK                            x       y       z     vdW  Elec       q    Type
REMARK                         _______ _______ _______ _____ _____    ______ ____
ROOT
ATOM      1  C   UNL     1       6.127   5.269  15.287  0.00  0.00    +0.000 A 
ATOM      2  C   UNL     1       5.174   6.231  15.507  0.00  0.00    +0.000 A 
ATOM      3  C   UNL     1       4.782   6.258  16.878  0.00  0.00    +0.000 A 
ATOM      4  C   UNL     1       5.458   5.324  17.638  0.00  0.00    +0.000 A 
ATOM      5  S   UNL     1       6.460   4.333  16.658  0.00  0.00    +0.000 S 
ENDROOT
BRANCH   1   9
ATOM      6  C   UNL     1       7.215   3.929  12.018  0.00  0.00    +0.000 C 
ATOM      7  C   UNL     1       6.281   4.193  13.167  0.00  0.00    +0.000 C 
ATOM      8  O   UNL     1       5.134   3.754  13.163  0.00  0.00    +0.000 OA
ATOM      9  N   UNL     1       6.856   4.954  14.168  0.00  0.00    +0.000 N 
ATOM     10  H   UNL     1       7.628   5.567  13.937  0.00  0.00    +0.000 HD
ENDBRANCH   1   9
BRANCH   4  11
ATOM     11  C   UNL     1       5.357   5.068  19.057  0.00  0.00    +0.000 C 
ATOM     12  O   UNL     1       6.266   5.053  19.879  0.00  0.00    +0.000 OA
BRANCH  11  13
ATOM     13  O   UNL     1       4.063   4.765  19.362  0.00  0.00    +0.000 OA
BRANCH  13  14
ATOM     14  C   UNL     1       3.685   3.426  19.020  0.00  0.00    +0.000 C 
ATOM     15  C   UNL     1       3.743   2.494  20.226  0.00  0.00    +0.000 C 
ATOM     16  C   UNL     1       2.700   2.830  21.285  0.00  0.00    +0.000 C 
ATOM     17  C   UNL     1       1.296   2.828  20.682  0.00  0.00    +0.000 C 
ATOM     18  C   UNL     1       1.178   3.813  19.530  0.00  0.00    +0.000 C 
ATOM     19  C   UNL     1       2.269   3.589  18.503  0.00  0.00    +0.000 C 
ATOM     20  O   UNL     1       2.035   3.700  17.299  0.00  0.00    +0.000 OA
ENDBRANCH  13  14
ENDBRANCH  11  13
ENDBRANCH   4  11
TORSDOF 4
ENDMDL
MODEL 2
REMARK VINA RESULT:      -7.2      0.819      1.036
REMARK  Name = 
REMARK  5 active torsions:
REMARK  status: ('A' for Active; 'I' for Inactive)
REMARK    1  A    between atoms: C_1  and  C_2
REMARK    2  A    between atoms: N_4  and  C_5
REMARK    3  A    between atoms: C_8  and  C_9
REMARK    4  A    between atoms: C_9  and  O_11
REMARK    5  A    between atoms: O_11  and  C_12
REMARK                            x       y       z     vdW  Elec       q    Type
REMARK                         _______ _______ _______ _____ _____    ______ ____
ROOT
ATOM      1  C   UNL     1       6.081   5.350  15.332  0.00  0.00    +0.000 A 
ATOM      2  C   UNL     1       5.165   6.336  15.598  0.00  0.00    +0.000 A 
ATOM      3  C   UNL     1       4.726   6.272  16.954  0.00  0.00    +0.000 A 
ATOM      4  C   UNL     1       5.331   5.249  17.656  0.00  0.00    +0.000 A 
ATOM      5  S   UNL     1       6.323   4.293  16.632  0.00  0.00    +0.000 S 
ENDROOT
BRANCH   1   9
ATOM      6  C   UNL     1       7.292   4.069  12.083  0.00  0.00    +0.000 C 
ATOM      7  C   UNL     1       6.339   4.257  13.231  0.00  0.00    +0.000 C 
ATOM      8  O   UNL     1       5.243   3.703  13.240  0.00  0.00    +0.000 OA
ATOM      9  N   UNL     1       6.836   5.091  14.215  0.00  0.00    +0.000 N 
ATOM     10  H   UNL     1       7.540   5.775  13.970  0.00  0.00    +0.000 HD
ENDBRANCH   1   9
BRANCH   4  11
ATOM     11  C   UNL     1       5.168   4.886  19.047  0.00  0.00    +0.000 C 
ATOM     12  O   UNL     1       6.046   4.743  19.889  0.00  0.00    +0.000 OA
BRANCH  11  13
ATOM     13  O   UNL     1       3.847   4.647  19.290  0.00  0.00    +0.000 OA
BRANCH  13  14
ATOM     14  C   UNL     1       3.586   3.355  19.853  0.00  0.00    +0.000 C 
ATOM     15  C   UNL     1       2.605   3.431  21.018  0.00  0.00    +0.000 C 
ATOM     16  C   UNL     1       1.204   3.850  20.586  0.00  0.00    +0.000 C 
ATOM     17  C   UNL     1       0.669   2.914  19.504  0.00  0.00    +0.000 C 
ATOM     18  C   UNL     1       1.581   2.882  18.288  0.00  0.00    +0.000 C 
ATOM     19  C   UNL     1       3.012   2.580  18.683  0.00  0.00    +0.000 C 
ATOM     20  O   UNL     1       3.723   1.859  17.982  0.00  0.00    +0.000 OA
ENDBRANCH  13  14
ENDBRANCH  11  13
ENDBRANCH   4  11
TORSDOF 4
ENDMDL
MODEL 3
REMARK VINA RESULT:      -7.2      1.259      1.632
REMARK  Name = 
REMARK  5 active torsions:
REMARK  status: ('A' for Active; 'I' for Inactive)
REMARK    1  A    between atoms: C_1  and  C_2
REMARK    2  A    between atoms: N_4  and  C_5
REMARK    3  A    between atoms: C_8  and  C_9
REMARK    4  A    between atoms: C_9  and  O_11
REMARK    5  A    between atoms: O_11  and  C_12
REMARK                            x       y       z     vdW  Elec       q    Type
REMARK                         _______ _______ _______ _____ _____    ______ ____
ROOT
ATOM      1  C   UNL     1       6.826   5.459  16.247  0.00  0.00    +0.000 A 
ATOM      2  C   UNL     1       7.183   4.816  17.405  0.00  0.00    +0.000 A 
ATOM      3  C   UNL     1       6.155   4.928  18.388  0.00  0.00    +0.000 A 
ATOM      4  C   UNL     1       5.065   5.641  17.933  0.00  0.00    +0.000 A 
ATOM      5  S   UNL     1       5.352   6.284  16.368  0.00  0.00    +0.000 S 
ENDROOT
BRANCH   1   9
ATOM      6  C   UNL     1       7.779   4.927  12.715  0.00  0.00    +0.000 C 
ATOM      7  C   UNL     1       6.992   4.736  13.983  0.00  0.00    +0.000 C 
ATOM      8  O   UNL     1       6.055   3.944  14.033  0.00  0.00    +0.000 OA
ATOM      9  N   UNL     1       7.441   5.531  15.022  0.00  0.00    +0.000 N 
ATOM     10  H   UNL     1       7.936   6.386  14.807  0.00  0.00    +0.000 HD
ENDBRANCH   1   9
BRANCH   4  11
ATOM     11  C   UNL     1       3.829   5.941  18.621  0.00  0.00    +0.000 C 
ATOM     12  O   UNL     1       3.080   6.892  18.429  0.00  0.00    +0.000 OA
BRANCH  11  13
ATOM     13  O   UNL     1       3.632   5.016  19.603  0.00  0.00    +0.000 OA
BRANCH  13  14
ATOM     14  C   UNL     1       3.242   3.726  19.114  0.00  0.00    +0.000 C 
ATOM     15  C   UNL     1       3.563   2.619  20.113  0.00  0.00    +0.000 C 
ATOM     16  C   UNL     1       2.733   2.712  21.388  0.00  0.00    +0.000 C 
ATOM     17  C   UNL     1       1.240   2.714  21.063  0.00  0.00    +0.000 C 
ATOM     18  C   UNL     1       0.869   3.861  20.137  0.00  0.00    +0.000 C 
ATOM     19  C   UNL     1       1.748   3.877  18.903  0.00  0.00    +0.000 C 
ATOM     20  O   UNL     1       1.282   4.163  17.799  0.00  0.00    +0.000 OA
ENDBRANCH  13  14
ENDBRANCH  11  13
ENDBRANCH   4  11
TORSDOF 4
ENDMDL
MODEL 4
REMARK VINA RESULT:      -7.1      1.067      1.764
REMARK  Name = 
REMARK  5 active torsions:
REMARK  status: ('A' for Active; 'I' for Inactive)
REMARK    1  A    between atoms: C_1  and  C_2
REMARK    2  A    between atoms: N_4  and  C_5
REMARK    3  A    between atoms: C_8  and  C_9
REMARK    4  A    between atoms: C_9  and  O_11
REMARK    5  A    between atoms: O_11  and  C_12
REMARK                            x       y       z     vdW  Elec       q    Type
REMARK                         _______ _______ _______ _____ _____    ______ ____
ROOT
ATOM      1  C   UNL     1       6.164   5.134  15.161  0.00  0.00    +0.000 A 
ATOM      2  C   UNL     1       5.323   6.174  15.466  0.00  0.00    +0.000 A 
ATOM      3  C   UNL     1       4.938   6.135  16.839  0.00  0.00    +0.000 A 
ATOM      4  C   UNL     1       5.509   5.076  17.516  0.00  0.00    +0.000 A 
ATOM      5  S   UNL     1       6.395   4.062  16.451  0.00  0.00    +0.000 S 
ENDROOT
BRANCH   1   9
ATOM      6  C   UNL     1       7.143   3.811  11.852  0.00  0.00    +0.000 C 
ATOM      7  C   UNL     1       6.251   4.059  13.037  0.00  0.00    +0.000 C 
ATOM      8  O   UNL     1       5.112   3.602  13.079  0.00  0.00    +0.000 OA
ATOM      9  N   UNL     1       6.853   4.831  14.014  0.00  0.00    +0.000 N 
ATOM     10  H   UNL     1       7.604   5.456  13.752  0.00  0.00    +0.000 HD
ENDBRANCH   1   9
BRANCH   4  11
ATOM     11  C   UNL     1       5.382   4.721  18.912  0.00  0.00    +0.000 C 
ATOM     12  O   UNL     1       6.070   5.114  19.847  0.00  0.00    +0.000 OA
BRANCH  11  13
ATOM     13  O   UNL     1       4.390   3.795  19.046  0.00  0.00    +0.000 OA
BRANCH  13  14
ATOM     14  C   UNL     1       3.288   4.240  19.847  0.00  0.00    +0.000 C 
ATOM     15  C   UNL     1       2.230   4.954  19.011  0.00  0.00    +0.000 C 
ATOM     16  C   UNL     1       1.523   4.024  18.031  0.00  0.00    +0.000 C 
ATOM     17  C   UNL     1       0.905   2.834  18.764  0.00  0.00    +0.000 C 
ATOM     18  C   UNL     1       1.949   2.047  19.539  0.00  0.00    +0.000 C 
ATOM     19  C   UNL     1       2.757   2.953  20.447  0.00  0.00    +0.000 C 
ATOM     20  O   UNL     1       3.101   2.578  21.568  0.00  0.00    +0.000 OA
ENDBRANCH  13  14
ENDBRANCH  11  13
ENDBRANCH   4  11
TORSDOF 4
ENDMDL
MODEL 5
REMARK VINA RESULT:      -7.1      1.466      1.784
REMARK  Name = 
REMARK  5 active torsions:
REMARK  status: ('A' for Active; 'I' for Inactive)
REMARK    1  A    between atoms: C_1  and  C_2
REMARK    2  A    between atoms: N_4  and  C_5
REMARK    3  A    between atoms: C_8  and  C_9
REMARK    4  A    between atoms: C_9  and  O_11
REMARK    5  A    between atoms: O_11  and  C_12
REMARK                            x       y       z     vdW  Elec       q    Type
REMARK                         _______ _______ _______ _____ _____    ______ ____
ROOT
ATOM      1  C   UNL     1       6.349   4.056  15.483  0.00  0.00    +0.000 A 
ATOM      2  C   UNL     1       7.437   4.540  16.165  0.00  0.00    +0.000 A 
ATOM      3  C   UNL     1       7.086   4.895  17.501  0.00  0.00    +0.000 A 
ATOM      4  C   UNL     1       5.753   4.659  17.776  0.00  0.00    +0.000 A 
ATOM      5  S   UNL     1       4.912   4.138  16.374  0.00  0.00    +0.000 S 
ENDROOT
BRANCH   1   9
ATOM      6  C   UNL     1       6.577   3.431  11.847  0.00  0.00    +0.000 C 
ATOM      7  C   UNL     1       6.802   4.155  13.147  0.00  0.00    +0.000 C 
ATOM      8  O   UNL     1       7.435   5.206  13.183  0.00  0.00    +0.000 OA
ATOM      9  N   UNL     1       6.234   3.509  14.230  0.00  0.00    +0.000 N 
ATOM     10  H   UNL     1       6.073   2.512  14.178  0.00  0.00    +0.000 HD
ENDBRANCH   1   9
BRANCH   4  11
ATOM     11  C   UNL     1       5.035   4.864  19.015  0.00  0.00    +0.000 C 
ATOM     12  O   UNL     1       5.463   5.357  20.052  0.00  0.00    +0.000 OA
BRANCH  11  13
ATOM     13  O   UNL     1       3.778   4.350  18.889  0.00  0.00    +0.000 OA
BRANCH  13  14
ATOM     14  C   UNL     1       3.481   3.311  19.830  0.00  0.00    +0.000 C 
ATOM     15  C   UNL     1       2.449   3.758  20.861  0.00  0.00    +0.000 C 
ATOM     16  C   UNL     1       1.073   4.005  20.253  0.00  0.00    +0.000 C 
ATOM     17  C   UNL     1       0.577   2.764  19.513  0.00  0.00    +0.000 C 
ATOM     18  C   UNL     1       1.542   2.342  18.417  0.00  0.00    +0.000 C 
ATOM     19  C   UNL     1       2.952   2.193  18.953  0.00  0.00    +0.000 C 
ATOM     20  O   UNL     1       3.685   1.286  18.558  0.00  0.00    +0.000 OA
ENDBRANCH  13  14
ENDBRANCH  11  13
ENDBRANCH   4  11
TORSDOF 4
ENDMDL
MODEL 6
REMARK VINA RESULT:      -7.0      1.505      2.157
REMARK  Name = 
REMARK  5 active torsions:
REMARK  status: ('A' for Active; 'I' for Inactive)
REMARK    1  A    between atoms: C_1  and  C_2
REMARK    2  A    between atoms: N_4  and  C_5
REMARK    3  A    between atoms: C_8  and  C_9
REMARK    4  A    between atoms: C_9  and  O_11
REMARK    5  A    between atoms: O_11  and  C_12
REMARK                            x       y       z     vdW  Elec       q    Type
REMARK                         _______ _______ _______ _____ _____    ______ ____
ROOT
ATOM      1  C   UNL     1       6.740   5.221  15.726  0.00  0.00    +0.000 A 
ATOM      2  C   UNL     1       7.042   4.452  16.821  0.00  0.00    +0.000 A 
ATOM      3  C   UNL     1       6.063   4.613  17.845  0.00  0.00    +0.000 A 
ATOM      4  C   UNL     1       5.059   5.489  17.481  0.00  0.00    +0.000 A 
ATOM      5  S   UNL     1       5.385   6.210  15.958  0.00  0.00    +0.000 S 
ENDROOT
BRANCH   1   9
ATOM      6  C   UNL     1       7.612   4.742  12.166  0.00  0.00    +0.000 C 
ATOM      7  C   UNL     1       6.853   4.534  13.448  0.00  0.00    +0.000 C 
ATOM      8  O   UNL     1       5.915   3.744  13.506  0.00  0.00    +0.000 OA
ATOM      9  N   UNL     1       7.328   5.310  14.489  0.00  0.00    +0.000 N 
ATOM     10  H   UNL     1       7.822   6.167  14.277  0.00  0.00    +0.000 HD
ENDBRANCH   1   9
BRANCH   4  11
ATOM     11  C   UNL     1       3.888   5.885  18.231  0.00  0.00    +0.000 C 
ATOM     12  O   UNL     1       3.379   6.999  18.287  0.00  0.00    +0.000 OA
BRANCH  11  13
ATOM     13  O   UNL     1       3.443   4.819  18.956  0.00  0.00    +0.000 OA
BRANCH  13  14
ATOM     14  C   UNL     1       2.016   4.741  19.055  0.00  0.00    +0.000 C 
ATOM     15  C   UNL     1       1.490   3.377  18.619  0.00  0.00    +0.000 C 
ATOM     16  C   UNL     1       1.910   2.253  19.559  0.00  0.00    +0.000 C 
ATOM     17  C   UNL     1       1.475   2.555  20.993  0.00  0.00    +0.000 C 
ATOM     18  C   UNL     1       2.055   3.869  21.490  0.00  0.00    +0.000 C 
ATOM     19  C   UNL     1       1.759   5.000  20.526  0.00  0.00    +0.000 C 
ATOM     20  O   UNL     1       1.480   6.125  20.940  0.00  0.00    +0.000 OA
ENDBRANCH  13  14
ENDBRANCH  11  13
ENDBRANCH   4  11
TORSDOF 4
ENDMDL
MODEL 7
REMARK VINA RESULT:      -7.0      1.766      2.561
REMARK  Name = 
REMARK  5 active torsions:
REMARK  status: ('A' for Active; 'I' for Inactive)
REMARK    1  A    between atoms: C_1  and  C_2
REMARK    2  A    between atoms: N_4  and  C_5
REMARK    3  A    between atoms: C_8  and  C_9
REMARK    4  A    between atoms: C_9  and  O_11
REMARK    5  A    between atoms: O_11  and  C_12
REMARK                            x       y       z     vdW  Elec       q    Type
REMARK                         _______ _______ _______ _____ _____    ______ ____
ROOT
ATOM      1  C   UNL     1       6.574   5.639  16.604  0.00  0.00    +0.000 A 
ATOM      2  C   UNL     1       6.880   4.955  17.753  0.00  0.00    +0.000 A 
ATOM      3  C   UNL     1       5.828   5.070  18.711  0.00  0.00    +0.000 A 
ATOM      4  C   UNL     1       4.772   5.827  18.245  0.00  0.00    +0.000 A 
ATOM      5  S   UNL     1       5.122   6.503  16.707  0.00  0.00    +0.000 S 
ENDROOT
BRANCH   1   9
ATOM      6  C   UNL     1       7.744   5.043  13.148  0.00  0.00    +0.000 C 
ATOM      7  C   UNL     1       6.937   4.817  14.398  0.00  0.00    +0.000 C 
ATOM      8  O   UNL     1       6.117   3.906  14.465  0.00  0.00    +0.000 OA
ATOM      9  N   UNL     1       7.226   5.725  15.399  0.00  0.00    +0.000 N 
ATOM     10  H   UNL     1       7.608   6.628  15.148  0.00  0.00    +0.000 HD
ENDBRANCH   1   9
BRANCH   4  11
ATOM     11  C   UNL     1       3.525   6.144  18.906  0.00  0.00    +0.000 C 
ATOM     12  O   UNL     1       2.933   7.217  18.906  0.00  0.00    +0.000 OA
BRANCH  11  13
ATOM     13  O   UNL     1       3.111   5.057  19.617  0.00  0.00    +0.000 OA
BRANCH  13  14
ATOM     14  C   UNL     1       1.812   4.581  19.243  0.00  0.00    +0.000 C 
ATOM     15  C   UNL     1       1.701   4.357  17.738  0.00  0.00    +0.000 C 
ATOM     16  C   UNL     1       2.584   3.217  17.243  0.00  0.00    +0.000 C 
ATOM     17  C   UNL     1       2.272   1.924  17.995  0.00  0.00    +0.000 C 
ATOM     18  C   UNL     1       2.458   2.088  19.495  0.00  0.00    +0.000 C 
ATOM     19  C   UNL     1       1.685   3.283  20.016  0.00  0.00    +0.000 C 
ATOM     20  O   UNL     1       1.116   3.240  21.107  0.00  0.00    +0.000 OA
ENDBRANCH  13  14
ENDBRANCH  11  13
ENDBRANCH   4  11
TORSDOF 4
ENDMDL
MODEL 8
REMARK VINA RESULT:      -7.0      1.445      2.088
REMARK  Name = 
REMARK  5 active torsions:
REMARK  status: ('A' for Active; 'I' for Inactive)
REMARK    1  A    between atoms: C_1  and  C_2
REMARK    2  A    between atoms: N_4  and  C_5
REMARK    3  A    between atoms: C_8  and  C_9
REMARK    4  A    between atoms: C_9  and  O_11
REMARK    5  A    between atoms: O_11  and  C_12
REMARK                            x       y       z     vdW  Elec       q    Type
REMARK                         _______ _______ _______ _____ _____    ______ ____
ROOT
ATOM      1  C   UNL     1       6.601   4.888  15.475  0.00  0.00    +0.000 A 
ATOM      2  C   UNL     1       5.471   4.119  15.358  0.00  0.00    +0.000 A 
ATOM      3  C   UNL     1       4.904   3.845  16.639  0.00  0.00    +0.000 A 
ATOM      4  C   UNL     1       5.622   4.422  17.667  0.00  0.00    +0.000 A 
ATOM      5  S   UNL     1       7.050   5.174  17.082  0.00  0.00    +0.000 S 
ENDROOT
BRANCH   1   9
ATOM      6  C   UNL     1       8.343   5.719  12.323  0.00  0.00    +0.000 C 
ATOM      7  C   UNL     1       7.401   4.980  13.234  0.00  0.00    +0.000 C 
ATOM      8  O   UNL     1       6.720   4.047  12.816  0.00  0.00    +0.000 OA
ATOM      9  N   UNL     1       7.405   5.469  14.527  0.00  0.00    +0.000 N 
ATOM     10  H   UNL     1       7.685   6.427  14.689  0.00  0.00    +0.000 HD
ENDBRANCH   1   9
BRANCH   4  11
ATOM     11  C   UNL     1       5.351   4.392  19.087  0.00  0.00    +0.000 C 
ATOM     12  O   UNL     1       5.973   4.961  19.977  0.00  0.00    +0.000 OA
BRANCH  11  13
ATOM     13  O   UNL     1       4.301   3.554  19.321  0.00  0.00    +0.000 OA
BRANCH  13  14
ATOM     14  C   UNL     1       3.216   4.169  20.027  0.00  0.00    +0.000 C 
ATOM     15  C   UNL     1       2.264   4.896  19.082  0.00  0.00    +0.000 C 
ATOM     16  C   UNL     1       1.511   3.949  18.155  0.00  0.00    +0.000 C 
ATOM     17  C   UNL     1       0.754   2.893  18.959  0.00  0.00    +0.000 C 
ATOM     18  C   UNL     1       1.688   2.088  19.849  0.00  0.00    +0.000 C 
ATOM     19  C   UNL     1       2.542   2.996  20.711  0.00  0.00    +0.000 C 
ATOM     20  O   UNL     1       2.805   2.696  21.876  0.00  0.00    +0.000 OA
ENDBRANCH  13  14
ENDBRANCH  11  13
ENDBRANCH   4  11
TORSDOF 4
ENDMDL
MODEL 9
REMARK VINA RESULT:      -7.0      1.395      2.057
REMARK  Name = 
REMARK  5 active torsions:
REMARK  status: ('A' for Active; 'I' for Inactive)
REMARK    1  A    between atoms: C_1  and  C_2
REMARK    2  A    between atoms: N_4  and  C_5
REMARK    3  A    between atoms: C_8  and  C_9
REMARK    4  A    between atoms: C_9  and  O_11
REMARK    5  A    between atoms: O_11  and  C_12
REMARK                            x       y       z     vdW  Elec       q    Type
REMARK                         _______ _______ _______ _____ _____    ______ ____
ROOT
ATOM      1  C   UNL     1       6.674   5.196  15.481  0.00  0.00    +0.000 A 
ATOM      2  C   UNL     1       7.058   4.547  16.627  0.00  0.00    +0.000 A 
ATOM      3  C   UNL     1       6.110   4.754  17.673  0.00  0.00    +0.000 A 
ATOM      4  C   UNL     1       5.049   5.542  17.275  0.00  0.00    +0.000 A 
ATOM      5  S   UNL     1       5.279   6.134  15.680  0.00  0.00    +0.000 S 
ENDROOT
BRANCH   1   9
ATOM      6  C   UNL     1       7.431   4.435  11.944  0.00  0.00    +0.000 C 
ATOM      7  C   UNL     1       6.733   4.310  13.270  0.00  0.00    +0.000 C 
ATOM      8  O   UNL     1       5.836   3.488  13.438  0.00  0.00    +0.000 OA
ATOM      9  N   UNL     1       7.209   5.199  14.217  0.00  0.00    +0.000 N 
ATOM     10  H   UNL     1       7.652   6.054  13.909  0.00  0.00    +0.000 HD
ENDBRANCH   1   9
BRANCH   4  11
ATOM     11  C   UNL     1       3.888   5.949  18.036  0.00  0.00    +0.000 C 
ATOM     12  O   UNL     1       3.541   7.091  18.313  0.00  0.00    +0.000 OA
BRANCH  11  13
ATOM     13  O   UNL     1       3.238   4.836  18.481  0.00  0.00    +0.000 OA
BRANCH  13  14
ATOM     14  C   UNL     1       3.404   4.590  19.883  0.00  0.00    +0.000 C 
ATOM     15  C   UNL     1       2.178   5.014  20.684  0.00  0.00    +0.000 C 
ATOM     16  C   UNL     1       0.949   4.164  20.381  0.00  0.00    +0.000 C 
ATOM     17  C   UNL     1       1.246   2.683  20.613  0.00  0.00    +0.000 C 
ATOM     18  C   UNL     1       2.411   2.204  19.762  0.00  0.00    +0.000 C 
ATOM     19  C   UNL     1       3.625   3.091  19.944  0.00  0.00    +0.000 C 
ATOM     20  O   UNL     1       4.759   2.611  19.976  0.00  0.00    +0.000 OA
ENDBRANCH  13  14
ENDBRANCH  11  13
ENDBRANCH   4  11
TORSDOF 4
ENDMDL
