MODEL 1
REMARK VINA RESULT:      -8.4      0.000      0.000
REMARK  Name = 
REMARK  4 active torsions:
REMARK  status: ('A' for Active; 'I' for Inactive)
REMARK    1  A    between atoms: C_2  and  C_3
REMARK    2  A    between atoms: C_3  and  N_4
REMARK    3  A    between atoms: C_13  and  C_14
REMARK    4  A    between atoms: C_14  and  N_15
REMARK                            x       y       z     vdW  Elec       q    Type
REMARK                         _______ _______ _______ _____ _____    ______ ____
ROOT
ATOM      1  N   UNL     1       1.540   7.681  20.736  0.00  0.00    +0.000 N 
ATOM      2  C   UNL     1       2.232   6.651  20.192  0.00  0.00    +0.000 A 
ATOM      3  N   UNL     1       3.133   6.760  19.237  0.00  0.00    +0.000 NA
ATOM      4  C   UNL     1       3.562   5.506  18.843  0.00  0.00    +0.000 A 
ATOM      5  C   UNL     1       2.997   4.458  19.527  0.00  0.00    +0.000 A 
ATOM      6  S   UNL     1       1.911   5.040  20.708  0.00  0.00    +0.000 S 
ATOM      7  C   UNL     1       3.209   3.017  19.254  0.00  0.00    +0.000 C 
ATOM      8  C   UNL     1       2.790   2.765  17.809  0.00  0.00    +0.000 C 
ATOM      9  O   UNL     1       3.711   3.171  16.798  0.00  0.00    +0.000 OA
ATOM     10  C   UNL     1       4.594   4.202  16.935  0.00  0.00    +0.000 A 
ATOM     11  C   UNL     1       5.653   4.081  16.016  0.00  0.00    +0.000 A 
ATOM     12  C   UNL     1       6.705   4.990  16.000  0.00  0.00    +0.000 A 
ATOM     13  C   UNL     1       6.687   6.058  16.882  0.00  0.00    +0.000 A 
ATOM     14  F   UNL     1       7.708   6.923  16.889  0.00  0.00    +0.000 F 
ATOM     15  C   UNL     1       5.631   6.229  17.771  0.00  0.00    +0.000 A 
ATOM     16  C   UNL     1       4.575   5.300  17.821  0.00  0.00    +0.000 A 
ATOM     17  H   UNL     1       0.735   7.386  21.275  0.00  0.00    +0.000 HD
ENDROOT
BRANCH   1  18
ATOM     18  C   UNL     1       1.321   8.837  19.879  0.00  0.00    +0.000 C 
BRANCH  18  24
ATOM     19  O   UNL     1      -0.037  14.144  21.699  0.00  0.00    +0.000 OA
ATOM     20  C   UNL     1      -0.070  13.665  20.562  0.00  0.00    +0.000 C 
ATOM     21  N   UNL     1       0.379  12.375  20.298  0.00  0.00    +0.000 N 
ATOM     22  C   UNL     1       0.380  11.728  18.985  0.00  0.00    +0.000 C 
ATOM     23  C   UNL     1      -0.492  10.473  19.022  0.00  0.00    +0.000 C 
ATOM     24  C   UNL     1      -0.049   9.497  20.133  0.00  0.00    +0.000 C 
ATOM     25  C   UNL     1      -0.021  10.255  21.479  0.00  0.00    +0.000 C 
ATOM     26  C   UNL     1       0.821  11.533  21.405  0.00  0.00    +0.000 C 
BRANCH  20  27
ATOM     27  C   UNL     1      -0.576  14.534  19.400  0.00  0.00    +0.000 C 
BRANCH  27  28
ATOM     28  N   UNL     1       0.262  15.731  19.160  0.00  0.00    +0.000 NA
ATOM     29  C   UNL     1       1.601  15.381  18.666  0.00  0.00    +0.000 C 
ATOM     30  C   UNL     1       2.459  16.638  18.494  0.00  0.00    +0.000 C 
ATOM     31  C   UNL     1       1.780  17.658  17.587  0.00  0.00    +0.000 C 
ATOM     32  C   UNL     1       0.369  17.946  18.080  0.00  0.00    +0.000 C 
ATOM     33  C   UNL     1      -0.423  16.649  18.241  0.00  0.00    +0.000 C 
ENDBRANCH  27  28
ENDBRANCH  20  27
ENDBRANCH  18  24
ENDBRANCH   1  18
TORSDOF 4
ENDMDL
MODEL 2
REMARK VINA RESULT:      -8.2      2.376      2.979
REMARK  Name = 
REMARK  4 active torsions:
REMARK  status: ('A' for Active; 'I' for Inactive)
REMARK    1  A    between atoms: C_2  and  C_3
REMARK    2  A    between atoms: C_3  and  N_4
REMARK    3  A    between atoms: C_13  and  C_14
REMARK    4  A    between atoms: C_14  and  N_15
REMARK                            x       y       z     vdW  Elec       q    Type
REMARK                         _______ _______ _______ _____ _____    ______ ____
ROOT
ATOM      1  N   UNL     1       1.707   7.162  21.120  0.00  0.00    +0.000 N 
ATOM      2  C   UNL     1       2.375   6.182  20.466  0.00  0.00    +0.000 A 
ATOM      3  N   UNL     1       3.220   6.369  19.472  0.00  0.00    +0.000 NA
ATOM      4  C   UNL     1       3.636   5.153  18.965  0.00  0.00    +0.000 A 
ATOM      5  C   UNL     1       3.119   4.051  19.602  0.00  0.00    +0.000 A 
ATOM      6  S   UNL     1       2.097   4.533  20.881  0.00  0.00    +0.000 S 
ATOM      7  C   UNL     1       3.326   2.636  19.214  0.00  0.00    +0.000 C 
ATOM      8  C   UNL     1       2.828   2.483  17.780  0.00  0.00    +0.000 C 
ATOM      9  O   UNL     1       3.688   2.972  16.751  0.00  0.00    +0.000 OA
ATOM     10  C   UNL     1       4.569   4.001  16.913  0.00  0.00    +0.000 A 
ATOM     11  C   UNL     1       5.574   3.959  15.930  0.00  0.00    +0.000 A 
ATOM     12  C   UNL     1       6.617   4.880  15.921  0.00  0.00    +0.000 A 
ATOM     13  C   UNL     1       6.641   5.881  16.877  0.00  0.00    +0.000 A 
ATOM     14  F   UNL     1       7.653   6.755  16.890  0.00  0.00    +0.000 F 
ATOM     15  C   UNL     1       5.635   5.975  17.834  0.00  0.00    +0.000 A 
ATOM     16  C   UNL     1       4.591   5.033  17.875  0.00  0.00    +0.000 A 
ATOM     17  H   UNL     1       0.937   6.818  21.681  0.00  0.00    +0.000 HD
ENDROOT
BRANCH   1  18
ATOM     18  C   UNL     1       1.431   8.373  20.363  0.00  0.00    +0.000 C 
BRANCH  18  24
ATOM     19  O   UNL     1      -1.204  12.415  23.530  0.00  0.00    +0.000 OA
ATOM     20  C   UNL     1      -0.890  12.426  22.336  0.00  0.00    +0.000 C 
ATOM     21  N   UNL     1      -0.177  11.381  21.758  0.00  0.00    +0.000 N 
ATOM     22  C   UNL     1       0.240  11.309  20.357  0.00  0.00    +0.000 C 
ATOM     23  C   UNL     1      -0.387  10.087  19.688  0.00  0.00    +0.000 C 
ATOM     24  C   UNL     1      -0.053   8.783  20.444  0.00  0.00    +0.000 C 
ATOM     25  C   UNL     1      -0.469   8.945  21.923  0.00  0.00    +0.000 C 
ATOM     26  C   UNL     1       0.134  10.201  22.559  0.00  0.00    +0.000 C 
BRANCH  20  27
ATOM     27  C   UNL     1      -1.254  13.648  21.479  0.00  0.00    +0.000 C 
BRANCH  27  28
ATOM     28  N   UNL     1      -2.706  13.943  21.472  0.00  0.00    +0.000 NA
ATOM     29  C   UNL     1      -2.982  15.358  21.194  0.00  0.00    +0.000 C 
ATOM     30  C   UNL     1      -4.487  15.638  21.261  0.00  0.00    +0.000 C 
ATOM     31  C   UNL     1      -5.267  14.724  20.323  0.00  0.00    +0.000 C 
ATOM     32  C   UNL     1      -4.905  13.268  20.583  0.00  0.00    +0.000 C 
ATOM     33  C   UNL     1      -3.392  13.067  20.513  0.00  0.00    +0.000 C 
ENDBRANCH  27  28
ENDBRANCH  20  27
ENDBRANCH  18  24
ENDBRANCH   1  18
TORSDOF 4
ENDMDL
MODEL 3
REMARK VINA RESULT:      -8.2      2.414      3.509
REMARK  Name = 
REMARK  4 active torsions:
REMARK  status: ('A' for Active; 'I' for Inactive)
REMARK    1  A    between atoms: C_2  and  C_3
REMARK    2  A    between atoms: C_3  and  N_4
REMARK    3  A    between atoms: C_13  and  C_14
REMARK    4  A    between atoms: C_14  and  N_15
REMARK                            x       y       z     vdW  Elec       q    Type
REMARK                         _______ _______ _______ _____ _____    ______ ____
ROOT
ATOM      1  N   UNL     1       2.281   9.038  17.915  0.00  0.00    +0.000 N 
ATOM      2  C   UNL     1       2.853   7.816  17.789  0.00  0.00    +0.000 A 
ATOM      3  N   UNL     1       2.377   6.697  18.295  0.00  0.00    +0.000 NA
ATOM      4  C   UNL     1       3.262   5.658  18.073  0.00  0.00    +0.000 A 
ATOM      5  C   UNL     1       4.393   6.001  17.372  0.00  0.00    +0.000 A 
ATOM      6  S   UNL     1       4.355   7.657  16.961  0.00  0.00    +0.000 S 
ATOM      7  C   UNL     1       5.540   5.113  17.071  0.00  0.00    +0.000 C 
ATOM      8  C   UNL     1       6.087   4.612  18.404  0.00  0.00    +0.000 C 
ATOM      9  O   UNL     1       5.350   3.571  19.045  0.00  0.00    +0.000 OA
ATOM     10  C   UNL     1       4.005   3.386  18.905  0.00  0.00    +0.000 A 
ATOM     11  C   UNL     1       3.642   2.071  19.246  0.00  0.00    +0.000 A 
ATOM     12  C   UNL     1       2.327   1.630  19.134  0.00  0.00    +0.000 A 
ATOM     13  C   UNL     1       1.352   2.520  18.716  0.00  0.00    +0.000 A 
ATOM     14  F   UNL     1       0.090   2.097  18.582  0.00  0.00    +0.000 F 
ATOM     15  C   UNL     1       1.673   3.840  18.416  0.00  0.00    +0.000 A 
ATOM     16  C   UNL     1       3.004   4.292  18.494  0.00  0.00    +0.000 A 
ATOM     17  H   UNL     1       2.902   9.799  17.672  0.00  0.00    +0.000 HD
ENDROOT
BRANCH   1  18
ATOM     18  C   UNL     1       1.473   9.253  19.106  0.00  0.00    +0.000 C 
BRANCH  18  24
ATOM     19  O   UNL     1      -1.058  12.974  22.721  0.00  0.00    +0.000 OA
ATOM     20  C   UNL     1      -0.194  13.170  21.860  0.00  0.00    +0.000 C 
ATOM     21  N   UNL     1       0.364  12.124  21.133  0.00  0.00    +0.000 N 
ATOM     22  C   UNL     1       1.390  12.260  20.099  0.00  0.00    +0.000 C 
ATOM     23  C   UNL     1       0.859  11.743  18.763  0.00  0.00    +0.000 C 
ATOM     24  C   UNL     1       0.355  10.288  18.869  0.00  0.00    +0.000 C 
ATOM     25  C   UNL     1      -0.684  10.203  20.010  0.00  0.00    +0.000 C 
ATOM     26  C   UNL     1      -0.145  10.769  21.327  0.00  0.00    +0.000 C 
BRANCH  20  27
ATOM     27  C   UNL     1       0.312  14.600  21.623  0.00  0.00    +0.000 C 
BRANCH  27  28
ATOM     28  N   UNL     1      -0.446  15.320  20.573  0.00  0.00    +0.000 NA
ATOM     29  C   UNL     1      -1.270  16.402  21.128  0.00  0.00    +0.000 C 
ATOM     30  C   UNL     1      -2.089  17.078  20.024  0.00  0.00    +0.000 C 
ATOM     31  C   UNL     1      -1.197  17.582  18.896  0.00  0.00    +0.000 C 
ATOM     32  C   UNL     1      -0.301  16.459  18.390  0.00  0.00    +0.000 C 
ATOM     33  C   UNL     1       0.474  15.824  19.544  0.00  0.00    +0.000 C 
ENDBRANCH  27  28
ENDBRANCH  20  27
ENDBRANCH  18  24
ENDBRANCH   1  18
TORSDOF 4
ENDMDL
MODEL 4
REMARK VINA RESULT:      -8.1      3.009      4.176
REMARK  Name = 
REMARK  4 active torsions:
REMARK  status: ('A' for Active; 'I' for Inactive)
REMARK    1  A    between atoms: C_2  and  C_3
REMARK    2  A    between atoms: C_3  and  N_4
REMARK    3  A    between atoms: C_13  and  C_14
REMARK    4  A    between atoms: C_14  and  N_15
REMARK                            x       y       z     vdW  Elec       q    Type
REMARK                         _______ _______ _______ _____ _____    ______ ____
ROOT
ATOM      1  N   UNL     1       1.425   6.627  21.253  0.00  0.00    +0.000 N 
ATOM      2  C   UNL     1       2.253   5.771  20.606  0.00  0.00    +0.000 A 
ATOM      3  N   UNL     1       3.061   6.095  19.618  0.00  0.00    +0.000 NA
ATOM      4  C   UNL     1       3.679   4.964  19.118  0.00  0.00    +0.000 A 
ATOM      5  C   UNL     1       3.348   3.793  19.755  0.00  0.00    +0.000 A 
ATOM      6  S   UNL     1       2.251   4.101  21.025  0.00  0.00    +0.000 S 
ATOM      7  C   UNL     1       3.792   2.432  19.373  0.00  0.00    +0.000 C 
ATOM      8  C   UNL     1       3.337   2.195  17.937  0.00  0.00    +0.000 C 
ATOM      9  O   UNL     1       4.110   2.818  16.912  0.00  0.00    +0.000 OA
ATOM     10  C   UNL     1       4.806   3.980  17.076  0.00  0.00    +0.000 A 
ATOM     11  C   UNL     1       5.811   4.105  16.100  0.00  0.00    +0.000 A 
ATOM     12  C   UNL     1       6.686   5.187  16.095  0.00  0.00    +0.000 A 
ATOM     13  C   UNL     1       6.534   6.180  17.049  0.00  0.00    +0.000 A 
ATOM     14  F   UNL     1       7.386   7.211  17.065  0.00  0.00    +0.000 F 
ATOM     15  C   UNL     1       5.520   6.107  17.998  0.00  0.00    +0.000 A 
ATOM     16  C   UNL     1       4.648   5.003  18.035  0.00  0.00    +0.000 A 
ATOM     17  H   UNL     1       0.719   6.161  21.809  0.00  0.00    +0.000 HD
ENDROOT
BRANCH   1  18
ATOM     18  C   UNL     1       0.956   7.774  20.489  0.00  0.00    +0.000 C 
BRANCH  18  24
ATOM     19  O   UNL     1      -1.586  12.951  20.727  0.00  0.00    +0.000 OA
ATOM     20  C   UNL     1      -1.459  12.090  21.604  0.00  0.00    +0.000 C 
ATOM     21  N   UNL     1      -0.882  10.853  21.336  0.00  0.00    +0.000 N 
ATOM     22  C   UNL     1      -0.694   9.776  22.309  0.00  0.00    +0.000 C 
ATOM     23  C   UNL     1       0.794   9.455  22.450  0.00  0.00    +0.000 C 
ATOM     24  C   UNL     1       1.439   9.109  21.091  0.00  0.00    +0.000 C 
ATOM     25  C   UNL     1       1.158  10.260  20.099  0.00  0.00    +0.000 C 
ATOM     26  C   UNL     1      -0.333  10.594  20.008  0.00  0.00    +0.000 C 
BRANCH  20  27
ATOM     27  C   UNL     1      -1.996  12.377  23.014  0.00  0.00    +0.000 C 
BRANCH  27  28
ATOM     28  N   UNL     1      -3.467  12.233  23.118  0.00  0.00    +0.000 NA
ATOM     29  C   UNL     1      -3.957  12.514  24.474  0.00  0.00    +0.000 C 
ATOM     30  C   UNL     1      -5.471  12.290  24.558  0.00  0.00    +0.000 C 
ATOM     31  C   UNL     1      -6.216  13.113  23.515  0.00  0.00    +0.000 C 
ATOM     32  C   UNL     1      -5.639  12.858  22.129  0.00  0.00    +0.000 C 
ATOM     33  C   UNL     1      -4.128  13.088  22.123  0.00  0.00    +0.000 C 
ENDBRANCH  27  28
ENDBRANCH  20  27
ENDBRANCH  18  24
ENDBRANCH   1  18
TORSDOF 4
ENDMDL
MODEL 5
REMARK VINA RESULT:      -8.1      3.251     10.126
REMARK  Name = 
REMARK  4 active torsions:
REMARK  status: ('A' for Active; 'I' for Inactive)
REMARK    1  A    between atoms: C_2  and  C_3
REMARK    2  A    between atoms: C_3  and  N_4
REMARK    3  A    between atoms: C_13  and  C_14
REMARK    4  A    between atoms: C_14  and  N_15
REMARK                            x       y       z     vdW  Elec       q    Type
REMARK                         _______ _______ _______ _____ _____    ______ ____
ROOT
ATOM      1  N   UNL     1      -0.529  12.971  19.310  0.00  0.00    +0.000 N 
ATOM      2  C   UNL     1       0.294  14.026  19.095  0.00  0.00    +0.000 A 
ATOM      3  N   UNL     1       1.611  13.975  19.090  0.00  0.00    +0.000 NA
ATOM      4  C   UNL     1       2.136  15.246  18.950  0.00  0.00    +0.000 A 
ATOM      5  C   UNL     1       1.204  16.248  18.825  0.00  0.00    +0.000 A 
ATOM      6  S   UNL     1      -0.373  15.597  18.863  0.00  0.00    +0.000 S 
ATOM      7  C   UNL     1       1.483  17.701  18.749  0.00  0.00    +0.000 C 
ATOM      8  C   UNL     1       2.244  18.081  20.015  0.00  0.00    +0.000 C 
ATOM      9  O   UNL     1       3.629  17.739  20.054  0.00  0.00    +0.000 OA
ATOM     10  C   UNL     1       4.175  16.679  19.390  0.00  0.00    +0.000 A 
ATOM     11  C   UNL     1       5.562  16.851  19.227  0.00  0.00    +0.000 A 
ATOM     12  C   UNL     1       6.331  15.921  18.533  0.00  0.00    +0.000 A 
ATOM     13  C   UNL     1       5.720  14.786  18.028  0.00  0.00    +0.000 A 
ATOM     14  F   UNL     1       6.448  13.900  17.339  0.00  0.00    +0.000 F 
ATOM     15  C   UNL     1       4.359  14.567  18.213  0.00  0.00    +0.000 A 
ATOM     16  C   UNL     1       3.563  15.512  18.885  0.00  0.00    +0.000 A 
ATOM     17  H   UNL     1      -1.483  13.240  19.513  0.00  0.00    +0.000 HD
ENDROOT
BRANCH   1  18
ATOM     18  C   UNL     1       0.001  11.895  20.135  0.00  0.00    +0.000 C 
BRANCH  18  24
ATOM     19  O   UNL     1       2.586   7.289  17.807  0.00  0.00    +0.000 OA
ATOM     20  C   UNL     1       2.235   7.494  18.973  0.00  0.00    +0.000 C 
ATOM     21  N   UNL     1       1.695   8.713  19.370  0.00  0.00    +0.000 N 
ATOM     22  C   UNL     1       1.255   9.046  20.725  0.00  0.00    +0.000 C 
ATOM     23  C   UNL     1      -0.234   9.386  20.722  0.00  0.00    +0.000 C 
ATOM     24  C   UNL     1      -0.564  10.520  19.727  0.00  0.00    +0.000 C 
ATOM     25  C   UNL     1      -0.027  10.128  18.332  0.00  0.00    +0.000 C 
ATOM     26  C   UNL     1       1.456   9.748  18.368  0.00  0.00    +0.000 C 
BRANCH  20  27
ATOM     27  C   UNL     1       2.445   6.391  20.021  0.00  0.00    +0.000 C 
BRANCH  27  28
ATOM     28  N   UNL     1       2.194   5.030  19.493  0.00  0.00    +0.000 NA
ATOM     29  C   UNL     1       3.425   4.233  19.408  0.00  0.00    +0.000 C 
ATOM     30  C   UNL     1       3.137   2.858  18.797  0.00  0.00    +0.000 C 
ATOM     31  C   UNL     1       2.048   2.121  19.568  0.00  0.00    +0.000 C 
ATOM     32  C   UNL     1       0.811   2.999  19.705  0.00  0.00    +0.000 C 
ATOM     33  C   UNL     1       1.175   4.355  20.308  0.00  0.00    +0.000 C 
ENDBRANCH  27  28
ENDBRANCH  20  27
ENDBRANCH  18  24
ENDBRANCH   1  18
TORSDOF 4
ENDMDL
MODEL 6
REMARK VINA RESULT:      -8.1      3.344      4.710
REMARK  Name = 
REMARK  4 active torsions:
REMARK  status: ('A' for Active; 'I' for Inactive)
REMARK    1  A    between atoms: C_2  and  C_3
REMARK    2  A    between atoms: C_3  and  N_4
REMARK    3  A    between atoms: C_13  and  C_14
REMARK    4  A    between atoms: C_14  and  N_15
REMARK                            x       y       z     vdW  Elec       q    Type
REMARK                         _______ _______ _______ _____ _____    ______ ____
ROOT
ATOM      1  N   UNL     1       1.941   9.150  17.875  0.00  0.00    +0.000 N 
ATOM      2  C   UNL     1       2.597   7.965  17.829  0.00  0.00    +0.000 A 
ATOM      3  N   UNL     1       2.146   6.826  18.313  0.00  0.00    +0.000 NA
ATOM      4  C   UNL     1       3.111   5.844  18.196  0.00  0.00    +0.000 A 
ATOM      5  C   UNL     1       4.279   6.247  17.596  0.00  0.00    +0.000 A 
ATOM      6  S   UNL     1       4.176   7.890  17.146  0.00  0.00    +0.000 S 
ATOM      7  C   UNL     1       5.502   5.429  17.421  0.00  0.00    +0.000 C 
ATOM      8  C   UNL     1       5.952   4.986  18.810  0.00  0.00    +0.000 C 
ATOM      9  O   UNL     1       5.225   3.910  19.402  0.00  0.00    +0.000 OA
ATOM     10  C   UNL     1       3.913   3.637  19.143  0.00  0.00    +0.000 A 
ATOM     11  C   UNL     1       3.603   2.307  19.478  0.00  0.00    +0.000 A 
ATOM     12  C   UNL     1       2.334   1.781  19.254  0.00  0.00    +0.000 A 
ATOM     13  C   UNL     1       1.349   2.599  18.728  0.00  0.00    +0.000 A 
ATOM     14  F   UNL     1       0.133   2.095  18.488  0.00  0.00    +0.000 F 
ATOM     15  C   UNL     1       1.614   3.932  18.431  0.00  0.00    +0.000 A 
ATOM     16  C   UNL     1       2.900   4.470  18.621  0.00  0.00    +0.000 A 
ATOM     17  H   UNL     1       2.533   9.946  17.673  0.00  0.00    +0.000 HD
ENDROOT
BRANCH   1  18
ATOM     18  C   UNL     1       1.012   9.332  18.981  0.00  0.00    +0.000 C 
BRANCH  18  24
ATOM     19  O   UNL     1      -2.929  13.291  20.432  0.00  0.00    +0.000 OA
ATOM     20  C   UNL     1      -2.327  12.477  21.140  0.00  0.00    +0.000 C 
ATOM     21  N   UNL     1      -1.463  11.533  20.595  0.00  0.00    +0.000 N 
ATOM     22  C   UNL     1      -0.712  10.531  21.353  0.00  0.00    +0.000 C 
ATOM     23  C   UNL     1       0.788  10.735  21.144  0.00  0.00    +0.000 C 
ATOM     24  C   UNL     1       1.168  10.713  19.648  0.00  0.00    +0.000 C 
ATOM     25  C   UNL     1       0.304  11.753  18.900  0.00  0.00    +0.000 C 
ATOM     26  C   UNL     1      -1.192  11.557  19.161  0.00  0.00    +0.000 C 
BRANCH  20  27
ATOM     27  C   UNL     1      -2.577  12.477  22.655  0.00  0.00    +0.000 C 
BRANCH  27  28
ATOM     28  N   UNL     1      -2.503  13.828  23.258  0.00  0.00    +0.000 NA
ATOM     29  C   UNL     1      -3.350  13.950  24.452  0.00  0.00    +0.000 C 
ATOM     30  C   UNL     1      -3.299  15.377  25.008  0.00  0.00    +0.000 C 
ATOM     31  C   UNL     1      -1.867  15.814  25.294  0.00  0.00    +0.000 C 
ATOM     32  C   UNL     1      -0.996  15.607  24.063  0.00  0.00    +0.000 C 
ATOM     33  C   UNL     1      -1.106  14.169  23.558  0.00  0.00    +0.000 C 
ENDBRANCH  27  28
ENDBRANCH  20  27
ENDBRANCH  18  24
ENDBRANCH   1  18
TORSDOF 4
ENDMDL
MODEL 7
REMARK VINA RESULT:      -8.1      3.591      5.197
REMARK  Name = 
REMARK  4 active torsions:
REMARK  status: ('A' for Active; 'I' for Inactive)
REMARK    1  A    between atoms: C_2  and  C_3
REMARK    2  A    between atoms: C_3  and  N_4
REMARK    3  A    between atoms: C_13  and  C_14
REMARK    4  A    between atoms: C_14  and  N_15
REMARK                            x       y       z     vdW  Elec       q    Type
REMARK                         _______ _______ _______ _____ _____    ______ ____
ROOT
ATOM      1  N   UNL     1       1.285   9.671  19.308  0.00  0.00    +0.000 N 
ATOM      2  C   UNL     1       1.896   8.498  19.011  0.00  0.00    +0.000 A 
ATOM      3  N   UNL     1       1.871   7.416  19.762  0.00  0.00    +0.000 NA
ATOM      4  C   UNL     1       2.685   6.440  19.219  0.00  0.00    +0.000 A 
ATOM      5  C   UNL     1       3.300   6.788  18.040  0.00  0.00    +0.000 A 
ATOM      6  S   UNL     1       2.844   8.367  17.580  0.00  0.00    +0.000 S 
ATOM      7  C   UNL     1       4.285   5.973  17.292  0.00  0.00    +0.000 C 
ATOM      8  C   UNL     1       5.453   5.698  18.234  0.00  0.00    +0.000 C 
ATOM      9  O   UNL     1       5.252   4.688  19.222  0.00  0.00    +0.000 OA
ATOM     10  C   UNL     1       4.037   4.369  19.755  0.00  0.00    +0.000 A 
ATOM     11  C   UNL     1       4.061   3.081  20.321  0.00  0.00    +0.000 A 
ATOM     12  C   UNL     1       2.920   2.516  20.883  0.00  0.00    +0.000 A 
ATOM     13  C   UNL     1       1.750   3.254  20.919  0.00  0.00    +0.000 A 
ATOM     14  F   UNL     1       0.643   2.708  21.435  0.00  0.00    +0.000 F 
ATOM     15  C   UNL     1       1.708   4.548  20.408  0.00  0.00    +0.000 A 
ATOM     16  C   UNL     1       2.844   5.122  19.809  0.00  0.00    +0.000 A 
ATOM     17  H   UNL     1       1.609  10.447  18.743  0.00  0.00    +0.000 HD
ENDROOT
BRANCH   1  18
ATOM     18  C   UNL     1       1.103   9.966  20.722  0.00  0.00    +0.000 C 
BRANCH  18  24
ATOM     19  O   UNL     1      -2.774  13.655  22.883  0.00  0.00    +0.000 OA
ATOM     20  C   UNL     1      -2.676  13.187  21.744  0.00  0.00    +0.000 C 
ATOM     21  N   UNL     1      -1.614  12.366  21.380  0.00  0.00    +0.000 N 
ATOM     22  C   UNL     1      -1.415  11.771  20.058  0.00  0.00    +0.000 C 
ATOM     23  C   UNL     1      -1.408  10.247  20.168  0.00  0.00    +0.000 C 
ATOM     24  C   UNL     1      -0.353   9.747  21.177  0.00  0.00    +0.000 C 
ATOM     25  C   UNL     1      -0.587  10.451  22.532  0.00  0.00    +0.000 C 
ATOM     26  C   UNL     1      -0.635  11.976  22.391  0.00  0.00    +0.000 C 
BRANCH  20  27
ATOM     27  C   UNL     1      -3.729  13.561  20.690  0.00  0.00    +0.000 C 
BRANCH  27  28
ATOM     28  N   UNL     1      -4.802  12.549  20.554  0.00  0.00    +0.000 NA
ATOM     29  C   UNL     1      -6.039  12.959  21.232  0.00  0.00    +0.000 C 
ATOM     30  C   UNL     1      -7.102  11.860  21.126  0.00  0.00    +0.000 C 
ATOM     31  C   UNL     1      -7.364  11.473  19.676  0.00  0.00    +0.000 C 
ATOM     32  C   UNL     1      -6.056  11.126  18.977  0.00  0.00    +0.000 C 
ATOM     33  C   UNL     1      -5.042  12.258  19.134  0.00  0.00    +0.000 C 
ENDBRANCH  27  28
ENDBRANCH  20  27
ENDBRANCH  18  24
ENDBRANCH   1  18
TORSDOF 4
ENDMDL
MODEL 8
REMARK VINA RESULT:      -8.1      3.009      3.527
REMARK  Name = 
REMARK  4 active torsions:
REMARK  status: ('A' for Active; 'I' for Inactive)
REMARK    1  A    between atoms: C_2  and  C_3
REMARK    2  A    between atoms: C_3  and  N_4
REMARK    3  A    between atoms: C_13  and  C_14
REMARK    4  A    between atoms: C_14  and  N_15
REMARK                            x       y       z     vdW  Elec       q    Type
REMARK                         _______ _______ _______ _____ _____    ______ ____
ROOT
ATOM      1  N   UNL     1       1.484   7.201  21.219  0.00  0.00    +0.000 N 
ATOM      2  C   UNL     1       2.116   6.212  20.541  0.00  0.00    +0.000 A 
ATOM      3  N   UNL     1       3.246   6.346  19.878  0.00  0.00    +0.000 NA
ATOM      4  C   UNL     1       3.551   5.172  19.214  0.00  0.00    +0.000 A 
ATOM      5  C   UNL     1       2.654   4.148  19.406  0.00  0.00    +0.000 A 
ATOM      6  S   UNL     1       1.403   4.646  20.454  0.00  0.00    +0.000 S 
ATOM      7  C   UNL     1       2.689   2.819  18.752  0.00  0.00    +0.000 C 
ATOM      8  C   UNL     1       2.640   3.056  17.245  0.00  0.00    +0.000 C 
ATOM      9  O   UNL     1       3.855   3.478  16.626  0.00  0.00    +0.000 OA
ATOM     10  C   UNL     1       4.827   4.197  17.258  0.00  0.00    +0.000 A 
ATOM     11  C   UNL     1       6.059   4.069  16.591  0.00  0.00    +0.000 A 
ATOM     12  C   UNL     1       7.213   4.673  17.079  0.00  0.00    +0.000 A 
ATOM     13  C   UNL     1       7.136   5.449  18.223  0.00  0.00    +0.000 A 
ATOM     14  F   UNL     1       8.246   6.013  18.712  0.00  0.00    +0.000 F 
ATOM     15  C   UNL     1       5.922   5.632  18.878  0.00  0.00    +0.000 A 
ATOM     16  C   UNL     1       4.753   5.001  18.415  0.00  0.00    +0.000 A 
ATOM     17  H   UNL     1       0.526   6.977  21.458  0.00  0.00    +0.000 HD
ENDROOT
BRANCH   1  18
ATOM     18  C   UNL     1       1.701   8.557  20.735  0.00  0.00    +0.000 C 
BRANCH  18  24
ATOM     19  O   UNL     1      -2.384  11.413  23.645  0.00  0.00    +0.000 OA
ATOM     20  C   UNL     1      -1.474  11.844  22.930  0.00  0.00    +0.000 C 
ATOM     21  N   UNL     1      -0.522  10.999  22.370  0.00  0.00    +0.000 N 
ATOM     22  C   UNL     1       0.589  11.419  21.514  0.00  0.00    +0.000 C 
ATOM     23  C   UNL     1       0.472  10.755  20.143  0.00  0.00    +0.000 C 
ATOM     24  C   UNL     1       0.395   9.217  20.253  0.00  0.00    +0.000 C 
ATOM     25  C   UNL     1      -0.761   8.844  21.209  0.00  0.00    +0.000 C 
ATOM     26  C   UNL     1      -0.648   9.557  22.560  0.00  0.00    +0.000 C 
BRANCH  20  27
ATOM     27  C   UNL     1      -1.365  13.357  22.692  0.00  0.00    +0.000 C 
BRANCH  27  28
ATOM     28  N   UNL     1      -1.946  14.163  23.790  0.00  0.00    +0.000 NA
ATOM     29  C   UNL     1      -1.013  15.186  24.281  0.00  0.00    +0.000 C 
ATOM     30  C   UNL     1      -1.623  15.953  25.459  0.00  0.00    +0.000 C 
ATOM     31  C   UNL     1      -2.971  16.562  25.091  0.00  0.00    +0.000 C 
ATOM     32  C   UNL     1      -3.892  15.494  24.515  0.00  0.00    +0.000 C 
ATOM     33  C   UNL     1      -3.215  14.763  23.357  0.00  0.00    +0.000 C 
ENDBRANCH  27  28
ENDBRANCH  20  27
ENDBRANCH  18  24
ENDBRANCH   1  18
TORSDOF 4
ENDMDL
MODEL 9
REMARK VINA RESULT:      -8.0      2.558      3.565
REMARK  Name = 
REMARK  4 active torsions:
REMARK  status: ('A' for Active; 'I' for Inactive)
REMARK    1  A    between atoms: C_2  and  C_3
REMARK    2  A    between atoms: C_3  and  N_4
REMARK    3  A    between atoms: C_13  and  C_14
REMARK    4  A    between atoms: C_14  and  N_15
REMARK                            x       y       z     vdW  Elec       q    Type
REMARK                         _______ _______ _______ _____ _____    ______ ____
ROOT
ATOM      1  N   UNL     1       1.401   7.149  21.172  0.00  0.00    +0.000 N 
ATOM      2  C   UNL     1       2.051   6.160  20.512  0.00  0.00    +0.000 A 
ATOM      3  N   UNL     1       3.187   6.299  19.859  0.00  0.00    +0.000 NA
ATOM      4  C   UNL     1       3.512   5.122  19.212  0.00  0.00    +0.000 A 
ATOM      5  C   UNL     1       2.625   4.090  19.405  0.00  0.00    +0.000 A 
ATOM      6  S   UNL     1       1.357   4.586  20.434  0.00  0.00    +0.000 S 
ATOM      7  C   UNL     1       2.681   2.755  18.766  0.00  0.00    +0.000 C 
ATOM      8  C   UNL     1       2.646   2.975  17.257  0.00  0.00    +0.000 C 
ATOM      9  O   UNL     1       3.862   3.403  16.646  0.00  0.00    +0.000 OA
ATOM     10  C   UNL     1       4.820   4.140  17.280  0.00  0.00    +0.000 A 
ATOM     11  C   UNL     1       6.060   4.019  16.627  0.00  0.00    +0.000 A 
ATOM     12  C   UNL     1       7.202   4.642  17.121  0.00  0.00    +0.000 A 
ATOM     13  C   UNL     1       7.104   5.429  18.255  0.00  0.00    +0.000 A 
ATOM     14  F   UNL     1       8.202   6.011  18.750  0.00  0.00    +0.000 F 
ATOM     15  C   UNL     1       5.881   5.605  18.896  0.00  0.00    +0.000 A 
ATOM     16  C   UNL     1       4.724   4.956  18.428  0.00  0.00    +0.000 A 
ATOM     17  H   UNL     1       0.443   6.917  21.404  0.00  0.00    +0.000 HD
ENDROOT
BRANCH   1  18
ATOM     18  C   UNL     1       1.609   8.502  20.676  0.00  0.00    +0.000 C 
BRANCH  18  24
ATOM     19  O   UNL     1      -0.617  13.390  18.563  0.00  0.00    +0.000 OA
ATOM     20  C   UNL     1      -1.123  12.268  18.661  0.00  0.00    +0.000 C 
ATOM     21  N   UNL     1      -0.396  11.177  19.126  0.00  0.00    +0.000 N 
ATOM     22  C   UNL     1      -0.911   9.815  19.273  0.00  0.00    +0.000 C 
ATOM     23  C   UNL     1      -0.825   9.379  20.735  0.00  0.00    +0.000 C 
ATOM     24  C   UNL     1       0.610   9.504  21.289  0.00  0.00    +0.000 C 
ATOM     25  C   UNL     1       1.110  10.947  21.056  0.00  0.00    +0.000 C 
ATOM     26  C   UNL     1       0.973  11.377  19.592  0.00  0.00    +0.000 C 
BRANCH  20  27
ATOM     27  C   UNL     1      -2.577  12.063  18.212  0.00  0.00    +0.000 C 
BRANCH  27  28
ATOM     28  N   UNL     1      -3.529  11.971  19.344  0.00  0.00    +0.000 NA
ATOM     29  C   UNL     1      -3.246  12.965  20.388  0.00  0.00    +0.000 C 
ATOM     30  C   UNL     1      -4.207  12.795  21.570  0.00  0.00    +0.000 C 
ATOM     31  C   UNL     1      -5.661  12.859  21.120  0.00  0.00    +0.000 C 
ATOM     32  C   UNL     1      -5.908  11.871  19.987  0.00  0.00    +0.000 C 
ATOM     33  C   UNL     1      -4.908  12.091  18.853  0.00  0.00    +0.000 C 
ENDBRANCH  27  28
ENDBRANCH  20  27
ENDBRANCH  18  24
ENDBRANCH   1  18
TORSDOF 4
ENDMDL
