MODEL 1
REMARK VINA RESULT:      -7.6      0.000      0.000
REMARK  Name = 
REMARK  11 active torsions:
REMARK  status: ('A' for Active; 'I' for Inactive)
REMARK    1  A    between atoms: C_1  and  C_2
REMARK    2  A    between atoms: C_2  and  O_4
REMARK    3  A    between atoms: O_4  and  C_5
REMARK    4  A    between atoms: C_5  and  C_6
REMARK    5  A    between atoms: C_8  and  N_9
REMARK    6  A    between atoms: N_9  and  S_10
REMARK    7  A    between atoms: S_10  and  N_13
REMARK    8  A    between atoms: N_13  and  O_14
REMARK    9  A    between atoms: C_17  and  O_18
REMARK   10  A    between atoms: O_18  and  C_19
REMARK   11  A    between atoms: C_19  and  C_20
REMARK                            x       y       z     vdW  Elec       q    Type
REMARK                         _______ _______ _______ _____ _____    ______ ____
ROOT
ATOM      1  C   UNL     1       4.405   3.307  17.614  0.00  0.00    +0.000 C 
ATOM      2  O   UNL     1       5.284   3.733  18.673  0.00  0.00    +0.000 OA
ATOM      3  C   UNL     1       5.198   5.096  19.067  0.00  0.00    +0.000 C 
ATOM      4  C   UNL     1       3.795   5.643  18.989  0.00  0.00    +0.000 C 
ATOM      5  C   UNL     1       2.746   4.928  18.550  0.00  0.00    +0.000 C 
ATOM      6  C   UNL     1       2.925   3.547  17.991  0.00  0.00    +0.000 C 
ENDROOT
BRANCH   3   7
ATOM      7  N   UNL     1       6.078   5.923  18.233  0.00  0.00    +0.000 NA
ATOM      8  H   UNL     1       5.819   6.903  18.357  0.00  0.00    +0.000 HD
BRANCH   7   9
ATOM      9  S   UNL     1       7.694   5.816  18.713  0.00  0.00    +0.000 S 
ATOM     10  O   UNL     1       8.249   4.626  18.115  0.00  0.00    +0.000 OA
ATOM     11  O   UNL     1       8.319   7.108  18.640  0.00  0.00    +0.000 OA
BRANCH   9  12
ATOM     12  N   UNL     1       7.411   5.471  20.357  0.00  0.00    +0.000 NA
ATOM     13  H   UNL     1       6.723   4.715  20.419  0.00  0.00    +0.000 HD
BRANCH  12  14
ATOM     14  O   UNL     1       8.665   5.054  20.967  0.00  0.00    +0.000 OA
ATOM     15  H   UNL     1       8.707   5.519  21.829  0.00  0.00    +0.000 HD
ENDBRANCH  12  14
ENDBRANCH   9  12
ENDBRANCH   7   9
ENDBRANCH   3   7
BRANCH   1  16
ATOM     16  C   UNL     1       4.790   3.932  16.258  0.00  0.00    +0.000 C 
BRANCH  16  17
ATOM     17  O   UNL     1       6.202   3.796  16.021  0.00  0.00    +0.000 OA
BRANCH  17  19
ATOM     18  C   UNL     1       5.949   3.938  13.696  0.00  0.00    +0.000 C 
ATOM     19  C   UNL     1       6.690   4.413  14.908  0.00  0.00    +0.000 C 
ATOM     20  O   UNL     1       7.561   5.269  14.891  0.00  0.00    +0.000 OA
ENDBRANCH  17  19
ENDBRANCH  16  17
ENDBRANCH   1  16
BRANCH   6  21
ATOM     21  O   UNL     1       2.514   2.625  19.025  0.00  0.00    +0.000 OA
BRANCH  21  22
ATOM     22  C   UNL     1       1.186   2.611  19.318  0.00  0.00    +0.000 C 
ATOM     23  C   UNL     1       0.944   2.972  20.754  0.00  0.00    +0.000 C 
ATOM     24  O   UNL     1       0.285   2.382  18.523  0.00  0.00    +0.000 OA
ENDBRANCH  21  22
ENDBRANCH   6  21
TORSDOF 9
ENDMDL
MODEL 2
REMARK VINA RESULT:      -7.1      1.348      1.714
REMARK  Name = 
REMARK  11 active torsions:
REMARK  status: ('A' for Active; 'I' for Inactive)
REMARK    1  A    between atoms: C_1  and  C_2
REMARK    2  A    between atoms: C_2  and  O_4
REMARK    3  A    between atoms: O_4  and  C_5
REMARK    4  A    between atoms: C_5  and  C_6
REMARK    5  A    between atoms: C_8  and  N_9
REMARK    6  A    between atoms: N_9  and  S_10
REMARK    7  A    between atoms: S_10  and  N_13
REMARK    8  A    between atoms: N_13  and  O_14
REMARK    9  A    between atoms: C_17  and  O_18
REMARK   10  A    between atoms: O_18  and  C_19
REMARK   11  A    between atoms: C_19  and  C_20
REMARK                            x       y       z     vdW  Elec       q    Type
REMARK                         _______ _______ _______ _____ _____    ______ ____
ROOT
ATOM      1  C   UNL     1       4.515   3.749  17.082  0.00  0.00    +0.000 C 
ATOM      2  O   UNL     1       5.248   4.492  18.076  0.00  0.00    +0.000 OA
ATOM      3  C   UNL     1       4.828   5.828  18.315  0.00  0.00    +0.000 C 
ATOM      4  C   UNL     1       3.336   6.006  18.194  0.00  0.00    +0.000 C 
ATOM      5  C   UNL     1       2.498   5.014  17.850  0.00  0.00    +0.000 C 
ATOM      6  C   UNL     1       3.015   3.664  17.448  0.00  0.00    +0.000 C 
ENDROOT
BRANCH   3   7
ATOM      7  N   UNL     1       5.495   6.745  17.383  0.00  0.00    +0.000 NA
ATOM      8  H   UNL     1       5.132   7.688  17.537  0.00  0.00    +0.000 HD
BRANCH   7   9
ATOM      9  S   UNL     1       7.156   6.845  17.667  0.00  0.00    +0.000 S 
ATOM     10  O   UNL     1       7.592   8.155  17.248  0.00  0.00    +0.000 OA
ATOM     11  O   UNL     1       7.474   6.274  18.947  0.00  0.00    +0.000 OA
BRANCH   9  12
ATOM     12  N   UNL     1       7.651   5.740  16.470  0.00  0.00    +0.000 NA
ATOM     13  H   UNL     1       8.514   6.086  16.041  0.00  0.00    +0.000 HD
BRANCH  12  14
ATOM     14  O   UNL     1       7.888   4.449  17.099  0.00  0.00    +0.000 OA
ATOM     15  H   UNL     1       7.804   4.605  18.064  0.00  0.00    +0.000 HD
ENDBRANCH  12  14
ENDBRANCH   9  12
ENDBRANCH   7   9
ENDBRANCH   3   7
BRANCH   1  16
ATOM     16  C   UNL     1       4.758   4.293  15.660  0.00  0.00    +0.000 C 
BRANCH  16  17
ATOM     17  O   UNL     1       5.880   3.631  15.050  0.00  0.00    +0.000 OA
BRANCH  17  19
ATOM     18  C   UNL     1       5.838   3.357  12.724  0.00  0.00    +0.000 C 
ATOM     19  C   UNL     1       6.336   4.166  13.883  0.00  0.00    +0.000 C 
ATOM     20  O   UNL     1       7.002   5.184  13.776  0.00  0.00    +0.000 OA
ENDBRANCH  17  19
ENDBRANCH  16  17
ENDBRANCH   1  16
BRANCH   6  21
ATOM     21  O   UNL     1       2.824   2.792  18.584  0.00  0.00    +0.000 OA
BRANCH  21  22
ATOM     22  C   UNL     1       1.538   2.613  18.989  0.00  0.00    +0.000 C 
ATOM     23  C   UNL     1       1.411   2.772  20.476  0.00  0.00    +0.000 C 
ATOM     24  O   UNL     1       0.585   2.396  18.254  0.00  0.00    +0.000 OA
ENDBRANCH  21  22
ENDBRANCH   6  21
TORSDOF 9
ENDMDL
MODEL 3
REMARK VINA RESULT:      -6.9      2.180      3.541
REMARK  Name = 
REMARK  11 active torsions:
REMARK  status: ('A' for Active; 'I' for Inactive)
REMARK    1  A    between atoms: C_1  and  C_2
REMARK    2  A    between atoms: C_2  and  O_4
REMARK    3  A    between atoms: O_4  and  C_5
REMARK    4  A    between atoms: C_5  and  C_6
REMARK    5  A    between atoms: C_8  and  N_9
REMARK    6  A    between atoms: N_9  and  S_10
REMARK    7  A    between atoms: S_10  and  N_13
REMARK    8  A    between atoms: N_13  and  O_14
REMARK    9  A    between atoms: C_17  and  O_18
REMARK   10  A    between atoms: O_18  and  C_19
REMARK   11  A    between atoms: C_19  and  C_20
REMARK                            x       y       z     vdW  Elec       q    Type
REMARK                         _______ _______ _______ _____ _____    ______ ____
ROOT
ATOM      1  C   UNL     1       4.041   5.019  18.945  0.00  0.00    +0.000 C 
ATOM      2  O   UNL     1       3.829   5.080  17.522  0.00  0.00    +0.000 OA
ATOM      3  C   UNL     1       4.190   3.929  16.770  0.00  0.00    +0.000 C 
ATOM      4  C   UNL     1       3.940   2.641  17.511  0.00  0.00    +0.000 C 
ATOM      5  C   UNL     1       3.468   2.590  18.768  0.00  0.00    +0.000 C 
ATOM      6  C   UNL     1       3.260   3.839  19.572  0.00  0.00    +0.000 C 
ENDROOT
BRANCH   3   7
ATOM      7  N   UNL     1       5.606   3.994  16.391  0.00  0.00    +0.000 NA
ATOM      8  H   UNL     1       5.915   3.058  16.124  0.00  0.00    +0.000 HD
BRANCH   7   9
ATOM      9  S   UNL     1       5.857   4.961  15.029  0.00  0.00    +0.000 S 
ATOM     10  O   UNL     1       5.588   4.152  13.865  0.00  0.00    +0.000 OA
ATOM     11  O   UNL     1       5.292   6.266  15.238  0.00  0.00    +0.000 OA
BRANCH   9  12
ATOM     12  N   UNL     1       7.549   5.100  15.168  0.00  0.00    +0.000 NA
ATOM     13  H   UNL     1       7.794   6.094  15.204  0.00  0.00    +0.000 HD
BRANCH  12  14
ATOM     14  O   UNL     1       7.970   4.437  16.393  0.00  0.00    +0.000 OA
ATOM     15  H   UNL     1       7.924   5.122  17.093  0.00  0.00    +0.000 HD
ENDBRANCH  12  14
ENDBRANCH   9  12
ENDBRANCH   7   9
ENDBRANCH   3   7
BRANCH   1  16
ATOM     16  C   UNL     1       5.540   5.007  19.305  0.00  0.00    +0.000 C 
BRANCH  16  17
ATOM     17  O   UNL     1       6.251   5.995  18.540  0.00  0.00    +0.000 OA
BRANCH  17  19
ATOM     18  C   UNL     1       8.083   7.432  18.272  0.00  0.00    +0.000 C 
ATOM     19  C   UNL     1       7.580   6.127  18.810  0.00  0.00    +0.000 C 
ATOM     20  O   UNL     1       8.262   5.336  19.444  0.00  0.00    +0.000 OA
ENDBRANCH  17  19
ENDBRANCH  16  17
ENDBRANCH   1  16
BRANCH   6  21
ATOM     21  O   UNL     1       1.841   4.111  19.555  0.00  0.00    +0.000 OA
BRANCH  21  22
ATOM     22  C   UNL     1       1.035   3.101  19.980  0.00  0.00    +0.000 C 
ATOM     23  C   UNL     1       1.273   2.791  21.429  0.00  0.00    +0.000 C 
ATOM     24  O   UNL     1       0.189   2.535  19.303  0.00  0.00    +0.000 OA
ENDBRANCH  21  22
ENDBRANCH   6  21
TORSDOF 9
ENDMDL
MODEL 4
REMARK VINA RESULT:      -6.8      2.713      5.502
REMARK  Name = 
REMARK  11 active torsions:
REMARK  status: ('A' for Active; 'I' for Inactive)
REMARK    1  A    between atoms: C_1  and  C_2
REMARK    2  A    between atoms: C_2  and  O_4
REMARK    3  A    between atoms: O_4  and  C_5
REMARK    4  A    between atoms: C_5  and  C_6
REMARK    5  A    between atoms: C_8  and  N_9
REMARK    6  A    between atoms: N_9  and  S_10
REMARK    7  A    between atoms: S_10  and  N_13
REMARK    8  A    between atoms: N_13  and  O_14
REMARK    9  A    between atoms: C_17  and  O_18
REMARK   10  A    between atoms: O_18  and  C_19
REMARK   11  A    between atoms: C_19  and  C_20
REMARK                            x       y       z     vdW  Elec       q    Type
REMARK                         _______ _______ _______ _____ _____    ______ ____
ROOT
ATOM      1  C   UNL     1       4.931   4.762  17.771  0.00  0.00    +0.000 C 
ATOM      2  O   UNL     1       3.630   4.192  17.530  0.00  0.00    +0.000 OA
ATOM      3  C   UNL     1       2.513   4.908  18.038  0.00  0.00    +0.000 C 
ATOM      4  C   UNL     1       2.698   6.402  17.983  0.00  0.00    +0.000 C 
ATOM      5  C   UNL     1       3.822   6.993  17.542  0.00  0.00    +0.000 C 
ATOM      6  C   UNL     1       5.031   6.186  17.173  0.00  0.00    +0.000 C 
ENDROOT
BRANCH   3   7
ATOM      7  N   UNL     1       2.243   4.512  19.425  0.00  0.00    +0.000 NA
ATOM      8  H   UNL     1       1.566   5.164  19.824  0.00  0.00    +0.000 HD
BRANCH   7   9
ATOM      9  S   UNL     1       1.518   2.989  19.523  0.00  0.00    +0.000 S 
ATOM     10  O   UNL     1       0.991   2.842  20.858  0.00  0.00    +0.000 OA
ATOM     11  O   UNL     1       0.755   2.727  18.333  0.00  0.00    +0.000 OA
BRANCH   9  12
ATOM     12  N   UNL     1       2.945   2.062  19.437  0.00  0.00    +0.000 NA
ATOM     13  H   UNL     1       2.934   1.374  20.196  0.00  0.00    +0.000 HD
BRANCH  12  14
ATOM     14  O   UNL     1       2.983   1.385  18.150  0.00  0.00    +0.000 OA
ATOM     15  H   UNL     1       3.784   1.723  17.697  0.00  0.00    +0.000 HD
ENDBRANCH  12  14
ENDBRANCH   9  12
ENDBRANCH   7   9
ENDBRANCH   3   7
BRANCH   1  16
ATOM     16  C   UNL     1       5.318   4.707  19.262  0.00  0.00    +0.000 C 
BRANCH  16  17
ATOM     17  O   UNL     1       6.340   5.675  19.556  0.00  0.00    +0.000 OA
BRANCH  17  19
ATOM     18  C   UNL     1       8.096   6.888  18.588  0.00  0.00    +0.000 C 
ATOM     19  C   UNL     1       7.516   5.538  18.881  0.00  0.00    +0.000 C 
ATOM     20  O   UNL     1       8.058   4.480  18.601  0.00  0.00    +0.000 OA
ENDBRANCH  17  19
ENDBRANCH  16  17
ENDBRANCH   1  16
BRANCH   6  21
ATOM     21  O   UNL     1       5.063   6.123  15.730  0.00  0.00    +0.000 OA
BRANCH  21  22
ATOM     22  C   UNL     1       6.086   5.410  15.186  0.00  0.00    +0.000 C 
ATOM     23  C   UNL     1       5.570   4.307  14.309  0.00  0.00    +0.000 C 
ATOM     24  O   UNL     1       7.276   5.645  15.339  0.00  0.00    +0.000 OA
ENDBRANCH  21  22
ENDBRANCH   6  21
TORSDOF 9
ENDMDL
MODEL 5
REMARK VINA RESULT:      -6.8      2.090      3.685
REMARK  Name = 
REMARK  11 active torsions:
REMARK  status: ('A' for Active; 'I' for Inactive)
REMARK    1  A    between atoms: C_1  and  C_2
REMARK    2  A    between atoms: C_2  and  O_4
REMARK    3  A    between atoms: O_4  and  C_5
REMARK    4  A    between atoms: C_5  and  C_6
REMARK    5  A    between atoms: C_8  and  N_9
REMARK    6  A    between atoms: N_9  and  S_10
REMARK    7  A    between atoms: S_10  and  N_13
REMARK    8  A    between atoms: N_13  and  O_14
REMARK    9  A    between atoms: C_17  and  O_18
REMARK   10  A    between atoms: O_18  and  C_19
REMARK   11  A    between atoms: C_19  and  C_20
REMARK                            x       y       z     vdW  Elec       q    Type
REMARK                         _______ _______ _______ _____ _____    ______ ____
ROOT
ATOM      1  C   UNL     1       4.036   4.938  18.960  0.00  0.00    +0.000 C 
ATOM      2  O   UNL     1       3.966   4.937  17.521  0.00  0.00    +0.000 OA
ATOM      3  C   UNL     1       4.434   3.770  16.858  0.00  0.00    +0.000 C 
ATOM      4  C   UNL     1       4.149   2.504  17.624  0.00  0.00    +0.000 C 
ATOM      5  C   UNL     1       3.555   2.487  18.829  0.00  0.00    +0.000 C 
ATOM      6  C   UNL     1       3.231   3.759  19.555  0.00  0.00    +0.000 C 
ENDROOT
BRANCH   3   7
ATOM      7  N   UNL     1       5.879   3.867  16.618  0.00  0.00    +0.000 NA
ATOM      8  H   UNL     1       6.242   2.931  16.431  0.00  0.00    +0.000 HD
BRANCH   7   9
ATOM      9  S   UNL     1       6.236   4.778  15.241  0.00  0.00    +0.000 S 
ATOM     10  O   UNL     1       7.672   4.826  15.111  0.00  0.00    +0.000 OA
ATOM     11  O   UNL     1       5.352   4.417  14.167  0.00  0.00    +0.000 OA
BRANCH   9  12
ATOM     12  N   UNL     1       5.731   6.290  15.842  0.00  0.00    +0.000 NA
ATOM     13  H   UNL     1       6.556   6.809  16.157  0.00  0.00    +0.000 HD
BRANCH  12  14
ATOM     14  O   UNL     1       5.064   7.015  14.772  0.00  0.00    +0.000 OA
ATOM     15  H   UNL     1       5.363   6.592  13.939  0.00  0.00    +0.000 HD
ENDBRANCH  12  14
ENDBRANCH   9  12
ENDBRANCH   7   9
ENDBRANCH   3   7
BRANCH   1  16
ATOM     16  C   UNL     1       5.491   4.991  19.466  0.00  0.00    +0.000 C 
BRANCH  16  17
ATOM     17  O   UNL     1       6.214   6.052  18.819  0.00  0.00    +0.000 OA
BRANCH  17  19
ATOM     18  C   UNL     1       8.237   7.210  18.580  0.00  0.00    +0.000 C 
ATOM     19  C   UNL     1       7.559   5.878  18.693  0.00  0.00    +0.000 C 
ATOM     20  O   UNL     1       8.146   4.807  18.724  0.00  0.00    +0.000 OA
ENDBRANCH  17  19
ENDBRANCH  16  17
ENDBRANCH   1  16
BRANCH   6  21
ATOM     21  O   UNL     1       1.813   3.982  19.387  0.00  0.00    +0.000 OA
BRANCH  21  22
ATOM     22  C   UNL     1       0.995   3.014  19.878  0.00  0.00    +0.000 C 
ATOM     23  C   UNL     1       1.204   2.824  21.353  0.00  0.00    +0.000 C 
ATOM     24  O   UNL     1       0.158   2.396  19.234  0.00  0.00    +0.000 OA
ENDBRANCH  21  22
ENDBRANCH   6  21
TORSDOF 9
ENDMDL
MODEL 6
REMARK VINA RESULT:      -6.8      2.521      5.670
REMARK  Name = 
REMARK  11 active torsions:
REMARK  status: ('A' for Active; 'I' for Inactive)
REMARK    1  A    between atoms: C_1  and  C_2
REMARK    2  A    between atoms: C_2  and  O_4
REMARK    3  A    between atoms: O_4  and  C_5
REMARK    4  A    between atoms: C_5  and  C_6
REMARK    5  A    between atoms: C_8  and  N_9
REMARK    6  A    between atoms: N_9  and  S_10
REMARK    7  A    between atoms: S_10  and  N_13
REMARK    8  A    between atoms: N_13  and  O_14
REMARK    9  A    between atoms: C_17  and  O_18
REMARK   10  A    between atoms: O_18  and  C_19
REMARK   11  A    between atoms: C_19  and  C_20
REMARK                            x       y       z     vdW  Elec       q    Type
REMARK                         _______ _______ _______ _____ _____    ______ ____
ROOT
ATOM      1  C   UNL     1       5.480   4.235  17.169  0.00  0.00    +0.000 C 
ATOM      2  O   UNL     1       4.159   3.662  17.129  0.00  0.00    +0.000 OA
ATOM      3  C   UNL     1       3.116   4.413  17.735  0.00  0.00    +0.000 C 
ATOM      4  C   UNL     1       3.294   5.901  17.574  0.00  0.00    +0.000 C 
ATOM      5  C   UNL     1       4.351   6.458  16.961  0.00  0.00    +0.000 C 
ATOM      6  C   UNL     1       5.504   5.622  16.486  0.00  0.00    +0.000 C 
ENDROOT
BRANCH   3   7
ATOM      7  N   UNL     1       3.026   4.096  19.165  0.00  0.00    +0.000 NA
ATOM      8  H   UNL     1       2.269   4.647  19.574  0.00  0.00    +0.000 HD
BRANCH   7   9
ATOM      9  S   UNL     1       2.609   2.481  19.433  0.00  0.00    +0.000 S 
ATOM     10  O   UNL     1       3.812   1.694  19.306  0.00  0.00    +0.000 OA
ATOM     11  O   UNL     1       1.708   2.381  20.548  0.00  0.00    +0.000 OA
BRANCH   9  12
ATOM     12  N   UNL     1       1.701   2.250  18.011  0.00  0.00    +0.000 NA
ATOM     13  H   UNL     1       2.021   1.392  17.553  0.00  0.00    +0.000 HD
BRANCH  12  14
ATOM     14  O   UNL     1       0.296   2.128  18.372  0.00  0.00    +0.000 OA
ATOM     15  H   UNL     1       0.210   1.254  18.810  0.00  0.00    +0.000 HD
ENDBRANCH  12  14
ENDBRANCH   9  12
ENDBRANCH   7   9
ENDBRANCH   3   7
BRANCH   1  16
ATOM     16  C   UNL     1       6.055   4.258  18.599  0.00  0.00    +0.000 C 
BRANCH  16  17
ATOM     17  O   UNL     1       7.458   4.573  18.576  0.00  0.00    +0.000 OA
BRANCH  17  19
ATOM     18  C   UNL     1       8.041   6.842  18.627  0.00  0.00    +0.000 C 
ATOM     19  C   UNL     1       7.868   5.573  19.405  0.00  0.00    +0.000 C 
ATOM     20  O   UNL     1       8.020   5.481  20.614  0.00  0.00    +0.000 OA
ENDBRANCH  17  19
ENDBRANCH  16  17
ENDBRANCH   1  16
BRANCH   6  21
ATOM     21  O   UNL     1       5.351   5.481  15.056  0.00  0.00    +0.000 OA
BRANCH  21  22
ATOM     22  C   UNL     1       6.414   4.954  14.392  0.00  0.00    +0.000 C 
ATOM     23  C   UNL     1       5.985   3.843  13.478  0.00  0.00    +0.000 C 
ATOM     24  O   UNL     1       7.570   5.345  14.476  0.00  0.00    +0.000 OA
ENDBRANCH  21  22
ENDBRANCH   6  21
TORSDOF 9
ENDMDL
MODEL 7
REMARK VINA RESULT:      -6.7      2.374      3.769
REMARK  Name = 
REMARK  11 active torsions:
REMARK  status: ('A' for Active; 'I' for Inactive)
REMARK    1  A    between atoms: C_1  and  C_2
REMARK    2  A    between atoms: C_2  and  O_4
REMARK    3  A    between atoms: O_4  and  C_5
REMARK    4  A    between atoms: C_5  and  C_6
REMARK    5  A    between atoms: C_8  and  N_9
REMARK    6  A    between atoms: N_9  and  S_10
REMARK    7  A    between atoms: S_10  and  N_13
REMARK    8  A    between atoms: N_13  and  O_14
REMARK    9  A    between atoms: C_17  and  O_18
REMARK   10  A    between atoms: O_18  and  C_19
REMARK   11  A    between atoms: C_19  and  C_20
REMARK                            x       y       z     vdW  Elec       q    Type
REMARK                         _______ _______ _______ _____ _____    ______ ____
ROOT
ATOM      1  C   UNL     1       4.224   4.394  19.014  0.00  0.00    +0.000 C 
ATOM      2  O   UNL     1       4.046   4.928  17.688  0.00  0.00    +0.000 OA
ATOM      3  C   UNL     1       4.214   4.023  16.605  0.00  0.00    +0.000 C 
ATOM      4  C   UNL     1       3.733   2.631  16.924  0.00  0.00    +0.000 C 
ATOM      5  C   UNL     1       3.241   2.274  18.122  0.00  0.00    +0.000 C 
ATOM      6  C   UNL     1       3.241   3.229  19.279  0.00  0.00    +0.000 C 
ENDROOT
BRANCH   3   7
ATOM      7  N   UNL     1       5.625   3.961  16.208  0.00  0.00    +0.000 NA
ATOM      8  H   UNL     1       5.848   2.999  15.946  0.00  0.00    +0.000 HD
BRANCH   7   9
ATOM      9  S   UNL     1       5.941   4.892  14.835  0.00  0.00    +0.000 S 
ATOM     10  O   UNL     1       5.727   4.053  13.681  0.00  0.00    +0.000 OA
ATOM     11  O   UNL     1       5.369   6.202  14.982  0.00  0.00    +0.000 OA
BRANCH   9  12
ATOM     12  N   UNL     1       7.625   5.035  15.050  0.00  0.00    +0.000 NA
ATOM     13  H   UNL     1       8.022   4.098  15.156  0.00  0.00    +0.000 HD
BRANCH  12  14
ATOM     14  O   UNL     1       8.189   5.687  13.877  0.00  0.00    +0.000 OA
ATOM     15  H   UNL     1       8.881   5.077  13.543  0.00  0.00    +0.000 HD
ENDBRANCH  12  14
ENDBRANCH   9  12
ENDBRANCH   7   9
ENDBRANCH   3   7
BRANCH   1  16
ATOM     16  C   UNL     1       5.693   4.018  19.293  0.00  0.00    +0.000 C 
BRANCH  16  17
ATOM     17  O   UNL     1       6.500   5.200  19.433  0.00  0.00    +0.000 OA
BRANCH  17  19
ATOM     18  C   UNL     1       7.791   6.820  18.339  0.00  0.00    +0.000 C 
ATOM     19  C   UNL     1       7.498   5.362  18.520  0.00  0.00    +0.000 C 
ATOM     20  O   UNL     1       8.112   4.462  17.967  0.00  0.00    +0.000 OA
ENDBRANCH  17  19
ENDBRANCH  16  17
ENDBRANCH   1  16
BRANCH   6  21
ATOM     21  O   UNL     1       1.891   3.728  19.404  0.00  0.00    +0.000 OA
BRANCH  21  22
ATOM     22  C   UNL     1       1.537   4.188  20.634  0.00  0.00    +0.000 C 
ATOM     23  C   UNL     1       1.591   3.092  21.658  0.00  0.00    +0.000 C 
ATOM     24  O   UNL     1       1.251   5.346  20.904  0.00  0.00    +0.000 OA
ENDBRANCH  21  22
ENDBRANCH   6  21
TORSDOF 9
ENDMDL
MODEL 8
REMARK VINA RESULT:      -6.7      2.675      5.544
REMARK  Name = 
REMARK  11 active torsions:
REMARK  status: ('A' for Active; 'I' for Inactive)
REMARK    1  A    between atoms: C_1  and  C_2
REMARK    2  A    between atoms: C_2  and  O_4
REMARK    3  A    between atoms: O_4  and  C_5
REMARK    4  A    between atoms: C_5  and  C_6
REMARK    5  A    between atoms: C_8  and  N_9
REMARK    6  A    between atoms: N_9  and  S_10
REMARK    7  A    between atoms: S_10  and  N_13
REMARK    8  A    between atoms: N_13  and  O_14
REMARK    9  A    between atoms: C_17  and  O_18
REMARK   10  A    between atoms: O_18  and  C_19
REMARK   11  A    between atoms: C_19  and  C_20
REMARK                            x       y       z     vdW  Elec       q    Type
REMARK                         _______ _______ _______ _____ _____    ______ ____
ROOT
ATOM      1  C   UNL     1       5.227   4.492  17.306  0.00  0.00    +0.000 C 
ATOM      2  O   UNL     1       3.862   4.043  17.196  0.00  0.00    +0.000 OA
ATOM      3  C   UNL     1       2.867   4.870  17.784  0.00  0.00    +0.000 C 
ATOM      4  C   UNL     1       3.185   6.339  17.677  0.00  0.00    +0.000 C 
ATOM      5  C   UNL     1       4.313   6.813  17.123  0.00  0.00    +0.000 C 
ATOM      6  C   UNL     1       5.404   5.889  16.668  0.00  0.00    +0.000 C 
ENDROOT
BRANCH   3   7
ATOM      7  N   UNL     1       2.689   4.523  19.200  0.00  0.00    +0.000 NA
ATOM      8  H   UNL     1       2.056   5.203  19.624  0.00  0.00    +0.000 HD
BRANCH   7   9
ATOM      9  S   UNL     1       1.942   3.021  19.398  0.00  0.00    +0.000 S 
ATOM     10  O   UNL     1       0.969   2.876  18.342  0.00  0.00    +0.000 OA
ATOM     11  O   UNL     1       2.921   2.020  19.719  0.00  0.00    +0.000 OA
BRANCH   9  12
ATOM     12  N   UNL     1       1.089   3.388  20.826  0.00  0.00    +0.000 NA
ATOM     13  H   UNL     1       0.317   2.723  20.926  0.00  0.00    +0.000 HD
BRANCH  12  14
ATOM     14  O   UNL     1       2.000   3.269  21.954  0.00  0.00    +0.000 OA
ATOM     15  H   UNL     1       1.462   3.465  22.750  0.00  0.00    +0.000 HD
ENDBRANCH  12  14
ENDBRANCH   9  12
ENDBRANCH   7   9
ENDBRANCH   3   7
BRANCH   1  16
ATOM     16  C   UNL     1       5.742   4.423  18.758  0.00  0.00    +0.000 C 
BRANCH  16  17
ATOM     17  O   UNL     1       7.178   4.478  18.788  0.00  0.00    +0.000 OA
BRANCH  17  19
ATOM     18  C   UNL     1       8.038   6.658  18.737  0.00  0.00    +0.000 C 
ATOM     19  C   UNL     1       7.730   5.450  19.568  0.00  0.00    +0.000 C 
ATOM     20  O   UNL     1       7.900   5.384  20.776  0.00  0.00    +0.000 OA
ENDBRANCH  17  19
ENDBRANCH  16  17
ENDBRANCH   1  16
BRANCH   6  21
ATOM     21  O   UNL     1       5.298   5.801  15.229  0.00  0.00    +0.000 OA
BRANCH  21  22
ATOM     22  C   UNL     1       6.272   5.087  14.602  0.00  0.00    +0.000 C 
ATOM     23  C   UNL     1       5.682   4.018  13.729  0.00  0.00    +0.000 C 
ATOM     24  O   UNL     1       7.473   5.298  14.686  0.00  0.00    +0.000 OA
ENDBRANCH  21  22
ENDBRANCH   6  21
TORSDOF 9
ENDMDL
MODEL 9
REMARK VINA RESULT:      -6.7      2.238      3.845
REMARK  Name = 
REMARK  11 active torsions:
REMARK  status: ('A' for Active; 'I' for Inactive)
REMARK    1  A    between atoms: C_1  and  C_2
REMARK    2  A    between atoms: C_2  and  O_4
REMARK    3  A    between atoms: O_4  and  C_5
REMARK    4  A    between atoms: C_5  and  C_6
REMARK    5  A    between atoms: C_8  and  N_9
REMARK    6  A    between atoms: N_9  and  S_10
REMARK    7  A    between atoms: S_10  and  N_13
REMARK    8  A    between atoms: N_13  and  O_14
REMARK    9  A    between atoms: C_17  and  O_18
REMARK   10  A    between atoms: O_18  and  C_19
REMARK   11  A    between atoms: C_19  and  C_20
REMARK                            x       y       z     vdW  Elec       q    Type
REMARK                         _______ _______ _______ _____ _____    ______ ____
ROOT
ATOM      1  C   UNL     1       4.397   4.829  18.811  0.00  0.00    +0.000 C 
ATOM      2  O   UNL     1       4.284   5.058  17.393  0.00  0.00    +0.000 OA
ATOM      3  C   UNL     1       4.510   3.941  16.544  0.00  0.00    +0.000 C 
ATOM      4  C   UNL     1       4.020   2.644  17.136  0.00  0.00    +0.000 C 
ATOM      5  C   UNL     1       3.470   2.551  18.358  0.00  0.00    +0.000 C 
ATOM      6  C   UNL     1       3.407   3.735  19.277  0.00  0.00    +0.000 C 
ENDROOT
BRANCH   3   7
ATOM      7  N   UNL     1       5.940   3.815  16.239  0.00  0.00    +0.000 NA
ATOM      8  H   UNL     1       6.138   2.842  15.999  0.00  0.00    +0.000 HD
BRANCH   7   9
ATOM      9  S   UNL     1       6.382   4.716  14.881  0.00  0.00    +0.000 S 
ATOM     10  O   UNL     1       7.726   5.197  15.095  0.00  0.00    +0.000 OA
ATOM     11  O   UNL     1       5.961   4.045  13.682  0.00  0.00    +0.000 OA
BRANCH   9  12
ATOM     12  N   UNL     1       5.328   6.029  15.137  0.00  0.00    +0.000 NA
ATOM     13  H   UNL     1       4.472   5.680  15.578  0.00  0.00    +0.000 HD
BRANCH  12  14
ATOM     14  O   UNL     1       5.985   6.988  16.012  0.00  0.00    +0.000 OA
ATOM     15  H   UNL     1       6.876   6.619  16.187  0.00  0.00    +0.000 HD
ENDBRANCH  12  14
ENDBRANCH   9  12
ENDBRANCH   7   9
ENDBRANCH   3   7
BRANCH   1  16
ATOM     16  C   UNL     1       5.851   4.546  19.236  0.00  0.00    +0.000 C 
BRANCH  16  17
ATOM     17  O   UNL     1       6.770   5.322  18.446  0.00  0.00    +0.000 OA
BRANCH  17  19
ATOM     18  C   UNL     1       8.161   7.201  18.590  0.00  0.00    +0.000 C 
ATOM     19  C   UNL     1       7.853   5.827  19.101  0.00  0.00    +0.000 C 
ATOM     20  O   UNL     1       8.457   5.279  20.010  0.00  0.00    +0.000 OA
ENDBRANCH  17  19
ENDBRANCH  16  17
ENDBRANCH   1  16
BRANCH   6  21
ATOM     21  O   UNL     1       2.051   4.230  19.223  0.00  0.00    +0.000 OA
BRANCH  21  22
ATOM     22  C   UNL     1       1.464   4.492  20.422  0.00  0.00    +0.000 C 
ATOM     23  C   UNL     1       1.250   3.231  21.208  0.00  0.00    +0.000 C 
ATOM     24  O   UNL     1       1.180   5.603  20.846  0.00  0.00    +0.000 OA
ENDBRANCH  21  22
ENDBRANCH   6  21
TORSDOF 9
ENDMDL
