MODEL 1
REMARK VINA RESULT:      -7.9      0.000      0.000
REMARK  Name = 
REMARK  6 active torsions:
REMARK  status: ('A' for Active; 'I' for Inactive)
REMARK    1  A    between atoms: C_1  and  C_2
REMARK    2  A    between atoms: C_5  and  C_6
REMARK    3  A    between atoms: C_6  and  N_7
REMARK    4  A    between atoms: N_7  and  C_8
REMARK    5  A    between atoms: N_7  and  C_9
REMARK    6  A    between atoms: C_11  and  C_12
REMARK                            x       y       z     vdW  Elec       q    Type
REMARK                         _______ _______ _______ _____ _____    ______ ____
ROOT
ATOM      1  N   UNL     1       3.966   3.380  17.670  0.00  0.00    +0.000 N 
ATOM      2  C   UNL     1       3.886   2.289  18.653  0.00  0.00    +0.000 C 
ENDROOT
BRANCH   1   3
ATOM      3  C   UNL     1       5.192   4.086  17.519  0.00  0.00    +0.000 A 
ATOM      4  C   UNL     1       5.868   4.514  18.603  0.00  0.00    +0.000 A 
ATOM      5  C   UNL     1       7.137   5.264  18.377  0.00  0.00    +0.000 A 
ATOM      6  C   UNL     1       7.861   5.767  19.602  0.00  0.00    +0.000 C 
ATOM      7  N   UNL     1       7.662   5.517  17.217  0.00  0.00    +0.000 NA
ATOM      8  C   UNL     1       6.984   5.054  16.128  0.00  0.00    +0.000 A 
ATOM      9  N   UNL     1       7.321   5.147  14.860  0.00  0.00    +0.000 NA
ATOM     10  C   UNL     1       6.312   4.506  14.222  0.00  0.00    +0.000 A 
ATOM     11  N   UNL     1       5.345   4.011  14.989  0.00  0.00    +0.000 NA
ATOM     12  N   UNL     1       5.765   4.358  16.243  0.00  0.00    +0.000 N 
ENDBRANCH   1   3
BRANCH   1  13
ATOM     13  C   UNL     1       2.716   4.163  17.498  0.00  0.00    +0.000 C 
BRANCH  13  18
ATOM     14  C   UNL     1       1.296   8.377  21.284  0.00  0.00    +0.000 C 
ATOM     15  C   UNL     1       1.751   7.296  20.347  0.00  0.00    +0.000 A 
ATOM     16  C   UNL     1       2.314   7.609  19.106  0.00  0.00    +0.000 A 
ATOM     17  C   UNL     1       2.667   6.595  18.208  0.00  0.00    +0.000 A 
ATOM     18  C   UNL     1       2.462   5.244  18.530  0.00  0.00    +0.000 A 
ATOM     19  C   UNL     1       1.935   4.932  19.792  0.00  0.00    +0.000 A 
ATOM     20  C   UNL     1       1.572   5.949  20.685  0.00  0.00    +0.000 A 
ENDBRANCH  13  18
ENDBRANCH   1  13
TORSDOF 3
ENDMDL
MODEL 2
REMARK VINA RESULT:      -7.8      1.018      2.482
REMARK  Name = 
REMARK  6 active torsions:
REMARK  status: ('A' for Active; 'I' for Inactive)
REMARK    1  A    between atoms: C_1  and  C_2
REMARK    2  A    between atoms: C_5  and  C_6
REMARK    3  A    between atoms: C_6  and  N_7
REMARK    4  A    between atoms: N_7  and  C_8
REMARK    5  A    between atoms: N_7  and  C_9
REMARK    6  A    between atoms: C_11  and  C_12
REMARK                            x       y       z     vdW  Elec       q    Type
REMARK                         _______ _______ _______ _____ _____    ______ ____
ROOT
ATOM      1  N   UNL     1       3.889   3.220  17.573  0.00  0.00    +0.000 N 
ATOM      2  C   UNL     1       4.009   2.321  18.731  0.00  0.00    +0.000 C 
ENDROOT
BRANCH   1   3
ATOM      3  C   UNL     1       5.052   3.882  17.089  0.00  0.00    +0.000 A 
ATOM      4  C   UNL     1       5.325   3.900  15.770  0.00  0.00    +0.000 A 
ATOM      5  C   UNL     1       6.568   4.594  15.329  0.00  0.00    +0.000 A 
ATOM      6  C   UNL     1       6.876   4.572  13.852  0.00  0.00    +0.000 C 
ATOM      7  N   UNL     1       7.401   5.210  16.111  0.00  0.00    +0.000 NA
ATOM      8  C   UNL     1       7.100   5.210  17.441  0.00  0.00    +0.000 A 
ATOM      9  N   UNL     1       7.756   5.789  18.424  0.00  0.00    +0.000 NA
ATOM     10  C   UNL     1       7.011   5.489  19.515  0.00  0.00    +0.000 A 
ATOM     11  N   UNL     1       5.922   4.753  19.306  0.00  0.00    +0.000 NA
ATOM     12  N   UNL     1       5.961   4.559  17.952  0.00  0.00    +0.000 N 
ENDBRANCH   1   3
BRANCH   1  13
ATOM     13  C   UNL     1       2.608   3.965  17.487  0.00  0.00    +0.000 C 
BRANCH  13  18
ATOM     14  C   UNL     1       1.429   8.309  21.209  0.00  0.00    +0.000 C 
ATOM     15  C   UNL     1       1.824   7.193  20.285  0.00  0.00    +0.000 A 
ATOM     16  C   UNL     1       2.358   7.459  19.022  0.00  0.00    +0.000 A 
ATOM     17  C   UNL     1       2.654   6.413  18.139  0.00  0.00    +0.000 A 
ATOM     18  C   UNL     1       2.418   5.077  18.500  0.00  0.00    +0.000 A 
ATOM     19  C   UNL     1       1.919   4.812  19.783  0.00  0.00    +0.000 A 
ATOM     20  C   UNL     1       1.614   5.860  20.662  0.00  0.00    +0.000 A 
ENDBRANCH  13  18
ENDBRANCH   1  13
TORSDOF 3
ENDMDL
MODEL 3
REMARK VINA RESULT:      -7.7      1.831      3.692
REMARK  Name = 
REMARK  6 active torsions:
REMARK  status: ('A' for Active; 'I' for Inactive)
REMARK    1  A    between atoms: C_1  and  C_2
REMARK    2  A    between atoms: C_5  and  C_6
REMARK    3  A    between atoms: C_6  and  N_7
REMARK    4  A    between atoms: N_7  and  C_8
REMARK    5  A    between atoms: N_7  and  C_9
REMARK    6  A    between atoms: C_11  and  C_12
REMARK                            x       y       z     vdW  Elec       q    Type
REMARK                         _______ _______ _______ _____ _____    ______ ____
ROOT
ATOM      1  N   UNL     1       3.739   6.293  17.729  0.00  0.00    +0.000 N 
ATOM      2  C   UNL     1       3.548   7.746  17.599  0.00  0.00    +0.000 C 
ENDROOT
BRANCH   1   3
ATOM      3  C   UNL     1       4.951   5.711  17.262  0.00  0.00    +0.000 A 
ATOM      4  C   UNL     1       5.096   5.393  15.962  0.00  0.00    +0.000 A 
ATOM      5  C   UNL     1       6.382   4.769  15.539  0.00  0.00    +0.000 A 
ATOM      6  C   UNL     1       6.511   4.386  14.085  0.00  0.00    +0.000 C 
ATOM      7  N   UNL     1       7.391   4.530  16.320  0.00  0.00    +0.000 NA
ATOM      8  C   UNL     1       7.244   4.882  17.629  0.00  0.00    +0.000 A 
ATOM      9  N   UNL     1       8.123   4.780  18.603  0.00  0.00    +0.000 NA
ATOM     10  C   UNL     1       7.466   5.291  19.671  0.00  0.00    +0.000 A 
ATOM     11  N   UNL     1       6.222   5.712  19.457  0.00  0.00    +0.000 NA
ATOM     12  N   UNL     1       6.057   5.454  18.124  0.00  0.00    +0.000 N 
ENDBRANCH   1   3
BRANCH   1  13
ATOM     13  C   UNL     1       2.505   5.481  17.582  0.00  0.00    +0.000 C 
BRANCH  13  18
ATOM     14  C   UNL     1       1.219   2.254  22.277  0.00  0.00    +0.000 C 
ATOM     15  C   UNL     1       1.462   3.124  21.078  0.00  0.00    +0.000 A 
ATOM     16  C   UNL     1       1.072   2.715  19.800  0.00  0.00    +0.000 A 
ATOM     17  C   UNL     1       1.369   3.501  18.680  0.00  0.00    +0.000 A 
ATOM     18  C   UNL     1       2.067   4.711  18.812  0.00  0.00    +0.000 A 
ATOM     19  C   UNL     1       2.422   5.138  20.100  0.00  0.00    +0.000 A 
ATOM     20  C   UNL     1       2.133   4.346  21.220  0.00  0.00    +0.000 A 
ENDBRANCH  13  18
ENDBRANCH   1  13
TORSDOF 3
ENDMDL
MODEL 4
REMARK VINA RESULT:      -7.7      0.174      1.091
REMARK  Name = 
REMARK  6 active torsions:
REMARK  status: ('A' for Active; 'I' for Inactive)
REMARK    1  A    between atoms: C_1  and  C_2
REMARK    2  A    between atoms: C_5  and  C_6
REMARK    3  A    between atoms: C_6  and  N_7
REMARK    4  A    between atoms: N_7  and  C_8
REMARK    5  A    between atoms: N_7  and  C_9
REMARK    6  A    between atoms: C_11  and  C_12
REMARK                            x       y       z     vdW  Elec       q    Type
REMARK                         _______ _______ _______ _____ _____    ______ ____
ROOT
ATOM      1  N   UNL     1       4.024   3.286  17.708  0.00  0.00    +0.000 N 
ATOM      2  C   UNL     1       3.942   2.300  18.796  0.00  0.00    +0.000 C 
ENDROOT
BRANCH   1   3
ATOM      3  C   UNL     1       5.224   4.032  17.540  0.00  0.00    +0.000 A 
ATOM      4  C   UNL     1       5.890   4.498  18.613  0.00  0.00    +0.000 A 
ATOM      5  C   UNL     1       7.130   5.289  18.370  0.00  0.00    +0.000 A 
ATOM      6  C   UNL     1       7.843   5.835  19.583  0.00  0.00    +0.000 C 
ATOM      7  N   UNL     1       7.641   5.543  17.203  0.00  0.00    +0.000 NA
ATOM      8  C   UNL     1       6.973   5.042  16.125  0.00  0.00    +0.000 A 
ATOM      9  N   UNL     1       7.300   5.127  14.853  0.00  0.00    +0.000 NA
ATOM     10  C   UNL     1       6.312   4.443  14.230  0.00  0.00    +0.000 A 
ATOM     11  N   UNL     1       5.366   3.925  15.010  0.00  0.00    +0.000 NA
ATOM     12  N   UNL     1       5.781   4.305  16.257  0.00  0.00    +0.000 N 
ENDBRANCH   1   3
BRANCH   1  13
ATOM     13  C   UNL     1       2.752   3.983  17.395  0.00  0.00    +0.000 C 
BRANCH  13  18
ATOM     14  C   UNL     1       1.608   8.164  21.310  0.00  0.00    +0.000 C 
ATOM     15  C   UNL     1       1.810   7.096  20.274  0.00  0.00    +0.000 A 
ATOM     16  C   UNL     1       1.550   5.754  20.565  0.00  0.00    +0.000 A 
ATOM     17  C   UNL     1       1.811   4.757  19.617  0.00  0.00    +0.000 A 
ATOM     18  C   UNL     1       2.342   5.080  18.359  0.00  0.00    +0.000 A 
ATOM     19  C   UNL     1       2.564   6.432  18.056  0.00  0.00    +0.000 A 
ATOM     20  C   UNL     1       2.311   7.427  19.010  0.00  0.00    +0.000 A 
ENDBRANCH  13  18
ENDBRANCH   1  13
TORSDOF 3
ENDMDL
MODEL 5
REMARK VINA RESULT:      -7.6      1.856      3.689
REMARK  Name = 
REMARK  6 active torsions:
REMARK  status: ('A' for Active; 'I' for Inactive)
REMARK    1  A    between atoms: C_1  and  C_2
REMARK    2  A    between atoms: C_5  and  C_6
REMARK    3  A    between atoms: C_6  and  N_7
REMARK    4  A    between atoms: N_7  and  C_8
REMARK    5  A    between atoms: N_7  and  C_9
REMARK    6  A    between atoms: C_11  and  C_12
REMARK                            x       y       z     vdW  Elec       q    Type
REMARK                         _______ _______ _______ _____ _____    ______ ____
ROOT
ATOM      1  N   UNL     1       3.749   6.271  17.747  0.00  0.00    +0.000 N 
ATOM      2  C   UNL     1       3.510   7.710  17.553  0.00  0.00    +0.000 C 
ENDROOT
BRANCH   1   3
ATOM      3  C   UNL     1       4.964   5.702  17.272  0.00  0.00    +0.000 A 
ATOM      4  C   UNL     1       5.108   5.397  15.968  0.00  0.00    +0.000 A 
ATOM      5  C   UNL     1       6.397   4.786  15.537  0.00  0.00    +0.000 A 
ATOM      6  C   UNL     1       6.527   4.417  14.080  0.00  0.00    +0.000 C 
ATOM      7  N   UNL     1       7.411   4.547  16.313  0.00  0.00    +0.000 NA
ATOM      8  C   UNL     1       7.264   4.887  17.626  0.00  0.00    +0.000 A 
ATOM      9  N   UNL     1       8.145   4.782  18.597  0.00  0.00    +0.000 NA
ATOM     10  C   UNL     1       7.487   5.279  19.671  0.00  0.00    +0.000 A 
ATOM     11  N   UNL     1       6.240   5.693  19.463  0.00  0.00    +0.000 NA
ATOM     12  N   UNL     1       6.073   5.445  18.128  0.00  0.00    +0.000 N 
ENDBRANCH   1   3
BRANCH   1  13
ATOM     13  C   UNL     1       2.537   5.418  17.676  0.00  0.00    +0.000 C 
BRANCH  13  18
ATOM     14  C   UNL     1       1.132   2.205  22.346  0.00  0.00    +0.000 C 
ATOM     15  C   UNL     1       1.581   2.989  21.147  0.00  0.00    +0.000 A 
ATOM     16  C   UNL     1       2.240   4.213  21.293  0.00  0.00    +0.000 A 
ATOM     17  C   UNL     1       2.588   4.972  20.170  0.00  0.00    +0.000 A 
ATOM     18  C   UNL     1       2.282   4.526  18.875  0.00  0.00    +0.000 A 
ATOM     19  C   UNL     1       1.657   3.279  18.731  0.00  0.00    +0.000 A 
ATOM     20  C   UNL     1       1.299   2.525  19.857  0.00  0.00    +0.000 A 
ENDBRANCH  13  18
ENDBRANCH   1  13
TORSDOF 3
ENDMDL
MODEL 6
REMARK VINA RESULT:      -7.5      0.990      2.721
REMARK  Name = 
REMARK  6 active torsions:
REMARK  status: ('A' for Active; 'I' for Inactive)
REMARK    1  A    between atoms: C_1  and  C_2
REMARK    2  A    between atoms: C_5  and  C_6
REMARK    3  A    between atoms: C_6  and  N_7
REMARK    4  A    between atoms: N_7  and  C_8
REMARK    5  A    between atoms: N_7  and  C_9
REMARK    6  A    between atoms: C_11  and  C_12
REMARK                            x       y       z     vdW  Elec       q    Type
REMARK                         _______ _______ _______ _____ _____    ______ ____
ROOT
ATOM      1  N   UNL     1       4.106   3.230  18.058  0.00  0.00    +0.000 N 
ATOM      2  C   UNL     1       4.353   2.738  19.421  0.00  0.00    +0.000 C 
ENDROOT
BRANCH   1   3
ATOM      3  C   UNL     1       5.166   3.861  17.348  0.00  0.00    +0.000 A 
ATOM      4  C   UNL     1       5.255   3.739  16.009  0.00  0.00    +0.000 A 
ATOM      5  C   UNL     1       6.399   4.408  15.327  0.00  0.00    +0.000 A 
ATOM      6  C   UNL     1       6.503   4.230  13.832  0.00  0.00    +0.000 C 
ATOM      7  N   UNL     1       7.307   5.126  15.915  0.00  0.00    +0.000 NA
ATOM      8  C   UNL     1       7.191   5.266  17.267  0.00  0.00    +0.000 A 
ATOM      9  N   UNL     1       7.952   5.965  18.081  0.00  0.00    +0.000 NA
ATOM     10  C   UNL     1       7.375   5.771  19.291  0.00  0.00    +0.000 A 
ATOM     11  N   UNL     1       6.297   4.991  19.316  0.00  0.00    +0.000 NA
ATOM     12  N   UNL     1       6.158   4.650  17.999  0.00  0.00    +0.000 N 
ENDBRANCH   1   3
BRANCH   1  13
ATOM     13  C   UNL     1       2.736   3.746  17.815  0.00  0.00    +0.000 C 
BRANCH  13  18
ATOM     14  C   UNL     1       1.546   8.303  21.269  0.00  0.00    +0.000 C 
ATOM     15  C   UNL     1       1.762   7.140  20.344  0.00  0.00    +0.000 A 
ATOM     16  C   UNL     1       1.406   5.843  20.724  0.00  0.00    +0.000 A 
ATOM     17  C   UNL     1       1.679   4.756  19.885  0.00  0.00    +0.000 A 
ATOM     18  C   UNL     1       2.319   4.941  18.649  0.00  0.00    +0.000 A 
ATOM     19  C   UNL     1       2.638   6.248  18.254  0.00  0.00    +0.000 A 
ATOM     20  C   UNL     1       2.373   7.335  19.099  0.00  0.00    +0.000 A 
ENDBRANCH  13  18
ENDBRANCH   1  13
TORSDOF 3
ENDMDL
MODEL 7
REMARK VINA RESULT:      -7.3      1.493      3.061
REMARK  Name = 
REMARK  6 active torsions:
REMARK  status: ('A' for Active; 'I' for Inactive)
REMARK    1  A    between atoms: C_1  and  C_2
REMARK    2  A    between atoms: C_5  and  C_6
REMARK    3  A    between atoms: C_6  and  N_7
REMARK    4  A    between atoms: N_7  and  C_8
REMARK    5  A    between atoms: N_7  and  C_9
REMARK    6  A    between atoms: C_11  and  C_12
REMARK                            x       y       z     vdW  Elec       q    Type
REMARK                         _______ _______ _______ _____ _____    ______ ____
ROOT
ATOM      1  N   UNL     1       3.523   4.281  18.409  0.00  0.00    +0.000 N 
ATOM      2  C   UNL     1       2.858   2.973  18.511  0.00  0.00    +0.000 C 
ENDROOT
BRANCH   1   3
ATOM      3  C   UNL     1       4.771   4.370  17.732  0.00  0.00    +0.000 A 
ATOM      4  C   UNL     1       4.847   4.120  16.410  0.00  0.00    +0.000 A 
ATOM      5  C   UNL     1       6.187   4.212  15.763  0.00  0.00    +0.000 A 
ATOM      6  C   UNL     1       6.259   3.892  14.290  0.00  0.00    +0.000 C 
ATOM      7  N   UNL     1       7.290   4.541  16.365  0.00  0.00    +0.000 NA
ATOM      8  C   UNL     1       7.196   4.820  17.697  0.00  0.00    +0.000 A 
ATOM      9  N   UNL     1       8.149   5.209  18.516  0.00  0.00    +0.000 NA
ATOM     10  C   UNL     1       7.503   5.360  19.697  0.00  0.00    +0.000 A 
ATOM     11  N   UNL     1       6.200   5.091  19.699  0.00  0.00    +0.000 NA
ATOM     12  N   UNL     1       5.978   4.735  18.397  0.00  0.00    +0.000 N 
ENDBRANCH   1   3
BRANCH   1  13
ATOM     13  C   UNL     1       3.328   5.177  19.576  0.00  0.00    +0.000 C 
BRANCH  13  18
ATOM     14  C   UNL     1       1.032  10.465  18.637  0.00  0.00    +0.000 C 
ATOM     15  C   UNL     1       1.535   9.068  18.857  0.00  0.00    +0.000 A 
ATOM     16  C   UNL     1       1.422   8.450  20.106  0.00  0.00    +0.000 A 
ATOM     17  C   UNL     1       1.960   7.176  20.321  0.00  0.00    +0.000 A 
ATOM     18  C   UNL     1       2.628   6.492  19.293  0.00  0.00    +0.000 A 
ATOM     19  C   UNL     1       2.705   7.098  18.031  0.00  0.00    +0.000 A 
ATOM     20  C   UNL     1       2.174   8.378  17.819  0.00  0.00    +0.000 A 
ENDBRANCH  13  18
ENDBRANCH   1  13
TORSDOF 3
ENDMDL
MODEL 8
REMARK VINA RESULT:      -7.2      1.429      2.890
REMARK  Name = 
REMARK  6 active torsions:
REMARK  status: ('A' for Active; 'I' for Inactive)
REMARK    1  A    between atoms: C_1  and  C_2
REMARK    2  A    between atoms: C_5  and  C_6
REMARK    3  A    between atoms: C_6  and  N_7
REMARK    4  A    between atoms: N_7  and  C_8
REMARK    5  A    between atoms: N_7  and  C_9
REMARK    6  A    between atoms: C_11  and  C_12
REMARK                            x       y       z     vdW  Elec       q    Type
REMARK                         _______ _______ _______ _____ _____    ______ ____
ROOT
ATOM      1  N   UNL     1       3.605   4.183  18.330  0.00  0.00    +0.000 N 
ATOM      2  C   UNL     1       2.997   2.846  18.399  0.00  0.00    +0.000 C 
ENDROOT
BRANCH   1   3
ATOM      3  C   UNL     1       4.830   4.349  17.624  0.00  0.00    +0.000 A 
ATOM      4  C   UNL     1       4.892   4.101  16.302  0.00  0.00    +0.000 A 
ATOM      5  C   UNL     1       6.208   4.275  15.625  0.00  0.00    +0.000 A 
ATOM      6  C   UNL     1       6.267   3.957  14.151  0.00  0.00    +0.000 C 
ATOM      7  N   UNL     1       7.301   4.676  16.200  0.00  0.00    +0.000 NA
ATOM      8  C   UNL     1       7.220   4.952  17.533  0.00  0.00    +0.000 A 
ATOM      9  N   UNL     1       8.164   5.403  18.330  0.00  0.00    +0.000 NA
ATOM     10  C   UNL     1       7.537   5.517  19.525  0.00  0.00    +0.000 A 
ATOM     11  N   UNL     1       6.254   5.165  19.557  0.00  0.00    +0.000 NA
ATOM     12  N   UNL     1       6.025   4.792  18.261  0.00  0.00    +0.000 N 
ENDBRANCH   1   3
BRANCH   1  13
ATOM     13  C   UNL     1       3.406   5.027  19.534  0.00  0.00    +0.000 C 
BRANCH  13  18
ATOM     14  C   UNL     1       0.945  10.197  18.384  0.00  0.00    +0.000 C 
ATOM     15  C   UNL     1       1.657   8.916  18.707  0.00  0.00    +0.000 A 
ATOM     16  C   UNL     1       2.452   8.274  17.753  0.00  0.00    +0.000 A 
ATOM     17  C   UNL     1       3.052   7.042  18.039  0.00  0.00    +0.000 A 
ATOM     18  C   UNL     1       2.869   6.423  19.285  0.00  0.00    +0.000 A 
ATOM     19  C   UNL     1       2.104   7.090  20.254  0.00  0.00    +0.000 A 
ATOM     20  C   UNL     1       1.495   8.318  19.963  0.00  0.00    +0.000 A 
ENDBRANCH  13  18
ENDBRANCH   1  13
TORSDOF 3
ENDMDL
MODEL 9
REMARK VINA RESULT:      -7.2      1.057      1.411
REMARK  Name = 
REMARK  6 active torsions:
REMARK  status: ('A' for Active; 'I' for Inactive)
REMARK    1  A    between atoms: C_1  and  C_2
REMARK    2  A    between atoms: C_5  and  C_6
REMARK    3  A    between atoms: C_6  and  N_7
REMARK    4  A    between atoms: N_7  and  C_8
REMARK    5  A    between atoms: N_7  and  C_9
REMARK    6  A    between atoms: C_11  and  C_12
REMARK                            x       y       z     vdW  Elec       q    Type
REMARK                         _______ _______ _______ _____ _____    ______ ____
ROOT
ATOM      1  N   UNL     1       3.667   4.248  18.195  0.00  0.00    +0.000 N 
ATOM      2  C   UNL     1       3.203   2.888  17.879  0.00  0.00    +0.000 C 
ENDROOT
BRANCH   1   3
ATOM      3  C   UNL     1       5.029   4.587  17.953  0.00  0.00    +0.000 A 
ATOM      4  C   UNL     1       5.834   4.935  18.975  0.00  0.00    +0.000 A 
ATOM      5  C   UNL     1       7.244   5.298  18.654  0.00  0.00    +0.000 A 
ATOM      6  C   UNL     1       8.121   5.721  19.806  0.00  0.00    +0.000 C 
ATOM      7  N   UNL     1       7.771   5.278  17.467  0.00  0.00    +0.000 NA
ATOM      8  C   UNL     1       6.954   4.897  16.444  0.00  0.00    +0.000 A 
ATOM      9  N   UNL     1       7.254   4.761  15.171  0.00  0.00    +0.000 NA
ATOM     10  C   UNL     1       6.090   4.343  14.619  0.00  0.00    +0.000 A 
ATOM     11  N   UNL     1       5.057   4.204  15.446  0.00  0.00    +0.000 NA
ATOM     12  N   UNL     1       5.603   4.561  16.649  0.00  0.00    +0.000 N 
ENDBRANCH   1   3
BRANCH   1  13
ATOM     13  C   UNL     1       3.019   4.875  19.373  0.00  0.00    +0.000 C 
BRANCH  13  18
ATOM     14  C   UNL     1       1.044  10.317  18.603  0.00  0.00    +0.000 C 
ATOM     15  C   UNL     1       1.638   8.956  18.822  0.00  0.00    +0.000 A 
ATOM     16  C   UNL     1       2.271   8.271  17.781  0.00  0.00    +0.000 A 
ATOM     17  C   UNL     1       2.757   6.972  17.976  0.00  0.00    +0.000 A 
ATOM     18  C   UNL     1       2.617   6.328  19.215  0.00  0.00    +0.000 A 
ATOM     19  C   UNL     1       2.018   7.034  20.268  0.00  0.00    +0.000 A 
ATOM     20  C   UNL     1       1.523   8.330  20.070  0.00  0.00    +0.000 A 
ENDBRANCH  13  18
ENDBRANCH   1  13
TORSDOF 3
ENDMDL
