MODEL 1
REMARK VINA RESULT:      -7.9      0.000      0.000
REMARK  Name = 
REMARK  9 active torsions:
REMARK  status: ('A' for Active; 'I' for Inactive)
REMARK    1  A    between atoms: C_1  and  O_2
REMARK    2  A    between atoms: O_2  and  C_3
REMARK    3  A    between atoms: C_6  and  C_7
REMARK    4  A    between atoms: C_7  and  N_8
REMARK    5  A    between atoms: C_7  and  C_17
REMARK    6  A    between atoms: C_11  and  C_12
REMARK    7  A    between atoms: C_26  and  O_27
REMARK    8  A    between atoms: C_29  and  O_30
REMARK    9  A    between atoms: O_30  and  C_31
REMARK                            x       y       z     vdW  Elec       q    Type
REMARK                         _______ _______ _______ _____ _____    ______ ____
ROOT
ATOM      1  C   UNL     1       0.572  10.520  19.276  0.00  0.00    +0.000 C 
ENDROOT
BRANCH   1   2
ATOM      2  N   UNL     1       1.376   9.617  18.426  0.00  0.00    +0.000 N 
ATOM      3  C   UNL     1       1.737   8.367  18.953  0.00  0.00    +0.000 A 
ATOM      4  C   UNL     1       2.337   7.451  18.084  0.00  0.00    +0.000 A 
ATOM      5  C   UNL     1       2.668   6.159  18.522  0.00  0.00    +0.000 A 
ATOM      6  C   UNL     1       3.188   5.145  17.545  0.00  0.00    +0.000 C 
ATOM      7  C   UNL     1       2.441   5.851  19.862  0.00  0.00    +0.000 A 
ATOM      8 CL   UNL     1       2.811   4.309  20.532  0.00  0.00    +0.000 Cl
ATOM      9  C   UNL     1       1.886   6.830  20.673  0.00  0.00    +0.000 A 
ATOM     10  N   UNL     1       1.529   8.067  20.245  0.00  0.00    +0.000 NA
ATOM     11  H   UNL     1       2.249  10.065  18.164  0.00  0.00    +0.000 HD
ENDBRANCH   1   2
BRANCH   1  12
ATOM     12  C   UNL     1       1.327  11.855  19.443  0.00  0.00    +0.000 A 
ATOM     13  C   UNL     1       1.895  12.515  18.331  0.00  0.00    +0.000 A 
ATOM     14  C   UNL     1       2.343  13.832  18.435  0.00  0.00    +0.000 A 
ATOM     15  C   UNL     1       2.249  14.515  19.653  0.00  0.00    +0.000 A 
ATOM     16  C   UNL     1       2.593  15.868  19.760  0.00  0.00    +0.000 A 
ATOM     17  C   UNL     1       2.482  16.510  20.985  0.00  0.00    +0.000 A 
ATOM     18  C   UNL     1       2.049  15.771  22.071  0.00  0.00    +0.000 A 
ATOM     19  N   UNL     1       1.684  14.471  22.004  0.00  0.00    +0.000 NA
ATOM     20  C   UNL     1       1.766  13.858  20.803  0.00  0.00    +0.000 A 
ATOM     21  C   UNL     1       1.314  12.546  20.663  0.00  0.00    +0.000 A 
BRANCH  21  22
ATOM     22  O   UNL     1       0.774  11.935  21.777  0.00  0.00    +0.000 OA
ATOM     23  H   UNL     1       1.396  12.162  22.504  0.00  0.00    +0.000 HD
ENDBRANCH  21  22
ENDBRANCH   1  12
BRANCH   1  27
ATOM     24  C   UNL     1      -3.418  11.094  17.509  0.00  0.00    +0.000 A 
ATOM     25  C   UNL     1      -3.052  11.752  18.687  0.00  0.00    +0.000 A 
ATOM     26  C   UNL     1      -1.770  11.615  19.220  0.00  0.00    +0.000 A 
ATOM     27  C   UNL     1      -0.824  10.749  18.652  0.00  0.00    +0.000 A 
ATOM     28  C   UNL     1      -1.217  10.064  17.489  0.00  0.00    +0.000 A 
ATOM     29  C   UNL     1      -2.493  10.231  16.904  0.00  0.00    +0.000 A 
BRANCH  24  31
ATOM     30  C   UNL     1      -5.757  11.249  17.894  0.00  0.00    +0.000 C 
ATOM     31  O   UNL     1      -4.668  11.250  16.971  0.00  0.00    +0.000 OA
ENDBRANCH  24  31
BRANCH  29  32
ATOM     32  O   UNL     1      -2.642   9.488  15.760  0.00  0.00    +0.000 OA
ATOM     33  C   UNL     1      -2.975  10.142  14.546  0.00  0.00    +0.000 C 
ENDBRANCH  29  32
ENDBRANCH   1  27
TORSDOF 6
ENDMDL
MODEL 2
REMARK VINA RESULT:      -7.9      2.759      6.472
REMARK  Name = 
REMARK  9 active torsions:
REMARK  status: ('A' for Active; 'I' for Inactive)
REMARK    1  A    between atoms: C_1  and  O_2
REMARK    2  A    between atoms: O_2  and  C_3
REMARK    3  A    between atoms: C_6  and  C_7
REMARK    4  A    between atoms: C_7  and  N_8
REMARK    5  A    between atoms: C_7  and  C_17
REMARK    6  A    between atoms: C_11  and  C_12
REMARK    7  A    between atoms: C_26  and  O_27
REMARK    8  A    between atoms: C_29  and  O_30
REMARK    9  A    between atoms: O_30  and  C_31
REMARK                            x       y       z     vdW  Elec       q    Type
REMARK                         _______ _______ _______ _____ _____    ______ ____
ROOT
ATOM      1  C   UNL     1       0.629  11.343  18.917  0.00  0.00    +0.000 C 
ENDROOT
BRANCH   1   2
ATOM      2  N   UNL     1       0.896  12.389  19.925  0.00  0.00    +0.000 N 
ATOM      3  C   UNL     1       1.842  13.378  19.612  0.00  0.00    +0.000 A 
ATOM      4  C   UNL     1       1.955  14.461  20.489  0.00  0.00    +0.000 A 
ATOM      5  C   UNL     1       2.834  15.520  20.209  0.00  0.00    +0.000 A 
ATOM      6  C   UNL     1       2.848  16.736  21.088  0.00  0.00    +0.000 C 
ATOM      7  C   UNL     1       3.632  15.417  19.072  0.00  0.00    +0.000 A 
ATOM      8 CL   UNL     1       4.759  16.636  18.619  0.00  0.00    +0.000 Cl
ATOM      9  C   UNL     1       3.496  14.288  18.277  0.00  0.00    +0.000 A 
ATOM     10  N   UNL     1       2.621  13.280  18.523  0.00  0.00    +0.000 NA
ATOM     11  H   UNL     1       1.216  11.969  20.792  0.00  0.00    +0.000 HD
ENDBRANCH   1   2
BRANCH   1  12
ATOM     12  C   UNL     1       1.145   9.990  19.452  0.00  0.00    +0.000 A 
ATOM     13  C   UNL     1       0.813   9.546  20.751  0.00  0.00    +0.000 A 
ATOM     14  C   UNL     1       1.054   8.227  21.137  0.00  0.00    +0.000 A 
ATOM     15  C   UNL     1       1.643   7.326  20.244  0.00  0.00    +0.000 A 
ATOM     16  C   UNL     1       1.800   5.973  20.567  0.00  0.00    +0.000 A 
ATOM     17  C   UNL     1       2.385   5.111  19.651  0.00  0.00    +0.000 A 
ATOM     18  C   UNL     1       2.815   5.636  18.446  0.00  0.00    +0.000 A 
ATOM     19  N   UNL     1       2.660   6.930  18.085  0.00  0.00    +0.000 NA
ATOM     20  C   UNL     1       2.062   7.759  18.969  0.00  0.00    +0.000 A 
ATOM     21  C   UNL     1       1.797   9.080  18.607  0.00  0.00    +0.000 A 
BRANCH  21  22
ATOM     22  O   UNL     1       2.145   9.475  17.331  0.00  0.00    +0.000 OA
ATOM     23  H   UNL     1       1.286   9.668  16.894  0.00  0.00    +0.000 HD
ENDBRANCH  21  22
ENDBRANCH   1  12
BRANCH   1  27
ATOM     24  C   UNL     1      -3.670  11.058  18.021  0.00  0.00    +0.000 A 
ATOM     25  C   UNL     1      -3.209  11.825  19.094  0.00  0.00    +0.000 A 
ATOM     26  C   UNL     1      -1.844  11.962  19.348  0.00  0.00    +0.000 A 
ATOM     27  C   UNL     1      -0.881  11.271  18.597  0.00  0.00    +0.000 A 
ATOM     28  C   UNL     1      -1.360  10.471  17.545  0.00  0.00    +0.000 A 
ATOM     29  C   UNL     1      -2.736  10.362  17.240  0.00  0.00    +0.000 A 
BRANCH  24  31
ATOM     30  C   UNL     1      -5.652  12.113  17.245  0.00  0.00    +0.000 C 
ATOM     31  O   UNL     1      -5.010  10.945  17.756  0.00  0.00    +0.000 OA
ENDBRANCH  24  31
BRANCH  29  32
ATOM     32  O   UNL     1      -2.965   9.554  16.154  0.00  0.00    +0.000 OA
ATOM     33  C   UNL     1      -3.058  10.136  14.863  0.00  0.00    +0.000 C 
ENDBRANCH  29  32
ENDBRANCH   1  27
TORSDOF 6
ENDMDL
MODEL 3
REMARK VINA RESULT:      -7.7      2.869      6.781
REMARK  Name = 
REMARK  9 active torsions:
REMARK  status: ('A' for Active; 'I' for Inactive)
REMARK    1  A    between atoms: C_1  and  O_2
REMARK    2  A    between atoms: O_2  and  C_3
REMARK    3  A    between atoms: C_6  and  C_7
REMARK    4  A    between atoms: C_7  and  N_8
REMARK    5  A    between atoms: C_7  and  C_17
REMARK    6  A    between atoms: C_11  and  C_12
REMARK    7  A    between atoms: C_26  and  O_27
REMARK    8  A    between atoms: C_29  and  O_30
REMARK    9  A    between atoms: O_30  and  C_31
REMARK                            x       y       z     vdW  Elec       q    Type
REMARK                         _______ _______ _______ _____ _____    ______ ____
ROOT
ATOM      1  C   UNL     1       0.799  10.983  18.984  0.00  0.00    +0.000 C 
ENDROOT
BRANCH   1   2
ATOM      2  N   UNL     1       1.099  12.010  20.004  0.00  0.00    +0.000 N 
ATOM      3  C   UNL     1       1.947  13.068  19.642  0.00  0.00    +0.000 A 
ATOM      4  C   UNL     1       2.079  14.126  20.547  0.00  0.00    +0.000 A 
ATOM      5  C   UNL     1       2.859  15.248  20.227  0.00  0.00    +0.000 A 
ATOM      6  C   UNL     1       2.885  16.432  21.150  0.00  0.00    +0.000 C 
ATOM      7  C   UNL     1       3.546  15.237  19.015  0.00  0.00    +0.000 A 
ATOM      8 CL   UNL     1       4.546  16.542  18.506  0.00  0.00    +0.000 Cl
ATOM      9  C   UNL     1       3.402  14.129  18.192  0.00  0.00    +0.000 A 
ATOM     10  N   UNL     1       2.619  13.059  18.479  0.00  0.00    +0.000 NA
ATOM     11  H   UNL     1       1.528  11.582  20.819  0.00  0.00    +0.000 HD
ENDBRANCH   1   2
BRANCH   1  12
ATOM     12  C   UNL     1       1.299   9.614  19.491  0.00  0.00    +0.000 A 
ATOM     13  C   UNL     1       0.955   9.143  20.778  0.00  0.00    +0.000 A 
ATOM     14  C   UNL     1       1.181   7.814  21.136  0.00  0.00    +0.000 A 
ATOM     15  C   UNL     1       1.766   6.928  20.225  0.00  0.00    +0.000 A 
ATOM     16  C   UNL     1       1.908   5.566  20.519  0.00  0.00    +0.000 A 
ATOM     17  C   UNL     1       2.490   4.720  19.587  0.00  0.00    +0.000 A 
ATOM     18  C   UNL     1       2.932   5.267  18.396  0.00  0.00    +0.000 A 
ATOM     19  N   UNL     1       2.792   6.571  18.064  0.00  0.00    +0.000 NA
ATOM     20  C   UNL     1       2.197   7.385  18.963  0.00  0.00    +0.000 A 
ATOM     21  C   UNL     1       1.947   8.716  18.630  0.00  0.00    +0.000 A 
BRANCH  21  22
ATOM     22  O   UNL     1       2.306   9.137  17.365  0.00  0.00    +0.000 OA
ATOM     23  H   UNL     1       1.531   9.653  17.051  0.00  0.00    +0.000 HD
ENDBRANCH  21  22
ENDBRANCH   1  12
BRANCH   1  27
ATOM     24  C   UNL     1      -3.515  10.946  18.115  0.00  0.00    +0.000 A 
ATOM     25  C   UNL     1      -2.632  10.124  17.409  0.00  0.00    +0.000 A 
ATOM     26  C   UNL     1      -1.272  10.092  17.719  0.00  0.00    +0.000 A 
ATOM     27  C   UNL     1      -0.717  10.942  18.687  0.00  0.00    +0.000 A 
ATOM     28  C   UNL     1      -1.609  11.793  19.363  0.00  0.00    +0.000 A 
ATOM     29  C   UNL     1      -2.998  11.800  19.099  0.00  0.00    +0.000 A 
BRANCH  24  31
ATOM     30  C   UNL     1      -5.304  11.989  16.952  0.00  0.00    +0.000 C 
ATOM     31  O   UNL     1      -4.855  10.956  17.827  0.00  0.00    +0.000 OA
ENDBRANCH  24  31
BRANCH  29  32
ATOM     32  O   UNL     1      -3.674  12.686  19.900  0.00  0.00    +0.000 OA
ATOM     33  C   UNL     1      -3.294  12.822  21.260  0.00  0.00    +0.000 C 
ENDBRANCH  29  32
ENDBRANCH   1  27
TORSDOF 6
ENDMDL
MODEL 4
REMARK VINA RESULT:      -7.7      3.289      7.054
REMARK  Name = 
REMARK  9 active torsions:
REMARK  status: ('A' for Active; 'I' for Inactive)
REMARK    1  A    between atoms: C_1  and  O_2
REMARK    2  A    between atoms: O_2  and  C_3
REMARK    3  A    between atoms: C_6  and  C_7
REMARK    4  A    between atoms: C_7  and  N_8
REMARK    5  A    between atoms: C_7  and  C_17
REMARK    6  A    between atoms: C_11  and  C_12
REMARK    7  A    between atoms: C_26  and  O_27
REMARK    8  A    between atoms: C_29  and  O_30
REMARK    9  A    between atoms: O_30  and  C_31
REMARK                            x       y       z     vdW  Elec       q    Type
REMARK                         _______ _______ _______ _____ _____    ______ ____
ROOT
ATOM      1  C   UNL     1       0.725  10.915  19.253  0.00  0.00    +0.000 C 
ENDROOT
BRANCH   1   2
ATOM      2  N   UNL     1       1.645  11.664  18.372  0.00  0.00    +0.000 N 
ATOM      3  C   UNL     1       2.137  12.896  18.831  0.00  0.00    +0.000 A 
ATOM      4  C   UNL     1       3.143  13.509  18.078  0.00  0.00    +0.000 A 
ATOM      5  C   UNL     1       3.729  14.710  18.508  0.00  0.00    +0.000 A 
ATOM      6  C   UNL     1       4.896  15.286  17.760  0.00  0.00    +0.000 C 
ATOM      7  C   UNL     1       3.225  15.299  19.666  0.00  0.00    +0.000 A 
ATOM      8 CL   UNL     1       3.844  16.777  20.296  0.00  0.00    +0.000 Cl
ATOM      9  C   UNL     1       2.193  14.654  20.332  0.00  0.00    +0.000 A 
ATOM     10  N   UNL     1       1.650  13.473  19.942  0.00  0.00    +0.000 NA
ATOM     11  H   UNL     1       1.197  11.863  17.483  0.00  0.00    +0.000 HD
ENDBRANCH   1   2
BRANCH   1  12
ATOM     12  C   UNL     1      -0.690  10.943  18.638  0.00  0.00    +0.000 A 
ATOM     13  C   UNL     1      -1.068  10.021  17.637  0.00  0.00    +0.000 A 
ATOM     14  C   UNL     1      -2.406   9.874  17.271  0.00  0.00    +0.000 A 
ATOM     15  C   UNL     1      -3.395  10.651  17.884  0.00  0.00    +0.000 A 
ATOM     16  C   UNL     1      -4.754  10.451  17.613  0.00  0.00    +0.000 A 
ATOM     17  C   UNL     1      -5.704  11.241  18.245  0.00  0.00    +0.000 A 
ATOM     18  C   UNL     1      -5.262  12.221  19.114  0.00  0.00    +0.000 A 
ATOM     19  N   UNL     1      -3.962  12.430  19.421  0.00  0.00    +0.000 NA
ATOM     20  C   UNL     1      -3.043  11.639  18.826  0.00  0.00    +0.000 A 
ATOM     21  C   UNL     1      -1.698  11.754  19.180  0.00  0.00    +0.000 A 
BRANCH  21  22
ATOM     22  O   UNL     1      -1.371  12.673  20.157  0.00  0.00    +0.000 OA
ATOM     23  H   UNL     1      -0.457  12.953  19.930  0.00  0.00    +0.000 HD
ENDBRANCH  21  22
ENDBRANCH   1  12
BRANCH   1  27
ATOM     24  C   UNL     1       2.204   6.803  19.775  0.00  0.00    +0.000 A 
ATOM     25  C   UNL     1       1.514   7.454  20.801  0.00  0.00    +0.000 A 
ATOM     26  C   UNL     1       0.996   8.737  20.620  0.00  0.00    +0.000 A 
ATOM     27  C   UNL     1       1.218   9.462  19.440  0.00  0.00    +0.000 A 
ATOM     28  C   UNL     1       1.947   8.811  18.429  0.00  0.00    +0.000 A 
ATOM     29  C   UNL     1       2.433   7.492  18.575  0.00  0.00    +0.000 A 
BRANCH  24  31
ATOM     30  C   UNL     1       1.944   4.684  20.815  0.00  0.00    +0.000 C 
ATOM     31  O   UNL     1       2.689   5.533  19.944  0.00  0.00    +0.000 OA
ENDBRANCH  24  31
BRANCH  29  32
ATOM     32  O   UNL     1       3.087   7.052  17.451  0.00  0.00    +0.000 OA
ATOM     33  C   UNL     1       4.502   6.956  17.463  0.00  0.00    +0.000 C 
ENDBRANCH  29  32
ENDBRANCH   1  27
TORSDOF 6
ENDMDL
MODEL 5
REMARK VINA RESULT:      -7.6      2.803      6.301
REMARK  Name = 
REMARK  9 active torsions:
REMARK  status: ('A' for Active; 'I' for Inactive)
REMARK    1  A    between atoms: C_1  and  O_2
REMARK    2  A    between atoms: O_2  and  C_3
REMARK    3  A    between atoms: C_6  and  C_7
REMARK    4  A    between atoms: C_7  and  N_8
REMARK    5  A    between atoms: C_7  and  C_17
REMARK    6  A    between atoms: C_11  and  C_12
REMARK    7  A    between atoms: C_26  and  O_27
REMARK    8  A    between atoms: C_29  and  O_30
REMARK    9  A    between atoms: O_30  and  C_31
REMARK                            x       y       z     vdW  Elec       q    Type
REMARK                         _______ _______ _______ _____ _____    ______ ____
ROOT
ATOM      1  C   UNL     1      -0.332  12.050  18.619  0.00  0.00    +0.000 C 
ENDROOT
BRANCH   1   2
ATOM      2  N   UNL     1      -0.092  13.253  19.444  0.00  0.00    +0.000 N 
ATOM      3  C   UNL     1       1.069  14.000  19.193  0.00  0.00    +0.000 A 
ATOM      4  C   UNL     1       1.198  15.229  19.848  0.00  0.00    +0.000 A 
ATOM      5  C   UNL     1       2.301  16.061  19.598  0.00  0.00    +0.000 A 
ATOM      6  C   UNL     1       2.359  17.433  20.205  0.00  0.00    +0.000 C 
ATOM      7  C   UNL     1       3.288  15.589  18.735  0.00  0.00    +0.000 A 
ATOM      8 CL   UNL     1       4.696  16.502  18.352  0.00  0.00    +0.000 Cl
ATOM      9  C   UNL     1       3.111  14.338  18.162  0.00  0.00    +0.000 A 
ATOM     10  N   UNL     1       2.028  13.547  18.370  0.00  0.00    +0.000 NA
ATOM     11  H   UNL     1      -0.049  13.002  20.427  0.00  0.00    +0.000 HD
ENDBRANCH   1   2
BRANCH   1  12
ATOM     12  C   UNL     1       0.286  10.827  19.327  0.00  0.00    +0.000 A 
ATOM     13  C   UNL     1      -0.202  10.383  20.576  0.00  0.00    +0.000 A 
ATOM     14  C   UNL     1       0.171   9.141  21.089  0.00  0.00    +0.000 A 
ATOM     15  C   UNL     1       1.050   8.319  20.375  0.00  0.00    +0.000 A 
ATOM     16  C   UNL     1       1.359   7.025  20.812  0.00  0.00    +0.000 A 
ATOM     17  C   UNL     1       2.232   6.240  20.073  0.00  0.00    +0.000 A 
ATOM     18  C   UNL     1       2.785   6.782  18.928  0.00  0.00    +0.000 A 
ATOM     19  N   UNL     1       2.495   8.017  18.458  0.00  0.00    +0.000 NA
ATOM     20  C   UNL     1       1.621   8.766  19.165  0.00  0.00    +0.000 A 
ATOM     21  C   UNL     1       1.218  10.008  18.674  0.00  0.00    +0.000 A 
BRANCH  21  22
ATOM     22  O   UNL     1       1.726  10.406  17.453  0.00  0.00    +0.000 OA
ATOM     23  H   UNL     1       2.696  10.464  17.601  0.00  0.00    +0.000 HD
ENDBRANCH  21  22
ENDBRANCH   1  12
BRANCH   1  27
ATOM     24  C   UNL     1      -4.633  11.392  17.951  0.00  0.00    +0.000 A 
ATOM     25  C   UNL     1      -4.166  11.929  19.154  0.00  0.00    +0.000 A 
ATOM     26  C   UNL     1      -2.809  12.190  19.349  0.00  0.00    +0.000 A 
ATOM     27  C   UNL     1      -1.847  11.847  18.387  0.00  0.00    +0.000 A 
ATOM     28  C   UNL     1      -2.325  11.272  17.197  0.00  0.00    +0.000 A 
ATOM     29  C   UNL     1      -3.701  11.049  16.961  0.00  0.00    +0.000 A 
BRANCH  24  31
ATOM     30  C   UNL     1      -6.683  10.602  18.852  0.00  0.00    +0.000 C 
ATOM     31  O   UNL     1      -5.968  11.161  17.751  0.00  0.00    +0.000 OA
ENDBRANCH  24  31
BRANCH  29  32
ATOM     32  O   UNL     1      -3.934  10.509  15.721  0.00  0.00    +0.000 OA
ATOM     33  C   UNL     1      -2.836  10.234  14.866  0.00  0.00    +0.000 C 
ENDBRANCH  29  32
ENDBRANCH   1  27
TORSDOF 6
ENDMDL
MODEL 6
REMARK VINA RESULT:      -7.6      1.359      1.774
REMARK  Name = 
REMARK  9 active torsions:
REMARK  status: ('A' for Active; 'I' for Inactive)
REMARK    1  A    between atoms: C_1  and  O_2
REMARK    2  A    between atoms: O_2  and  C_3
REMARK    3  A    between atoms: C_6  and  C_7
REMARK    4  A    between atoms: C_7  and  N_8
REMARK    5  A    between atoms: C_7  and  C_17
REMARK    6  A    between atoms: C_11  and  C_12
REMARK    7  A    between atoms: C_26  and  O_27
REMARK    8  A    between atoms: C_29  and  O_30
REMARK    9  A    between atoms: O_30  and  C_31
REMARK                            x       y       z     vdW  Elec       q    Type
REMARK                         _______ _______ _______ _____ _____    ______ ____
ROOT
ATOM      1  C   UNL     1       0.479  10.947  19.475  0.00  0.00    +0.000 C 
ENDROOT
BRANCH   1   2
ATOM      2  N   UNL     1       1.367  10.106  18.646  0.00  0.00    +0.000 N 
ATOM      3  C   UNL     1       1.688   8.824  19.119  0.00  0.00    +0.000 A 
ATOM      4  C   UNL     1       2.374   7.970  18.250  0.00  0.00    +0.000 A 
ATOM      5  C   UNL     1       2.673   6.651  18.631  0.00  0.00    +0.000 A 
ATOM      6  C   UNL     1       3.291   5.707  17.641  0.00  0.00    +0.000 C 
ATOM      7  C   UNL     1       2.327   6.253  19.920  0.00  0.00    +0.000 A 
ATOM      8 CL   UNL     1       2.646   4.671  20.517  0.00  0.00    +0.000 Cl
ATOM      9  C   UNL     1       1.690   7.174  20.740  0.00  0.00    +0.000 A 
ATOM     10  N   UNL     1       1.364   8.437  20.364  0.00  0.00    +0.000 NA
ATOM     11  H   UNL     1       2.256  10.572  18.497  0.00  0.00    +0.000 HD
ENDBRANCH   1   2
BRANCH   1  12
ATOM     12  C   UNL     1       1.129  12.335  19.653  0.00  0.00    +0.000 A 
ATOM     13  C   UNL     1       1.002  13.051  20.864  0.00  0.00    +0.000 A 
ATOM     14  C   UNL     1       1.795  14.170  21.119  0.00  0.00    +0.000 A 
ATOM     15  C   UNL     1       2.721  14.610  20.167  0.00  0.00    +0.000 A 
ATOM     16  C   UNL     1       3.602  15.664  20.437  0.00  0.00    +0.000 A 
ATOM     17  C   UNL     1       4.508  16.067  19.468  0.00  0.00    +0.000 A 
ATOM     18  C   UNL     1       4.491  15.415  18.248  0.00  0.00    +0.000 A 
ATOM     19  N   UNL     1       3.675  14.378  17.956  0.00  0.00    +0.000 NA
ATOM     20  C   UNL     1       2.814  13.970  18.914  0.00  0.00    +0.000 A 
ATOM     21  C   UNL     1       2.017  12.846  18.695  0.00  0.00    +0.000 A 
BRANCH  21  22
ATOM     22  O   UNL     1       2.167  12.182  17.493  0.00  0.00    +0.000 OA
ATOM     23  H   UNL     1       2.797  11.454  17.695  0.00  0.00    +0.000 HD
ENDBRANCH  21  22
ENDBRANCH   1  12
BRANCH   1  27
ATOM     24  C   UNL     1      -3.506  11.217  17.628  0.00  0.00    +0.000 A 
ATOM     25  C   UNL     1      -3.197  11.947  18.779  0.00  0.00    +0.000 A 
ATOM     26  C   UNL     1      -1.918  11.906  19.336  0.00  0.00    +0.000 A 
ATOM     27  C   UNL     1      -0.916  11.070  18.822  0.00  0.00    +0.000 A 
ATOM     28  C   UNL     1      -1.252  10.310  17.687  0.00  0.00    +0.000 A 
ATOM     29  C   UNL     1      -2.525  10.379  17.078  0.00  0.00    +0.000 A 
BRANCH  24  31
ATOM     30  C   UNL     1      -5.844  11.457  17.970  0.00  0.00    +0.000 C 
ATOM     31  O   UNL     1      -4.754  11.278  17.067  0.00  0.00    +0.000 OA
ENDBRANCH  24  31
BRANCH  29  32
ATOM     32  O   UNL     1      -2.614   9.577  15.968  0.00  0.00    +0.000 OA
ATOM     33  C   UNL     1      -2.879  10.167  14.705  0.00  0.00    +0.000 C 
ENDBRANCH  29  32
ENDBRANCH   1  27
TORSDOF 6
ENDMDL
MODEL 7
REMARK VINA RESULT:      -7.5      0.733      1.768
REMARK  Name = 
REMARK  9 active torsions:
REMARK  status: ('A' for Active; 'I' for Inactive)
REMARK    1  A    between atoms: C_1  and  O_2
REMARK    2  A    between atoms: O_2  and  C_3
REMARK    3  A    between atoms: C_6  and  C_7
REMARK    4  A    between atoms: C_7  and  N_8
REMARK    5  A    between atoms: C_7  and  C_17
REMARK    6  A    between atoms: C_11  and  C_12
REMARK    7  A    between atoms: C_26  and  O_27
REMARK    8  A    between atoms: C_29  and  O_30
REMARK    9  A    between atoms: O_30  and  C_31
REMARK                            x       y       z     vdW  Elec       q    Type
REMARK                         _______ _______ _______ _____ _____    ______ ____
ROOT
ATOM      1  C   UNL     1       0.682  10.394  19.307  0.00  0.00    +0.000 C 
ENDROOT
BRANCH   1   2
ATOM      2  N   UNL     1       1.468   9.475  18.457  0.00  0.00    +0.000 N 
ATOM      3  C   UNL     1       1.800   8.217  18.982  0.00  0.00    +0.000 A 
ATOM      4  C   UNL     1       2.382   7.289  18.113  0.00  0.00    +0.000 A 
ATOM      5  C   UNL     1       2.683   5.989  18.550  0.00  0.00    +0.000 A 
ATOM      6  C   UNL     1       3.182   4.965  17.572  0.00  0.00    +0.000 C 
ATOM      7  C   UNL     1       2.448   5.684  19.889  0.00  0.00    +0.000 A 
ATOM      8 CL   UNL     1       2.783   4.133  20.557  0.00  0.00    +0.000 Cl
ATOM      9  C   UNL     1       1.913   6.674  20.701  0.00  0.00    +0.000 A 
ATOM     10  N   UNL     1       1.585   7.919  20.274  0.00  0.00    +0.000 NA
ATOM     11  H   UNL     1       2.350   9.904  18.197  0.00  0.00    +0.000 HD
ENDBRANCH   1   2
BRANCH   1  12
ATOM     12  C   UNL     1       1.452  11.723  19.450  0.00  0.00    +0.000 A 
ATOM     13  C   UNL     1       2.039  12.351  18.329  0.00  0.00    +0.000 A 
ATOM     14  C   UNL     1       2.502  13.664  18.407  0.00  0.00    +0.000 A 
ATOM     15  C   UNL     1       2.404  14.377  19.608  0.00  0.00    +0.000 A 
ATOM     16  C   UNL     1       2.763  15.728  19.687  0.00  0.00    +0.000 A 
ATOM     17  C   UNL     1       2.647  16.399  20.895  0.00  0.00    +0.000 A 
ATOM     18  C   UNL     1       2.194  15.691  21.993  0.00  0.00    +0.000 A 
ATOM     19  N   UNL     1       1.815  14.394  21.953  0.00  0.00    +0.000 NA
ATOM     20  C   UNL     1       1.901  13.753  20.768  0.00  0.00    +0.000 A 
ATOM     21  C   UNL     1       1.435  12.443  20.654  0.00  0.00    +0.000 A 
BRANCH  21  22
ATOM     22  O   UNL     1       0.877  11.864  21.777  0.00  0.00    +0.000 OA
ATOM     23  H   UNL     1       0.003  12.305  21.868  0.00  0.00    +0.000 HD
ENDBRANCH  21  22
ENDBRANCH   1  12
BRANCH   1  27
ATOM     24  C   UNL     1      -3.290  11.145  17.567  0.00  0.00    +0.000 A 
ATOM     25  C   UNL     1      -2.362  10.329  16.914  0.00  0.00    +0.000 A 
ATOM     26  C   UNL     1      -1.122  10.044  17.488  0.00  0.00    +0.000 A 
ATOM     27  C   UNL     1      -0.719  10.630  18.697  0.00  0.00    +0.000 A 
ATOM     28  C   UNL     1      -1.646  11.480  19.326  0.00  0.00    +0.000 A 
ATOM     29  C   UNL     1      -2.926  11.737  18.785  0.00  0.00    +0.000 A 
BRANCH  24  31
ATOM     30  C   UNL     1      -5.651  11.058  17.809  0.00  0.00    +0.000 C 
ATOM     31  O   UNL     1      -4.517  11.403  17.015  0.00  0.00    +0.000 OA
ENDBRANCH  24  31
BRANCH  29  32
ATOM     32  O   UNL     1      -3.670  12.569  19.585  0.00  0.00    +0.000 OA
ATOM     33  C   UNL     1      -3.237  12.827  20.911  0.00  0.00    +0.000 C 
ENDBRANCH  29  32
ENDBRANCH   1  27
TORSDOF 6
ENDMDL
MODEL 8
REMARK VINA RESULT:      -7.5      1.301      1.463
REMARK  Name = 
REMARK  9 active torsions:
REMARK  status: ('A' for Active; 'I' for Inactive)
REMARK    1  A    between atoms: C_1  and  O_2
REMARK    2  A    between atoms: O_2  and  C_3
REMARK    3  A    between atoms: C_6  and  C_7
REMARK    4  A    between atoms: C_7  and  N_8
REMARK    5  A    between atoms: C_7  and  C_17
REMARK    6  A    between atoms: C_11  and  C_12
REMARK    7  A    between atoms: C_26  and  O_27
REMARK    8  A    between atoms: C_29  and  O_30
REMARK    9  A    between atoms: O_30  and  C_31
REMARK                            x       y       z     vdW  Elec       q    Type
REMARK                         _______ _______ _______ _____ _____    ______ ____
ROOT
ATOM      1  C   UNL     1      -0.297  11.586  19.323  0.00  0.00    +0.000 C 
ENDROOT
BRANCH   1   2
ATOM      2  N   UNL     1       0.656  10.848  18.467  0.00  0.00    +0.000 N 
ATOM      3  C   UNL     1       1.175   9.639  18.954  0.00  0.00    +0.000 A 
ATOM      4  C   UNL     1       1.928   8.859  18.070  0.00  0.00    +0.000 A 
ATOM      5  C   UNL     1       2.426   7.607  18.465  0.00  0.00    +0.000 A 
ATOM      6  C   UNL     1       3.117   6.725  17.467  0.00  0.00    +0.000 C 
ATOM      7  C   UNL     1       2.203   7.207  19.781  0.00  0.00    +0.000 A 
ATOM      8 CL   UNL     1       2.769   5.703  20.399  0.00  0.00    +0.000 Cl
ATOM      9  C   UNL     1       1.488   8.057  20.611  0.00  0.00    +0.000 A 
ATOM     10  N   UNL     1       0.971   9.251  20.223  0.00  0.00    +0.000 NA
ATOM     11  H   UNL     1       1.463  11.428  18.258  0.00  0.00    +0.000 HD
ENDBRANCH   1   2
BRANCH   1  12
ATOM     12  C   UNL     1       0.252  13.007  19.571  0.00  0.00    +0.000 A 
ATOM     13  C   UNL     1      -0.255  14.118  18.862  0.00  0.00    +0.000 A 
ATOM     14  C   UNL     1       0.046  15.420  19.264  0.00  0.00    +0.000 A 
ATOM     15  C   UNL     1       0.871  15.643  20.372  0.00  0.00    +0.000 A 
ATOM     16  C   UNL     1       1.105  16.934  20.861  0.00  0.00    +0.000 A 
ATOM     17  C   UNL     1       1.926  17.112  21.964  0.00  0.00    +0.000 A 
ATOM     18  C   UNL     1       2.505  15.992  22.533  0.00  0.00    +0.000 A 
ATOM     19  N   UNL     1       2.286  14.727  22.107  0.00  0.00    +0.000 NA
ATOM     20  C   UNL     1       1.462  14.557  21.051  0.00  0.00    +0.000 A 
ATOM     21  C   UNL     1       1.130  13.268  20.632  0.00  0.00    +0.000 A 
BRANCH  21  22
ATOM     22  O   UNL     1       1.655  12.210  21.348  0.00  0.00    +0.000 OA
ATOM     23  H   UNL     1       1.213  11.418  20.970  0.00  0.00    +0.000 HD
ENDBRANCH  21  22
ENDBRANCH   1  12
BRANCH   1  27
ATOM     24  C   UNL     1      -4.259  11.663  17.409  0.00  0.00    +0.000 A 
ATOM     25  C   UNL     1      -4.119  11.894  18.780  0.00  0.00    +0.000 A 
ATOM     26  C   UNL     1      -2.859  11.925  19.381  0.00  0.00    +0.000 A 
ATOM     27  C   UNL     1      -1.691  11.641  18.658  0.00  0.00    +0.000 A 
ATOM     28  C   UNL     1      -1.849  11.371  17.287  0.00  0.00    +0.000 A 
ATOM     29  C   UNL     1      -3.112  11.388  16.652  0.00  0.00    +0.000 A 
BRANCH  24  31
ATOM     30  C   UNL     1      -6.551  12.269  17.555  0.00  0.00    +0.000 C 
ATOM     31  O   UNL     1      -5.494  11.659  16.816  0.00  0.00    +0.000 OA
ENDBRANCH  24  31
BRANCH  29  32
ATOM     32  O   UNL     1      -3.020  11.128  15.307  0.00  0.00    +0.000 OA
ATOM     33  C   UNL     1      -3.222   9.804  14.841  0.00  0.00    +0.000 C 
ENDBRANCH  29  32
ENDBRANCH   1  27
TORSDOF 6
ENDMDL
MODEL 9
REMARK VINA RESULT:      -7.5      2.991      6.738
REMARK  Name = 
REMARK  9 active torsions:
REMARK  status: ('A' for Active; 'I' for Inactive)
REMARK    1  A    between atoms: C_1  and  O_2
REMARK    2  A    between atoms: O_2  and  C_3
REMARK    3  A    between atoms: C_6  and  C_7
REMARK    4  A    between atoms: C_7  and  N_8
REMARK    5  A    between atoms: C_7  and  C_17
REMARK    6  A    between atoms: C_11  and  C_12
REMARK    7  A    between atoms: C_26  and  O_27
REMARK    8  A    between atoms: C_29  and  O_30
REMARK    9  A    between atoms: O_30  and  C_31
REMARK                            x       y       z     vdW  Elec       q    Type
REMARK                         _______ _______ _______ _____ _____    ______ ____
ROOT
ATOM      1  C   UNL     1       0.298  11.687  19.258  0.00  0.00    +0.000 C 
ENDROOT
BRANCH   1   2
ATOM      2  N   UNL     1       0.373  12.598  20.419  0.00  0.00    +0.000 N 
ATOM      3  C   UNL     1       0.683  13.945  20.179  0.00  0.00    +0.000 A 
ATOM      4  C   UNL     1       0.572  14.833  21.254  0.00  0.00    +0.000 A 
ATOM      5  C   UNL     1       0.804  16.206  21.075  0.00  0.00    +0.000 A 
ATOM      6  C   UNL     1       0.554  17.163  22.204  0.00  0.00    +0.000 C 
ATOM      7  C   UNL     1       1.213  16.636  19.814  0.00  0.00    +0.000 A 
ATOM      8 CL   UNL     1       1.542  18.289  19.462  0.00  0.00    +0.000 Cl
ATOM      9  C   UNL     1       1.346  15.687  18.811  0.00  0.00    +0.000 A 
ATOM     10  N   UNL     1       1.086  14.365  18.968  0.00  0.00    +0.000 NA
ATOM     11  H   UNL     1       1.071  12.270  21.079  0.00  0.00    +0.000 HD
ENDBRANCH   1   2
BRANCH   1  12
ATOM     12  C   UNL     1       0.927  10.332  19.643  0.00  0.00    +0.000 A 
ATOM     13  C   UNL     1       0.646   9.726  20.888  0.00  0.00    +0.000 A 
ATOM     14  C   UNL     1       0.997   8.398  21.131  0.00  0.00    +0.000 A 
ATOM     15  C   UNL     1       1.647   7.648  20.144  0.00  0.00    +0.000 A 
ATOM     16  C   UNL     1       1.915   6.285  20.320  0.00  0.00    +0.000 A 
ATOM     17  C   UNL     1       2.558   5.576  19.316  0.00  0.00    +0.000 A 
ATOM     18  C   UNL     1       2.931   6.260  18.173  0.00  0.00    +0.000 A 
ATOM     19  N   UNL     1       2.668   7.568  17.953  0.00  0.00    +0.000 NA
ATOM     20  C   UNL     1       2.016   8.246  18.922  0.00  0.00    +0.000 A 
ATOM     21  C   UNL     1       1.640   9.572  18.705  0.00  0.00    +0.000 A 
BRANCH  21  22
ATOM     22  O   UNL     1       1.942  10.128  17.478  0.00  0.00    +0.000 OA
ATOM     23  H   UNL     1       1.293   9.721  16.861  0.00  0.00    +0.000 HD
ENDBRANCH  21  22
ENDBRANCH   1  12
BRANCH   1  27
ATOM     24  C   UNL     1      -3.873  11.094  17.983  0.00  0.00    +0.000 A 
ATOM     25  C   UNL     1      -3.565  11.894  19.086  0.00  0.00    +0.000 A 
ATOM     26  C   UNL     1      -2.242  12.129  19.461  0.00  0.00    +0.000 A 
ATOM     27  C   UNL     1      -1.169  11.507  18.805  0.00  0.00    +0.000 A 
ATOM     28  C   UNL     1      -1.493  10.673  17.721  0.00  0.00    +0.000 A 
ATOM     29  C   UNL     1      -2.825  10.466  17.294  0.00  0.00    +0.000 A 
BRANCH  24  31
ATOM     30  C   UNL     1      -5.996  12.046  17.509  0.00  0.00    +0.000 C 
ATOM     31  O   UNL     1      -5.171  10.886  17.600  0.00  0.00    +0.000 OA
ENDBRANCH  24  31
BRANCH  29  32
ATOM     32  O   UNL     1      -2.898   9.641  16.200  0.00  0.00    +0.000 OA
ATOM     33  C   UNL     1      -2.997  10.213  14.905  0.00  0.00    +0.000 C 
ENDBRANCH  29  32
ENDBRANCH   1  27
TORSDOF 6
ENDMDL
