MODEL 1
REMARK VINA RESULT:      -8.3      0.000      0.000
REMARK  Name = 
REMARK  12 active torsions:
REMARK  status: ('A' for Active; 'I' for Inactive)
REMARK    1  A    between atoms: C_1  and  C_2
REMARK    2  A    between atoms: C_2  and  C_3
REMARK    3  A    between atoms: C_4  and  C_5
REMARK    4  A    between atoms: C_5  and  C_6
REMARK    5  A    between atoms: C_6  and  O_7
REMARK    6  A    between atoms: C_6  and  C_23
REMARK    7  A    between atoms: O_7  and  C_8
REMARK    8  A    between atoms: C_8  and  C_10
REMARK    9  A    between atoms: C_10  and  C_11
REMARK   10  A    between atoms: C_10  and  C_17
REMARK   11  A    between atoms: C_28  and  O_29
REMARK   12  A    between atoms: C_32  and  O_33
REMARK                            x       y       z     vdW  Elec       q    Type
REMARK                         _______ _______ _______ _____ _____    ______ ____
ROOT
ATOM      1  C   UNL     1       2.416   6.711  19.481  0.00  0.00    +0.000 C 
ENDROOT
BRANCH   1   2
ATOM      2  C   UNL     1       1.922   8.149  19.467  0.00  0.00    +0.000 C 
ATOM      3  C   UNL     1       1.954   8.829  18.308  0.00  0.00    +0.000 C 
ATOM      4  C   UNL     1       1.773  10.288  18.273  0.00  0.00    +0.000 C 
ATOM      5  O   UNL     1       2.281  10.983  17.407  0.00  0.00    +0.000 OA
ATOM      6  C   UNL     1       0.883  10.855  19.284  0.00  0.00    +0.000 A 
ATOM      7  C   UNL     1       0.221  12.057  19.035  0.00  0.00    +0.000 A 
ATOM      8  C   UNL     1      -0.833  12.439  19.855  0.00  0.00    +0.000 A 
ATOM      9  C   UNL     1      -1.196  11.627  20.933  0.00  0.00    +0.000 A 
ATOM     10  C   UNL     1      -0.468  10.469  21.226  0.00  0.00    +0.000 A 
ATOM     11  C   UNL     1       0.599  10.088  20.411  0.00  0.00    +0.000 A 
ATOM     12  C   UNL     1       1.453   8.899  20.671  0.00  0.00    +0.000 C 
ATOM     13  O   UNL     1       1.795   8.623  21.810  0.00  0.00    +0.000 OA
BRANCH   7  14
ATOM     14  O   UNL     1       0.529  12.876  17.984  0.00  0.00    +0.000 OA
ATOM     15  H   UNL     1      -0.179  13.554  17.900  0.00  0.00    +0.000 HD
ENDBRANCH   7  14
BRANCH  10  16
ATOM     16  O   UNL     1      -0.865   9.672  22.257  0.00  0.00    +0.000 OA
ATOM     17  H   UNL     1      -1.733   9.286  22.072  0.00  0.00    +0.000 HD
ENDBRANCH  10  16
ENDBRANCH   1   2
BRANCH   1  18
ATOM     18  C   UNL     1       1.871   5.575  20.389  0.00  0.00    +0.000 C 
BRANCH  18  22
ATOM     19  C   UNL     1       0.357   2.191  19.197  0.00  0.00    +0.000 C 
ATOM     20  C   UNL     1       1.024   3.165  20.128  0.00  0.00    +0.000 C 
ATOM     21  C   UNL     1       1.378   2.689  21.504  0.00  0.00    +0.000 C 
ATOM     22  C   UNL     1       1.256   4.410  19.677  0.00  0.00    +0.000 C 
ENDBRANCH  18  22
ENDBRANCH   1  18
BRANCH   1  23
ATOM     23  O   UNL     1       2.555   6.237  18.113  0.00  0.00    +0.000 OA
BRANCH  23  24
ATOM     24  C   UNL     1       3.831   5.998  17.705  0.00  0.00    +0.000 C 
ATOM     25  O   UNL     1       4.740   6.816  17.804  0.00  0.00    +0.000 OA
BRANCH  24  26
ATOM     26  C   UNL     1       3.979   4.635  17.051  0.00  0.00    +0.000 C 
BRANCH  26  27
ATOM     27  C   UNL     1       5.133   4.742  16.048  0.00  0.00    +0.000 A 
ATOM     28  C   UNL     1       4.946   4.423  14.691  0.00  0.00    +0.000 A 
ATOM     29  C   UNL     1       6.013   4.473  13.793  0.00  0.00    +0.000 A 
ATOM     30  C   UNL     1       7.285   4.820  14.240  0.00  0.00    +0.000 A 
ATOM     31  C   UNL     1       7.495   5.102  15.589  0.00  0.00    +0.000 A 
ATOM     32  C   UNL     1       6.428   5.062  16.489  0.00  0.00    +0.000 A 
ENDBRANCH  26  27
BRANCH  26  33
ATOM     33  C   UNL     1       4.103   3.475  18.056  0.00  0.00    +0.000 A 
ATOM     34  C   UNL     1       4.664   3.630  19.338  0.00  0.00    +0.000 A 
ATOM     35  C   UNL     1       4.814   2.549  20.206  0.00  0.00    +0.000 A 
ATOM     36  C   UNL     1       4.370   1.289  19.826  0.00  0.00    +0.000 A 
ATOM     37  C   UNL     1       3.766   1.117  18.583  0.00  0.00    +0.000 A 
ATOM     38  C   UNL     1       3.627   2.197  17.707  0.00  0.00    +0.000 A 
ENDBRANCH  26  33
ENDBRANCH  24  26
ENDBRANCH  23  24
ENDBRANCH   1  23
TORSDOF 10
ENDMDL
MODEL 2
REMARK VINA RESULT:      -8.1      0.974      2.309
REMARK  Name = 
REMARK  12 active torsions:
REMARK  status: ('A' for Active; 'I' for Inactive)
REMARK    1  A    between atoms: C_1  and  C_2
REMARK    2  A    between atoms: C_2  and  C_3
REMARK    3  A    between atoms: C_4  and  C_5
REMARK    4  A    between atoms: C_5  and  C_6
REMARK    5  A    between atoms: C_6  and  O_7
REMARK    6  A    between atoms: C_6  and  C_23
REMARK    7  A    between atoms: O_7  and  C_8
REMARK    8  A    between atoms: C_8  and  C_10
REMARK    9  A    between atoms: C_10  and  C_11
REMARK   10  A    between atoms: C_10  and  C_17
REMARK   11  A    between atoms: C_28  and  O_29
REMARK   12  A    between atoms: C_32  and  O_33
REMARK                            x       y       z     vdW  Elec       q    Type
REMARK                         _______ _______ _______ _____ _____    ______ ____
ROOT
ATOM      1  C   UNL     1       2.432   6.773  18.973  0.00  0.00    +0.000 C 
ENDROOT
BRANCH   1   2
ATOM      2  C   UNL     1       1.875   8.127  19.385  0.00  0.00    +0.000 C 
ATOM      3  C   UNL     1       1.574   8.332  20.679  0.00  0.00    +0.000 C 
ATOM      4  C   UNL     1       0.772   9.489  21.103  0.00  0.00    +0.000 C 
ATOM      5  O   UNL     1       0.063   9.456  22.097  0.00  0.00    +0.000 OA
ATOM      6  C   UNL     1       0.931  10.711  20.317  0.00  0.00    +0.000 A 
ATOM      7  C   UNL     1       0.685  11.953  20.902  0.00  0.00    +0.000 A 
ATOM      8  C   UNL     1       1.113  13.107  20.260  0.00  0.00    +0.000 A 
ATOM      9  C   UNL     1       1.759  13.008  19.024  0.00  0.00    +0.000 A 
ATOM     10  C   UNL     1       1.921  11.763  18.405  0.00  0.00    +0.000 A 
ATOM     11  C   UNL     1       1.481  10.603  19.043  0.00  0.00    +0.000 A 
ATOM     12  C   UNL     1       1.573   9.245  18.441  0.00  0.00    +0.000 C 
ATOM     13  O   UNL     1       1.335   9.080  17.256  0.00  0.00    +0.000 OA
BRANCH   7  14
ATOM     14  O   UNL     1       0.072  12.099  22.116  0.00  0.00    +0.000 OA
ATOM     15  H   UNL     1       0.560  12.781  22.631  0.00  0.00    +0.000 HD
ENDBRANCH   7  14
BRANCH  10  16
ATOM     16  O   UNL     1       2.589  11.687  17.220  0.00  0.00    +0.000 OA
ATOM     17  H   UNL     1       2.087  11.158  16.583  0.00  0.00    +0.000 HD
ENDBRANCH  10  16
ENDBRANCH   1   2
BRANCH   1  18
ATOM     18  C   UNL     1       1.628   5.446  18.901  0.00  0.00    +0.000 C 
BRANCH  18  22
ATOM     19  C   UNL     1       1.359   2.738  21.686  0.00  0.00    +0.000 C 
ATOM     20  C   UNL     1       1.181   3.359  20.329  0.00  0.00    +0.000 C 
ATOM     21  C   UNL     1       0.507   2.544  19.267  0.00  0.00    +0.000 C 
ATOM     22  C   UNL     1       1.645   4.607  20.141  0.00  0.00    +0.000 C 
ENDBRANCH  18  22
ENDBRANCH   1  18
BRANCH   1  23
ATOM     23  O   UNL     1       3.247   6.932  17.779  0.00  0.00    +0.000 OA
BRANCH  23  24
ATOM     24  C   UNL     1       4.394   6.202  17.754  0.00  0.00    +0.000 C 
ATOM     25  O   UNL     1       5.459   6.594  18.221  0.00  0.00    +0.000 OA
BRANCH  24  26
ATOM     26  C   UNL     1       4.220   4.883  17.021  0.00  0.00    +0.000 C 
BRANCH  26  27
ATOM     27  C   UNL     1       5.270   4.849  15.904  0.00  0.00    +0.000 A 
ATOM     28  C   UNL     1       4.990   4.249  14.664  0.00  0.00    +0.000 A 
ATOM     29  C   UNL     1       5.966   4.176  13.670  0.00  0.00    +0.000 A 
ATOM     30  C   UNL     1       7.243   4.680  13.907  0.00  0.00    +0.000 A 
ATOM     31  C   UNL     1       7.548   5.244  15.145  0.00  0.00    +0.000 A 
ATOM     32  C   UNL     1       6.571   5.327  16.139  0.00  0.00    +0.000 A 
ENDBRANCH  26  27
BRANCH  26  33
ATOM     33  C   UNL     1       4.225   3.653  17.948  0.00  0.00    +0.000 A 
ATOM     34  C   UNL     1       4.801   3.665  19.232  0.00  0.00    +0.000 A 
ATOM     35  C   UNL     1       4.839   2.520  20.027  0.00  0.00    +0.000 A 
ATOM     36  C   UNL     1       4.265   1.341  19.570  0.00  0.00    +0.000 A 
ATOM     37  C   UNL     1       3.645   1.313  18.324  0.00  0.00    +0.000 A 
ATOM     38  C   UNL     1       3.617   2.457  17.521  0.00  0.00    +0.000 A 
ENDBRANCH  26  33
ENDBRANCH  24  26
ENDBRANCH  23  24
ENDBRANCH   1  23
TORSDOF 10
ENDMDL
MODEL 3
REMARK VINA RESULT:      -7.9      2.487      4.398
REMARK  Name = 
REMARK  12 active torsions:
REMARK  status: ('A' for Active; 'I' for Inactive)
REMARK    1  A    between atoms: C_1  and  C_2
REMARK    2  A    between atoms: C_2  and  C_3
REMARK    3  A    between atoms: C_4  and  C_5
REMARK    4  A    between atoms: C_5  and  C_6
REMARK    5  A    between atoms: C_6  and  O_7
REMARK    6  A    between atoms: C_6  and  C_23
REMARK    7  A    between atoms: O_7  and  C_8
REMARK    8  A    between atoms: C_8  and  C_10
REMARK    9  A    between atoms: C_10  and  C_11
REMARK   10  A    between atoms: C_10  and  C_17
REMARK   11  A    between atoms: C_28  and  O_29
REMARK   12  A    between atoms: C_32  and  O_33
REMARK                            x       y       z     vdW  Elec       q    Type
REMARK                         _______ _______ _______ _____ _____    ______ ____
ROOT
ATOM      1  C   UNL     1       0.800   9.533  18.563  0.00  0.00    +0.000 C 
ENDROOT
BRANCH   1   2
ATOM      2  C   UNL     1       1.238  10.889  19.093  0.00  0.00    +0.000 C 
ATOM      3  C   UNL     1       1.842  11.745  18.251  0.00  0.00    +0.000 C 
ATOM      4  C   UNL     1       2.546  12.937  18.747  0.00  0.00    +0.000 C 
ATOM      5  O   UNL     1       3.493  13.425  18.150  0.00  0.00    +0.000 OA
ATOM      6  C   UNL     1       1.999  13.558  19.951  0.00  0.00    +0.000 A 
ATOM      7  C   UNL     1       2.203  14.917  20.190  0.00  0.00    +0.000 A 
ATOM      8  C   UNL     1       1.449  15.561  21.161  0.00  0.00    +0.000 A 
ATOM      9  C   UNL     1       0.517  14.832  21.905  0.00  0.00    +0.000 A 
ATOM     10  C   UNL     1       0.383  13.452  21.718  0.00  0.00    +0.000 A 
ATOM     11  C   UNL     1       1.147  12.799  20.751  0.00  0.00    +0.000 A 
ATOM     12  C   UNL     1       1.102  11.332  20.514  0.00  0.00    +0.000 C 
ATOM     13  O   UNL     1       1.034  10.558  21.455  0.00  0.00    +0.000 OA
BRANCH   7  14
ATOM     14  O   UNL     1       3.092  15.674  19.478  0.00  0.00    +0.000 OA
ATOM     15  H   UNL     1       3.470  16.357  20.079  0.00  0.00    +0.000 HD
ENDBRANCH   7  14
BRANCH  10  16
ATOM     16  O   UNL     1      -0.561  12.769  22.425  0.00  0.00    +0.000 OA
ATOM     17  H   UNL     1      -1.412  13.229  22.385  0.00  0.00    +0.000 HD
ENDBRANCH  10  16
ENDBRANCH   1   2
BRANCH   1  18
ATOM     18  C   UNL     1      -0.343   9.286  17.540  0.00  0.00    +0.000 C 
BRANCH  18  22
ATOM     19  C   UNL     1      -3.839  11.001  17.516  0.00  0.00    +0.000 C 
ATOM     20  C   UNL     1      -2.652  10.256  16.972  0.00  0.00    +0.000 C 
ATOM     21  C   UNL     1      -2.695   9.816  15.541  0.00  0.00    +0.000 C 
ATOM     22  C   UNL     1      -1.622  10.019  17.803  0.00  0.00    +0.000 C 
ENDBRANCH  18  22
ENDBRANCH   1  18
BRANCH   1  23
ATOM     23  O   UNL     1       1.974   8.756  18.201  0.00  0.00    +0.000 OA
BRANCH  23  24
ATOM     24  C   UNL     1       2.246   7.696  19.010  0.00  0.00    +0.000 C 
ATOM     25  O   UNL     1       2.235   7.758  20.236  0.00  0.00    +0.000 OA
BRANCH  24  26
ATOM     26  C   UNL     1       2.630   6.456  18.223  0.00  0.00    +0.000 C 
BRANCH  26  27
ATOM     27  C   UNL     1       4.162   6.424  18.158  0.00  0.00    +0.000 A 
ATOM     28  C   UNL     1       4.860   7.109  17.148  0.00  0.00    +0.000 A 
ATOM     29  C   UNL     1       6.250   7.034  17.065  0.00  0.00    +0.000 A 
ATOM     30  C   UNL     1       6.962   6.255  17.972  0.00  0.00    +0.000 A 
ATOM     31  C   UNL     1       6.283   5.538  18.956  0.00  0.00    +0.000 A 
ATOM     32  C   UNL     1       4.892   5.619  19.049  0.00  0.00    +0.000 A 
ENDBRANCH  26  27
BRANCH  26  33
ATOM     33  C   UNL     1       1.979   5.162  18.745  0.00  0.00    +0.000 A 
ATOM     34  C   UNL     1       1.658   4.076  17.910  0.00  0.00    +0.000 A 
ATOM     35  C   UNL     1       1.018   2.939  18.403  0.00  0.00    +0.000 A 
ATOM     36  C   UNL     1       0.717   2.846  19.755  0.00  0.00    +0.000 A 
ATOM     37  C   UNL     1       1.067   3.885  20.613  0.00  0.00    +0.000 A 
ATOM     38  C   UNL     1       1.697   5.030  20.118  0.00  0.00    +0.000 A 
ENDBRANCH  26  33
ENDBRANCH  24  26
ENDBRANCH  23  24
ENDBRANCH   1  23
TORSDOF 10
ENDMDL
MODEL 4
REMARK VINA RESULT:      -7.9      2.478      4.368
REMARK  Name = 
REMARK  12 active torsions:
REMARK  status: ('A' for Active; 'I' for Inactive)
REMARK    1  A    between atoms: C_1  and  C_2
REMARK    2  A    between atoms: C_2  and  C_3
REMARK    3  A    between atoms: C_4  and  C_5
REMARK    4  A    between atoms: C_5  and  C_6
REMARK    5  A    between atoms: C_6  and  O_7
REMARK    6  A    between atoms: C_6  and  C_23
REMARK    7  A    between atoms: O_7  and  C_8
REMARK    8  A    between atoms: C_8  and  C_10
REMARK    9  A    between atoms: C_10  and  C_11
REMARK   10  A    between atoms: C_10  and  C_17
REMARK   11  A    between atoms: C_28  and  O_29
REMARK   12  A    between atoms: C_32  and  O_33
REMARK                            x       y       z     vdW  Elec       q    Type
REMARK                         _______ _______ _______ _____ _____    ______ ____
ROOT
ATOM      1  C   UNL     1       0.797   9.511  18.563  0.00  0.00    +0.000 C 
ENDROOT
BRANCH   1   2
ATOM      2  C   UNL     1       1.236  10.868  19.091  0.00  0.00    +0.000 C 
ATOM      3  C   UNL     1       1.848  11.719  18.250  0.00  0.00    +0.000 C 
ATOM      4  C   UNL     1       2.552  12.910  18.747  0.00  0.00    +0.000 C 
ATOM      5  O   UNL     1       3.505  13.394  18.155  0.00  0.00    +0.000 OA
ATOM      6  C   UNL     1       1.998  13.537  19.946  0.00  0.00    +0.000 A 
ATOM      7  C   UNL     1       2.205  14.896  20.181  0.00  0.00    +0.000 A 
ATOM      8  C   UNL     1       1.446  15.546  21.145  0.00  0.00    +0.000 A 
ATOM      9  C   UNL     1       0.506  14.822  21.885  0.00  0.00    +0.000 A 
ATOM     10  C   UNL     1       0.370  13.442  21.701  0.00  0.00    +0.000 A 
ATOM     11  C   UNL     1       1.139  12.784  20.741  0.00  0.00    +0.000 A 
ATOM     12  C   UNL     1       1.091  11.315  20.510  0.00  0.00    +0.000 C 
ATOM     13  O   UNL     1       1.014  10.545  21.453  0.00  0.00    +0.000 OA
BRANCH   7  14
ATOM     14  O   UNL     1       3.101  15.649  19.473  0.00  0.00    +0.000 OA
ATOM     15  H   UNL     1       2.842  16.596  19.551  0.00  0.00    +0.000 HD
ENDBRANCH   7  14
BRANCH  10  16
ATOM     16  O   UNL     1      -0.581  12.764  22.404  0.00  0.00    +0.000 OA
ATOM     17  H   UNL     1      -0.864  13.280  23.173  0.00  0.00    +0.000 HD
ENDBRANCH  10  16
ENDBRANCH   1   2
BRANCH   1  18
ATOM     18  C   UNL     1      -0.361   9.262  17.557  0.00  0.00    +0.000 C 
BRANCH  18  22
ATOM     19  C   UNL     1      -3.781  11.119  17.461  0.00  0.00    +0.000 C 
ATOM     20  C   UNL     1      -2.627  10.304  16.948  0.00  0.00    +0.000 C 
ATOM     21  C   UNL     1      -2.689   9.810  15.536  0.00  0.00    +0.000 C 
ATOM     22  C   UNL     1      -1.607  10.057  17.790  0.00  0.00    +0.000 C 
ENDBRANCH  18  22
ENDBRANCH   1  18
BRANCH   1  23
ATOM     23  O   UNL     1       1.970   8.743  18.178  0.00  0.00    +0.000 OA
BRANCH  23  24
ATOM     24  C   UNL     1       2.277   7.698  18.994  0.00  0.00    +0.000 C 
ATOM     25  O   UNL     1       2.342   7.786  20.216  0.00  0.00    +0.000 OA
BRANCH  24  26
ATOM     26  C   UNL     1       2.598   6.435  18.213  0.00  0.00    +0.000 C 
BRANCH  26  27
ATOM     27  C   UNL     1       4.124   6.355  18.099  0.00  0.00    +0.000 A 
ATOM     28  C   UNL     1       4.880   5.590  19.005  0.00  0.00    +0.000 A 
ATOM     29  C   UNL     1       6.272   5.562  18.928  0.00  0.00    +0.000 A 
ATOM     30  C   UNL     1       6.933   6.315  17.960  0.00  0.00    +0.000 A 
ATOM     31  C   UNL     1       6.201   7.108  17.078  0.00  0.00    +0.000 A 
ATOM     32  C   UNL     1       4.806   7.131  17.147  0.00  0.00    +0.000 A 
ENDBRANCH  26  27
BRANCH  26  33
ATOM     33  C   UNL     1       1.925   5.169  18.776  0.00  0.00    +0.000 A 
ATOM     34  C   UNL     1       1.622   5.008  20.141  0.00  0.00    +0.000 A 
ATOM     35  C   UNL     1       1.063   3.827  20.631  0.00  0.00    +0.000 A 
ATOM     36  C   UNL     1       0.757   2.792  19.758  0.00  0.00    +0.000 A 
ATOM     37  C   UNL     1       1.001   2.944  18.395  0.00  0.00    +0.000 A 
ATOM     38  C   UNL     1       1.572   4.121  17.905  0.00  0.00    +0.000 A 
ENDBRANCH  26  33
ENDBRANCH  24  26
ENDBRANCH  23  24
ENDBRANCH   1  23
TORSDOF 10
ENDMDL
MODEL 5
REMARK VINA RESULT:      -7.9      1.633      2.828
REMARK  Name = 
REMARK  12 active torsions:
REMARK  status: ('A' for Active; 'I' for Inactive)
REMARK    1  A    between atoms: C_1  and  C_2
REMARK    2  A    between atoms: C_2  and  C_3
REMARK    3  A    between atoms: C_4  and  C_5
REMARK    4  A    between atoms: C_5  and  C_6
REMARK    5  A    between atoms: C_6  and  O_7
REMARK    6  A    between atoms: C_6  and  C_23
REMARK    7  A    between atoms: O_7  and  C_8
REMARK    8  A    between atoms: C_8  and  C_10
REMARK    9  A    between atoms: C_10  and  C_11
REMARK   10  A    between atoms: C_10  and  C_17
REMARK   11  A    between atoms: C_28  and  O_29
REMARK   12  A    between atoms: C_32  and  O_33
REMARK                            x       y       z     vdW  Elec       q    Type
REMARK                         _______ _______ _______ _____ _____    ______ ____
ROOT
ATOM      1  C   UNL     1       2.321   6.872  19.910  0.00  0.00    +0.000 C 
ENDROOT
BRANCH   1   2
ATOM      2  C   UNL     1       1.771   8.277  20.095  0.00  0.00    +0.000 C 
ATOM      3  C   UNL     1       1.496   8.702  21.340  0.00  0.00    +0.000 C 
ATOM      4  C   UNL     1       0.702   9.916  21.575  0.00  0.00    +0.000 C 
ATOM      5  O   UNL     1       0.012  10.056  22.574  0.00  0.00    +0.000 OA
ATOM      6  C   UNL     1       0.845  10.985  20.589  0.00  0.00    +0.000 A 
ATOM      7  C   UNL     1       0.610  12.310  20.958  0.00  0.00    +0.000 A 
ATOM      8  C   UNL     1       1.025  13.336  20.119  0.00  0.00    +0.000 A 
ATOM      9  C   UNL     1       1.646  13.025  18.906  0.00  0.00    +0.000 A 
ATOM     10  C   UNL     1       1.797  11.692  18.507  0.00  0.00    +0.000 A 
ATOM     11  C   UNL     1       1.370  10.659  19.341  0.00  0.00    +0.000 A 
ATOM     12  C   UNL     1       1.451   9.219  18.980  0.00  0.00    +0.000 C 
ATOM     13  O   UNL     1       1.189   8.853  17.845  0.00  0.00    +0.000 OA
BRANCH   7  14
ATOM     14  O   UNL     1       0.020  12.663  22.140  0.00  0.00    +0.000 OA
ATOM     15  H   UNL     1      -0.033  11.863  22.712  0.00  0.00    +0.000 HD
ENDBRANCH   7  14
BRANCH  10  16
ATOM     16  O   UNL     1       2.441  11.412  17.339  0.00  0.00    +0.000 OA
ATOM     17  H   UNL     1       2.855  10.538  17.383  0.00  0.00    +0.000 HD
ENDBRANCH  10  16
ENDBRANCH   1   2
BRANCH   1  18
ATOM     18  C   UNL     1       1.475   5.595  19.650  0.00  0.00    +0.000 C 
BRANCH  18  22
ATOM     19  C   UNL     1       1.372   2.401  21.875  0.00  0.00    +0.000 C 
ATOM     20  C   UNL     1       1.151   3.256  20.658  0.00  0.00    +0.000 C 
ATOM     21  C   UNL     1       0.514   2.620  19.461  0.00  0.00    +0.000 C 
ATOM     22  C   UNL     1       1.546   4.540  20.709  0.00  0.00    +0.000 C 
ENDBRANCH  18  22
ENDBRANCH   1  18
BRANCH   1  23
ATOM     23  O   UNL     1       3.457   6.915  19.003  0.00  0.00    +0.000 OA
BRANCH  23  24
ATOM     24  C   UNL     1       3.280   6.275  17.815  0.00  0.00    +0.000 C 
ATOM     25  O   UNL     1       2.288   6.418  17.107  0.00  0.00    +0.000 OA
BRANCH  24  26
ATOM     26  C   UNL     1       4.416   5.315  17.506  0.00  0.00    +0.000 C 
BRANCH  26  27
ATOM     27  C   UNL     1       5.721   6.036  17.863  0.00  0.00    +0.000 A 
ATOM     28  C   UNL     1       6.133   7.182  17.160  0.00  0.00    +0.000 A 
ATOM     29  C   UNL     1       7.347   7.803  17.456  0.00  0.00    +0.000 A 
ATOM     30  C   UNL     1       8.178   7.276  18.442  0.00  0.00    +0.000 A 
ATOM     31  C   UNL     1       7.802   6.119  19.122  0.00  0.00    +0.000 A 
ATOM     32  C   UNL     1       6.584   5.500  18.834  0.00  0.00    +0.000 A 
ENDBRANCH  26  27
BRANCH  26  33
ATOM     33  C   UNL     1       4.248   3.927  18.150  0.00  0.00    +0.000 A 
ATOM     34  C   UNL     1       4.692   3.629  19.452  0.00  0.00    +0.000 A 
ATOM     35  C   UNL     1       4.576   2.347  19.989  0.00  0.00    +0.000 A 
ATOM     36  C   UNL     1       3.976   1.338  19.247  0.00  0.00    +0.000 A 
ATOM     37  C   UNL     1       3.483   1.617  17.975  0.00  0.00    +0.000 A 
ATOM     38  C   UNL     1       3.610   2.898  17.432  0.00  0.00    +0.000 A 
ENDBRANCH  26  33
ENDBRANCH  24  26
ENDBRANCH  23  24
ENDBRANCH   1  23
TORSDOF 10
ENDMDL
MODEL 6
REMARK VINA RESULT:      -7.9      1.551      3.207
REMARK  Name = 
REMARK  12 active torsions:
REMARK  status: ('A' for Active; 'I' for Inactive)
REMARK    1  A    between atoms: C_1  and  C_2
REMARK    2  A    between atoms: C_2  and  C_3
REMARK    3  A    between atoms: C_4  and  C_5
REMARK    4  A    between atoms: C_5  and  C_6
REMARK    5  A    between atoms: C_6  and  O_7
REMARK    6  A    between atoms: C_6  and  C_23
REMARK    7  A    between atoms: O_7  and  C_8
REMARK    8  A    between atoms: C_8  and  C_10
REMARK    9  A    between atoms: C_10  and  C_11
REMARK   10  A    between atoms: C_10  and  C_17
REMARK   11  A    between atoms: C_28  and  O_29
REMARK   12  A    between atoms: C_32  and  O_33
REMARK                            x       y       z     vdW  Elec       q    Type
REMARK                         _______ _______ _______ _____ _____    ______ ____
ROOT
ATOM      1  C   UNL     1       2.377   6.063  18.466  0.00  0.00    +0.000 C 
ENDROOT
BRANCH   1   2
ATOM      2  C   UNL     1       2.011   7.509  18.761  0.00  0.00    +0.000 C 
ATOM      3  C   UNL     1       2.092   8.409  17.766  0.00  0.00    +0.000 C 
ATOM      4  C   UNL     1       2.040   9.854  18.036  0.00  0.00    +0.000 C 
ATOM      5  O   UNL     1       2.599  10.668  17.318  0.00  0.00    +0.000 OA
ATOM      6  C   UNL     1       1.212  10.272  19.165  0.00  0.00    +0.000 A 
ATOM      7  C   UNL     1       0.656  11.551  19.186  0.00  0.00    +0.000 A 
ATOM      8  C   UNL     1      -0.353  11.843  20.094  0.00  0.00    +0.000 A 
ATOM      9  C   UNL     1      -0.776  10.859  20.993  0.00  0.00    +0.000 A 
ATOM     10  C   UNL     1      -0.151   9.608  21.022  0.00  0.00    +0.000 A 
ATOM     11  C   UNL     1       0.871   9.316  20.118  0.00  0.00    +0.000 A 
ATOM     12  C   UNL     1       1.620   8.031  20.106  0.00  0.00    +0.000 C 
ATOM     13  O   UNL     1       1.947   7.498  21.154  0.00  0.00    +0.000 OA
BRANCH   7  14
ATOM     14  O   UNL     1       1.026  12.541  18.317  0.00  0.00    +0.000 OA
ATOM     15  H   UNL     1       0.679  12.316  17.424  0.00  0.00    +0.000 HD
ENDBRANCH   7  14
BRANCH  10  16
ATOM     16  O   UNL     1      -0.607   8.651  21.878  0.00  0.00    +0.000 OA
ATOM     17  H   UNL     1       0.120   8.309  22.420  0.00  0.00    +0.000 HD
ENDBRANCH  10  16
ENDBRANCH   1   2
BRANCH   1  18
ATOM     18  C   UNL     1       1.443   4.836  18.654  0.00  0.00    +0.000 C 
BRANCH  18  22
ATOM     19  C   UNL     1       1.653   2.559  21.805  0.00  0.00    +0.000 C 
ATOM     20  C   UNL     1       1.652   2.915  20.345  0.00  0.00    +0.000 C 
ATOM     21  C   UNL     1       1.874   1.814  19.354  0.00  0.00    +0.000 C 
ATOM     22  C   UNL     1       1.463   4.204  20.010  0.00  0.00    +0.000 C 
ENDBRANCH  18  22
ENDBRANCH   1  18
BRANCH   1  23
ATOM     23  O   UNL     1       3.050   5.990  17.180  0.00  0.00    +0.000 OA
BRANCH  23  24
ATOM     24  C   UNL     1       4.257   5.362  17.187  0.00  0.00    +0.000 C 
ATOM     25  O   UNL     1       4.496   4.356  17.848  0.00  0.00    +0.000 OA
BRANCH  24  26
ATOM     26  C   UNL     1       5.287   6.091  16.342  0.00  0.00    +0.000 C 
BRANCH  26  27
ATOM     27  C   UNL     1       6.398   6.556  17.291  0.00  0.00    +0.000 A 
ATOM     28  C   UNL     1       6.978   7.830  17.160  0.00  0.00    +0.000 A 
ATOM     29  C   UNL     1       8.023   8.227  17.994  0.00  0.00    +0.000 A 
ATOM     30  C   UNL     1       8.520   7.351  18.955  0.00  0.00    +0.000 A 
ATOM     31  C   UNL     1       7.981   6.071  19.074  0.00  0.00    +0.000 A 
ATOM     32  C   UNL     1       6.929   5.673  18.247  0.00  0.00    +0.000 A 
ENDBRANCH  26  27
BRANCH  26  33
ATOM     33  C   UNL     1       5.775   5.283  15.125  0.00  0.00    +0.000 A 
ATOM     34  C   UNL     1       7.091   5.361  14.632  0.00  0.00    +0.000 A 
ATOM     35  C   UNL     1       7.489   4.660  13.495  0.00  0.00    +0.000 A 
ATOM     36  C   UNL     1       6.587   3.829  12.843  0.00  0.00    +0.000 A 
ATOM     37  C   UNL     1       5.292   3.694  13.337  0.00  0.00    +0.000 A 
ATOM     38  C   UNL     1       4.889   4.407  14.470  0.00  0.00    +0.000 A 
ENDBRANCH  26  33
ENDBRANCH  24  26
ENDBRANCH  23  24
ENDBRANCH   1  23
TORSDOF 10
ENDMDL
MODEL 7
REMARK VINA RESULT:      -7.8      0.575      1.159
REMARK  Name = 
REMARK  12 active torsions:
REMARK  status: ('A' for Active; 'I' for Inactive)
REMARK    1  A    between atoms: C_1  and  C_2
REMARK    2  A    between atoms: C_2  and  C_3
REMARK    3  A    between atoms: C_4  and  C_5
REMARK    4  A    between atoms: C_5  and  C_6
REMARK    5  A    between atoms: C_6  and  O_7
REMARK    6  A    between atoms: C_6  and  C_23
REMARK    7  A    between atoms: O_7  and  C_8
REMARK    8  A    between atoms: C_8  and  C_10
REMARK    9  A    between atoms: C_10  and  C_11
REMARK   10  A    between atoms: C_10  and  C_17
REMARK   11  A    between atoms: C_28  and  O_29
REMARK   12  A    between atoms: C_32  and  O_33
REMARK                            x       y       z     vdW  Elec       q    Type
REMARK                         _______ _______ _______ _____ _____    ______ ____
ROOT
ATOM      1  C   UNL     1       2.427   6.778  18.667  0.00  0.00    +0.000 C 
ENDROOT
BRANCH   1   2
ATOM      2  C   UNL     1       1.977   8.188  19.016  0.00  0.00    +0.000 C 
ATOM      3  C   UNL     1       2.022   9.133  18.061  0.00  0.00    +0.000 C 
ATOM      4  C   UNL     1       1.885  10.559  18.391  0.00  0.00    +0.000 C 
ATOM      5  O   UNL     1       2.409  11.433  17.717  0.00  0.00    +0.000 OA
ATOM      6  C   UNL     1       1.019  10.883  19.523  0.00  0.00    +0.000 A 
ATOM      7  C   UNL     1       0.392  12.127  19.587  0.00  0.00    +0.000 A 
ATOM      8  C   UNL     1      -0.645  12.323  20.490  0.00  0.00    +0.000 A 
ATOM      9  C   UNL     1      -1.025  11.280  21.339  0.00  0.00    +0.000 A 
ATOM     10  C   UNL     1      -0.331  10.065  21.326  0.00  0.00    +0.000 A 
ATOM     11  C   UNL     1       0.718   9.869  20.428  0.00  0.00    +0.000 A 
ATOM     12  C   UNL     1       1.538   8.629  20.375  0.00  0.00    +0.000 C 
ATOM     13  O   UNL     1       1.878   8.071  21.405  0.00  0.00    +0.000 OA
BRANCH   7  14
ATOM     14  O   UNL     1       0.719  13.172  18.768  0.00  0.00    +0.000 OA
ATOM     15  H   UNL     1       1.157  13.868  19.310  0.00  0.00    +0.000 HD
ENDBRANCH   7  14
BRANCH  10  16
ATOM     16  O   UNL     1      -0.746   9.049  22.133  0.00  0.00    +0.000 OA
ATOM     17  H   UNL     1      -0.840   8.230  21.625  0.00  0.00    +0.000 HD
ENDBRANCH  10  16
ENDBRANCH   1   2
BRANCH   1  18
ATOM     18  C   UNL     1       1.539   5.504  18.723  0.00  0.00    +0.000 C 
BRANCH  18  22
ATOM     19  C   UNL     1       1.433   2.891  21.608  0.00  0.00    +0.000 C 
ATOM     20  C   UNL     1       1.193   3.459  20.237  0.00  0.00    +0.000 C 
ATOM     21  C   UNL     1       0.503   2.592  19.229  0.00  0.00    +0.000 C 
ATOM     22  C   UNL     1       1.620   4.710  19.990  0.00  0.00    +0.000 C 
ENDBRANCH  18  22
ENDBRANCH   1  18
BRANCH   1  23
ATOM     23  O   UNL     1       3.184   6.808  17.426  0.00  0.00    +0.000 OA
BRANCH  23  24
ATOM     24  C   UNL     1       4.364   6.131  17.445  0.00  0.00    +0.000 C 
ATOM     25  O   UNL     1       5.413   6.607  17.868  0.00  0.00    +0.000 OA
BRANCH  24  26
ATOM     26  C   UNL     1       4.245   4.752  16.820  0.00  0.00    +0.000 C 
BRANCH  26  27
ATOM     27  C   UNL     1       5.329   4.656  15.739  0.00  0.00    +0.000 A 
ATOM     28  C   UNL     1       6.599   5.227  15.933  0.00  0.00    +0.000 A 
ATOM     29  C   UNL     1       7.563   5.181  14.925  0.00  0.00    +0.000 A 
ATOM     30  C   UNL     1       7.266   4.586  13.702  0.00  0.00    +0.000 A 
ATOM     31  C   UNL     1       5.998   4.050  13.479  0.00  0.00    +0.000 A 
ATOM     32  C   UNL     1       5.034   4.086  14.489  0.00  0.00    +0.000 A 
ENDBRANCH  26  27
BRANCH  26  33
ATOM     33  C   UNL     1       4.253   3.603  17.845  0.00  0.00    +0.000 A 
ATOM     34  C   UNL     1       4.821   3.726  19.127  0.00  0.00    +0.000 A 
ATOM     35  C   UNL     1       4.862   2.650  20.014  0.00  0.00    +0.000 A 
ATOM     36  C   UNL     1       4.300   1.433  19.653  0.00  0.00    +0.000 A 
ATOM     37  C   UNL     1       3.688   1.298  18.409  0.00  0.00    +0.000 A 
ATOM     38  C   UNL     1       3.657   2.371  17.515  0.00  0.00    +0.000 A 
ENDBRANCH  26  33
ENDBRANCH  24  26
ENDBRANCH  23  24
ENDBRANCH   1  23
TORSDOF 10
ENDMDL
MODEL 8
REMARK VINA RESULT:      -7.8      1.570      2.011
REMARK  Name = 
REMARK  12 active torsions:
REMARK  status: ('A' for Active; 'I' for Inactive)
REMARK    1  A    between atoms: C_1  and  C_2
REMARK    2  A    between atoms: C_2  and  C_3
REMARK    3  A    between atoms: C_4  and  C_5
REMARK    4  A    between atoms: C_5  and  C_6
REMARK    5  A    between atoms: C_6  and  O_7
REMARK    6  A    between atoms: C_6  and  C_23
REMARK    7  A    between atoms: O_7  and  C_8
REMARK    8  A    between atoms: C_8  and  C_10
REMARK    9  A    between atoms: C_10  and  C_11
REMARK   10  A    between atoms: C_10  and  C_17
REMARK   11  A    between atoms: C_28  and  O_29
REMARK   12  A    between atoms: C_32  and  O_33
REMARK                            x       y       z     vdW  Elec       q    Type
REMARK                         _______ _______ _______ _____ _____    ______ ____
ROOT
ATOM      1  C   UNL     1       2.265   6.965  20.073  0.00  0.00    +0.000 C 
ENDROOT
BRANCH   1   2
ATOM      2  C   UNL     1       1.690   8.363  20.238  0.00  0.00    +0.000 C 
ATOM      3  C   UNL     1       1.496   9.113  19.140  0.00  0.00    +0.000 C 
ATOM      4  C   UNL     1       1.225  10.554  19.238  0.00  0.00    +0.000 C 
ATOM      5  O   UNL     1       1.546  11.335  18.355  0.00  0.00    +0.000 OA
ATOM      6  C   UNL     1       0.474  10.995  20.412  0.00  0.00    +0.000 A 
ATOM      7  C   UNL     1      -0.290  12.160  20.354  0.00  0.00    +0.000 A 
ATOM      8  C   UNL     1      -1.221  12.416  21.352  0.00  0.00    +0.000 A 
ATOM      9  C   UNL     1      -1.358  11.517  22.413  0.00  0.00    +0.000 A 
ATOM     10  C   UNL     1      -0.525  10.396  22.506  0.00  0.00    +0.000 A 
ATOM     11  C   UNL     1       0.419  10.142  21.511  0.00  0.00    +0.000 A 
ATOM     12  C   UNL     1       1.374   9.002  21.551  0.00  0.00    +0.000 C 
ATOM     13  O   UNL     1       1.908   8.683  22.600  0.00  0.00    +0.000 OA
BRANCH   7  14
ATOM     14  O   UNL     1      -0.202  13.061  19.329  0.00  0.00    +0.000 OA
ATOM     15  H   UNL     1      -0.547  13.927  19.646  0.00  0.00    +0.000 HD
ENDBRANCH   7  14
BRANCH  10  16
ATOM     16  O   UNL     1      -0.704   9.512  23.527  0.00  0.00    +0.000 OA
ATOM     17  H   UNL     1      -0.955   9.978  24.338  0.00  0.00    +0.000 HD
ENDBRANCH  10  16
ENDBRANCH   1   2
BRANCH   1  18
ATOM     18  C   UNL     1       1.444   5.673  19.805  0.00  0.00    +0.000 C 
BRANCH  18  22
ATOM     19  C   UNL     1       1.485   2.413  21.934  0.00  0.00    +0.000 C 
ATOM     20  C   UNL     1       1.165   3.311  20.771  0.00  0.00    +0.000 C 
ATOM     21  C   UNL     1       0.398   2.726  19.624  0.00  0.00    +0.000 C 
ATOM     22  C   UNL     1       1.594   4.584  20.821  0.00  0.00    +0.000 C 
ENDBRANCH  18  22
ENDBRANCH   1  18
BRANCH   1  23
ATOM     23  O   UNL     1       3.417   7.019  19.187  0.00  0.00    +0.000 OA
BRANCH  23  24
ATOM     24  C   UNL     1       3.207   6.554  17.926  0.00  0.00    +0.000 C 
ATOM     25  O   UNL     1       2.232   6.855  17.245  0.00  0.00    +0.000 OA
BRANCH  24  26
ATOM     26  C   UNL     1       4.278   5.569  17.492  0.00  0.00    +0.000 C 
BRANCH  26  27
ATOM     27  C   UNL     1       5.632   6.190  17.856  0.00  0.00    +0.000 A 
ATOM     28  C   UNL     1       6.106   7.335  17.192  0.00  0.00    +0.000 A 
ATOM     29  C   UNL     1       7.361   7.865  17.493  0.00  0.00    +0.000 A 
ATOM     30  C   UNL     1       8.171   7.247  18.442  0.00  0.00    +0.000 A 
ATOM     31  C   UNL     1       7.731   6.090  19.083  0.00  0.00    +0.000 A 
ATOM     32  C   UNL     1       6.472   5.562  18.791  0.00  0.00    +0.000 A 
ENDBRANCH  26  27
BRANCH  26  33
ATOM     33  C   UNL     1       4.060   4.140  18.024  0.00  0.00    +0.000 A 
ATOM     34  C   UNL     1       4.606   3.685  19.239  0.00  0.00    +0.000 A 
ATOM     35  C   UNL     1       4.437   2.369  19.668  0.00  0.00    +0.000 A 
ATOM     36  C   UNL     1       3.683   1.484  18.908  0.00  0.00    +0.000 A 
ATOM     37  C   UNL     1       3.090   1.922  17.726  0.00  0.00    +0.000 A 
ATOM     38  C   UNL     1       3.269   3.237  17.289  0.00  0.00    +0.000 A 
ENDBRANCH  26  33
ENDBRANCH  24  26
ENDBRANCH  23  24
ENDBRANCH   1  23
TORSDOF 10
ENDMDL
MODEL 9
REMARK VINA RESULT:      -7.7      1.633      3.482
REMARK  Name = 
REMARK  12 active torsions:
REMARK  status: ('A' for Active; 'I' for Inactive)
REMARK    1  A    between atoms: C_1  and  C_2
REMARK    2  A    between atoms: C_2  and  C_3
REMARK    3  A    between atoms: C_4  and  C_5
REMARK    4  A    between atoms: C_5  and  C_6
REMARK    5  A    between atoms: C_6  and  O_7
REMARK    6  A    between atoms: C_6  and  C_23
REMARK    7  A    between atoms: O_7  and  C_8
REMARK    8  A    between atoms: C_8  and  C_10
REMARK    9  A    between atoms: C_10  and  C_11
REMARK   10  A    between atoms: C_10  and  C_17
REMARK   11  A    between atoms: C_28  and  O_29
REMARK   12  A    between atoms: C_32  and  O_33
REMARK                            x       y       z     vdW  Elec       q    Type
REMARK                         _______ _______ _______ _____ _____    ______ ____
ROOT
ATOM      1  C   UNL     1       2.488   5.399  18.244  0.00  0.00    +0.000 C 
ENDROOT
BRANCH   1   2
ATOM      2  C   UNL     1       2.147   6.835  18.610  0.00  0.00    +0.000 C 
ATOM      3  C   UNL     1       2.203   7.774  17.650  0.00  0.00    +0.000 C 
ATOM      4  C   UNL     1       2.174   9.207  17.979  0.00  0.00    +0.000 C 
ATOM      5  O   UNL     1       2.718  10.044  17.276  0.00  0.00    +0.000 OA
ATOM      6  C   UNL     1       1.389   9.586  19.152  0.00  0.00    +0.000 A 
ATOM      7  C   UNL     1       0.846  10.868  19.242  0.00  0.00    +0.000 A 
ATOM      8  C   UNL     1      -0.129  11.131  20.195  0.00  0.00    +0.000 A 
ATOM      9  C   UNL     1      -0.531  10.115  21.067  0.00  0.00    +0.000 A 
ATOM     10  C   UNL     1       0.083   8.859  21.024  0.00  0.00    +0.000 A 
ATOM     11  C   UNL     1       1.071   8.595  20.076  0.00  0.00    +0.000 A 
ATOM     12  C   UNL     1       1.806   7.305  19.987  0.00  0.00    +0.000 C 
ATOM     13  O   UNL     1       2.162   6.727  21.001  0.00  0.00    +0.000 OA
BRANCH   7  14
ATOM     14  O   UNL     1       1.197  11.889  18.403  0.00  0.00    +0.000 OA
ATOM     15  H   UNL     1       0.981  11.621  17.480  0.00  0.00    +0.000 HD
ENDBRANCH   7  14
BRANCH  10  16
ATOM     16  O   UNL     1      -0.354   7.872  21.857  0.00  0.00    +0.000 OA
ATOM     17  H   UNL     1      -0.521   8.226  22.742  0.00  0.00    +0.000 HD
ENDBRANCH  10  16
ENDBRANCH   1   2
BRANCH   1  18
ATOM     18  C   UNL     1       1.537   4.178  18.386  0.00  0.00    +0.000 C 
BRANCH  18  22
ATOM     19  C   UNL     1       1.590   2.702  21.988  0.00  0.00    +0.000 C 
ATOM     20  C   UNL     1       2.094   3.020  20.608  0.00  0.00    +0.000 C 
ATOM     21  C   UNL     1       3.472   2.560  20.242  0.00  0.00    +0.000 C 
ATOM     22  C   UNL     1       1.285   3.708  19.784  0.00  0.00    +0.000 C 
ENDBRANCH  18  22
ENDBRANCH   1  18
BRANCH   1  23
ATOM     23  O   UNL     1       3.146   5.375  16.949  0.00  0.00    +0.000 OA
BRANCH  23  24
ATOM     24  C   UNL     1       4.410   4.871  16.944  0.00  0.00    +0.000 C 
ATOM     25  O   UNL     1       4.741   3.863  17.561  0.00  0.00    +0.000 OA
BRANCH  24  26
ATOM     26  C   UNL     1       5.371   5.738  16.150  0.00  0.00    +0.000 C 
BRANCH  26  27
ATOM     27  C   UNL     1       6.474   6.185  17.116  0.00  0.00    +0.000 A 
ATOM     28  C   UNL     1       6.973   5.314  18.100  0.00  0.00    +0.000 A 
ATOM     29  C   UNL     1       7.940   5.744  19.009  0.00  0.00    +0.000 A 
ATOM     30  C   UNL     1       8.406   7.055  18.965  0.00  0.00    +0.000 A 
ATOM     31  C   UNL     1       7.894   7.943  18.019  0.00  0.00    +0.000 A 
ATOM     32  C   UNL     1       6.933   7.514  17.102  0.00  0.00    +0.000 A 
ENDBRANCH  26  27
BRANCH  26  33
ATOM     33  C   UNL     1       5.877   5.076  14.854  0.00  0.00    +0.000 A 
ATOM     34  C   UNL     1       5.109   4.159  14.114  0.00  0.00    +0.000 A 
ATOM     35  C   UNL     1       5.615   3.533  12.974  0.00  0.00    +0.000 A 
ATOM     36  C   UNL     1       6.892   3.841  12.525  0.00  0.00    +0.000 A 
ATOM     37  C   UNL     1       7.656   4.783  13.211  0.00  0.00    +0.000 A 
ATOM     38  C   UNL     1       7.155   5.400  14.360  0.00  0.00    +0.000 A 
ENDBRANCH  26  33
ENDBRANCH  24  26
ENDBRANCH  23  24
ENDBRANCH   1  23
TORSDOF 10
ENDMDL
