MODEL 1
REMARK VINA RESULT:      -7.8      0.000      0.000
REMARK  Name = 
REMARK  9 active torsions:
REMARK  status: ('A' for Active; 'I' for Inactive)
REMARK    1  A    between atoms: C_1  and  O_2
REMARK    2  A    between atoms: O_2  and  C_3
REMARK    3  A    between atoms: C_3  and  C_5
REMARK    4  A    between atoms: C_10  and  N_11
REMARK    5  A    between atoms: C_12  and  C_14
REMARK    6  A    between atoms: C_14  and  N_15
REMARK    7  A    between atoms: N_18  and  C_19
REMARK    8  A    between atoms: C_29  and  C_30
REMARK    9  A    between atoms: C_31  and  C_32
REMARK                            x       y       z     vdW  Elec       q    Type
REMARK                         _______ _______ _______ _____ _____    ______ ____
ROOT
ATOM      1  N   UNL     1      -0.255  11.223  19.924  0.00  0.00    +0.000 N 
ATOM      2  C   UNL     1      -0.574  12.172  20.907  0.00  0.00    +0.000 A 
ATOM      3  O   UNL     1       0.308  12.581  21.670  0.00  0.00    +0.000 OA
ATOM      4  N   UNL     1      -1.902  12.642  20.953  0.00  0.00    +0.000 N 
ATOM      5  C   UNL     1      -2.916  12.267  20.060  0.00  0.00    +0.000 A 
ATOM      6  O   UNL     1      -4.113  12.491  20.228  0.00  0.00    +0.000 OA
ATOM      7  C   UNL     1      -2.462  11.514  18.917  0.00  0.00    +0.000 A 
ATOM      8  C   UNL     1      -3.165  11.222  17.695  0.00  0.00    +0.000 A 
ATOM      9  C   UNL     1      -4.505  11.774  17.312  0.00  0.00    +0.000 C 
ATOM     10  C   UNL     1      -2.413  10.372  16.895  0.00  0.00    +0.000 A 
ATOM     11  C   UNL     1      -2.768   9.813  15.553  0.00  0.00    +0.000 C 
ATOM     12  S   UNL     1      -0.894   9.992  17.604  0.00  0.00    +0.000 S 
ATOM     13  C   UNL     1      -1.200  10.987  18.935  0.00  0.00    +0.000 A 
ENDROOT
BRANCH   4  14
ATOM     14  C   UNL     1      -2.297  13.517  22.017  0.00  0.00    +0.000 A 
ATOM     15  C   UNL     1      -2.285  14.907  21.809  0.00  0.00    +0.000 A 
ATOM     16  C   UNL     1      -2.730  15.782  22.797  0.00  0.00    +0.000 A 
ATOM     17  C   UNL     1      -3.213  15.275  23.999  0.00  0.00    +0.000 A 
ATOM     18 CL   UNL     1      -3.790  16.354  25.206  0.00  0.00    +0.000 Cl
ATOM     19  C   UNL     1      -3.240  13.899  24.222  0.00  0.00    +0.000 A 
ATOM     20  C   UNL     1      -2.767  13.019  23.241  0.00  0.00    +0.000 A 
ENDBRANCH   4  14
BRANCH   1  21
ATOM     21  C   UNL     1       0.994  10.474  20.094  0.00  0.00    +0.000 C 
BRANCH  21  23
ATOM     22  N   UNL     1       1.940   8.203  19.603  0.00  0.00    +0.000 N 
ATOM     23  C   UNL     1       1.022   8.957  20.323  0.00  0.00    +0.000 C 
ATOM     24  O   UNL     1       0.344   8.519  21.258  0.00  0.00    +0.000 OA
ATOM     25  H   UNL     1       2.651   8.712  19.084  0.00  0.00    +0.000 HD
BRANCH  22  31
ATOM     26  C   UNL     1       2.979   6.061  18.867  0.00  0.00    +0.000 A 
ATOM     27  C   UNL     1       3.205   4.678  19.074  0.00  0.00    +0.000 A 
ATOM     28  C   UNL     1       2.625   4.004  20.141  0.00  0.00    +0.000 A 
ATOM     29  C   UNL     1       1.779   4.697  20.991  0.00  0.00    +0.000 A 
ATOM     30  C   UNL     1       1.538   6.061  20.787  0.00  0.00    +0.000 A 
ATOM     31  C   UNL     1       2.150   6.788  19.750  0.00  0.00    +0.000 A 
BRANCH  26  32
ATOM     32  C   UNL     1       3.694   6.618  17.688  0.00  0.00    +0.000 C 
ATOM     33  O   UNL     1       3.645   7.800  17.381  0.00  0.00    +0.000 OA
BRANCH  32  35
ATOM     34  C   UNL     1       5.401   6.051  16.203  0.00  0.00    +0.000 C 
ATOM     35  O   UNL     1       4.267   5.627  16.968  0.00  0.00    +0.000 OA
ENDBRANCH  32  35
ENDBRANCH  26  32
ENDBRANCH  22  31
ENDBRANCH  21  23
ENDBRANCH   1  21
TORSDOF 6
ENDMDL
MODEL 2
REMARK VINA RESULT:      -7.7      4.467      8.293
REMARK  Name = 
REMARK  9 active torsions:
REMARK  status: ('A' for Active; 'I' for Inactive)
REMARK    1  A    between atoms: C_1  and  O_2
REMARK    2  A    between atoms: O_2  and  C_3
REMARK    3  A    between atoms: C_3  and  C_5
REMARK    4  A    between atoms: C_10  and  N_11
REMARK    5  A    between atoms: C_12  and  C_14
REMARK    6  A    between atoms: C_14  and  N_15
REMARK    7  A    between atoms: N_18  and  C_19
REMARK    8  A    between atoms: C_29  and  C_30
REMARK    9  A    between atoms: C_31  and  C_32
REMARK                            x       y       z     vdW  Elec       q    Type
REMARK                         _______ _______ _______ _____ _____    ______ ____
ROOT
ATOM      1  N   UNL     1      -0.501  12.604  20.720  0.00  0.00    +0.000 N 
ATOM      2  C   UNL     1       0.416  11.562  20.509  0.00  0.00    +0.000 A 
ATOM      3  O   UNL     1       1.448  11.511  21.185  0.00  0.00    +0.000 OA
ATOM      4  N   UNL     1       0.089  10.594  19.538  0.00  0.00    +0.000 N 
ATOM      5  C   UNL     1      -1.104  10.567  18.802  0.00  0.00    +0.000 A 
ATOM      6  O   UNL     1      -1.297   9.870  17.808  0.00  0.00    +0.000 OA
ATOM      7  C   UNL     1      -2.113  11.491  19.259  0.00  0.00    +0.000 A 
ATOM      8  C   UNL     1      -3.514  11.531  18.929  0.00  0.00    +0.000 A 
ATOM      9  C   UNL     1      -4.243  10.501  18.118  0.00  0.00    +0.000 C 
ATOM     10  C   UNL     1      -4.114  12.648  19.493  0.00  0.00    +0.000 A 
ATOM     11  C   UNL     1      -5.544  13.077  19.395  0.00  0.00    +0.000 C 
ATOM     12  S   UNL     1      -3.005  13.577  20.423  0.00  0.00    +0.000 S 
ATOM     13  C   UNL     1      -1.751  12.483  20.129  0.00  0.00    +0.000 A 
ENDROOT
BRANCH   4  14
ATOM     14  C   UNL     1       1.052   9.585  19.205  0.00  0.00    +0.000 A 
ATOM     15  C   UNL     1       1.248   8.503  20.080  0.00  0.00    +0.000 A 
ATOM     16  C   UNL     1       2.124   7.470  19.753  0.00  0.00    +0.000 A 
ATOM     17  C   UNL     1       2.799   7.498  18.537  0.00  0.00    +0.000 A 
ATOM     18 CL   UNL     1       3.855   6.207  18.122  0.00  0.00    +0.000 Cl
ATOM     19  C   UNL     1       2.612   8.559  17.653  0.00  0.00    +0.000 A 
ATOM     20  C   UNL     1       1.753   9.612  17.991  0.00  0.00    +0.000 A 
ENDBRANCH   4  14
BRANCH   1  21
ATOM     21  C   UNL     1      -0.019  13.785  21.442  0.00  0.00    +0.000 C 
BRANCH  21  23
ATOM     22  N   UNL     1       0.192  15.164  19.357  0.00  0.00    +0.000 N 
ATOM     23  C   UNL     1       0.264  15.122  20.743  0.00  0.00    +0.000 C 
ATOM     24  O   UNL     1       0.371  16.119  21.465  0.00  0.00    +0.000 OA
ATOM     25  H   UNL     1      -0.200  14.351  18.889  0.00  0.00    +0.000 HD
BRANCH  22  31
ATOM     26  C   UNL     1       1.623  16.769  18.097  0.00  0.00    +0.000 A 
ATOM     27  C   UNL     1       1.738  17.908  17.262  0.00  0.00    +0.000 A 
ATOM     28  C   UNL     1       0.620  18.631  16.869  0.00  0.00    +0.000 A 
ATOM     29  C   UNL     1      -0.625  18.248  17.341  0.00  0.00    +0.000 A 
ATOM     30  C   UNL     1      -0.749  17.133  18.178  0.00  0.00    +0.000 A 
ATOM     31  C   UNL     1       0.354  16.345  18.553  0.00  0.00    +0.000 A 
BRANCH  26  32
ATOM     32  C   UNL     1       2.921  16.110  18.400  0.00  0.00    +0.000 C 
ATOM     33  O   UNL     1       3.078  14.899  18.345  0.00  0.00    +0.000 OA
BRANCH  32  35
ATOM     34  C   UNL     1       5.162  16.523  18.894  0.00  0.00    +0.000 C 
ATOM     35  O   UNL     1       3.817  17.013  18.856  0.00  0.00    +0.000 OA
ENDBRANCH  32  35
ENDBRANCH  26  32
ENDBRANCH  22  31
ENDBRANCH  21  23
ENDBRANCH   1  21
TORSDOF 6
ENDMDL
MODEL 3
REMARK VINA RESULT:      -7.6      3.739      5.954
REMARK  Name = 
REMARK  9 active torsions:
REMARK  status: ('A' for Active; 'I' for Inactive)
REMARK    1  A    between atoms: C_1  and  O_2
REMARK    2  A    between atoms: O_2  and  C_3
REMARK    3  A    between atoms: C_3  and  C_5
REMARK    4  A    between atoms: C_10  and  N_11
REMARK    5  A    between atoms: C_12  and  C_14
REMARK    6  A    between atoms: C_14  and  N_15
REMARK    7  A    between atoms: N_18  and  C_19
REMARK    8  A    between atoms: C_29  and  C_30
REMARK    9  A    between atoms: C_31  and  C_32
REMARK                            x       y       z     vdW  Elec       q    Type
REMARK                         _______ _______ _______ _____ _____    ______ ____
ROOT
ATOM      1  N   UNL     1      -0.698  13.242  19.758  0.00  0.00    +0.000 N 
ATOM      2  C   UNL     1       0.460  13.980  19.468  0.00  0.00    +0.000 A 
ATOM      3  O   UNL     1       0.861  14.054  18.302  0.00  0.00    +0.000 OA
ATOM      4  N   UNL     1       1.100  14.637  20.539  0.00  0.00    +0.000 N 
ATOM      5  C   UNL     1       0.639  14.647  21.863  0.00  0.00    +0.000 A 
ATOM      6  O   UNL     1       1.300  15.018  22.831  0.00  0.00    +0.000 OA
ATOM      7  C   UNL     1      -0.689  14.111  22.042  0.00  0.00    +0.000 A 
ATOM      8  C   UNL     1      -1.559  14.224  23.183  0.00  0.00    +0.000 A 
ATOM      9  C   UNL     1      -1.291  15.061  24.399  0.00  0.00    +0.000 C 
ATOM     10  C   UNL     1      -2.708  13.469  22.994  0.00  0.00    +0.000 A 
ATOM     11  C   UNL     1      -3.865  13.297  23.928  0.00  0.00    +0.000 C 
ATOM     12  S   UNL     1      -2.726  12.695  21.459  0.00  0.00    +0.000 S 
ATOM     13  C   UNL     1      -1.252  13.395  21.022  0.00  0.00    +0.000 A 
ENDROOT
BRANCH   4  14
ATOM     14  C   UNL     1       2.350  15.299  20.307  0.00  0.00    +0.000 A 
ATOM     15  C   UNL     1       3.538  14.550  20.316  0.00  0.00    +0.000 A 
ATOM     16  C   UNL     1       4.762  15.149  20.025  0.00  0.00    +0.000 A 
ATOM     17  C   UNL     1       4.808  16.501  19.702  0.00  0.00    +0.000 A 
ATOM     18 CL   UNL     1       6.314  17.232  19.313  0.00  0.00    +0.000 Cl
ATOM     19  C   UNL     1       3.638  17.260  19.680  0.00  0.00    +0.000 A 
ATOM     20  C   UNL     1       2.410  16.665  19.999  0.00  0.00    +0.000 A 
ENDBRANCH   4  14
BRANCH   1  21
ATOM     21  C   UNL     1      -1.151  12.281  18.749  0.00  0.00    +0.000 C 
BRANCH  21  23
ATOM     22  N   UNL     1       0.684  10.601  19.070  0.00  0.00    +0.000 N 
ATOM     23  C   UNL     1      -0.630  10.839  18.688  0.00  0.00    +0.000 C 
ATOM     24  O   UNL     1      -1.461   9.952  18.466  0.00  0.00    +0.000 OA
ATOM     25  H   UNL     1       1.180  11.366  19.521  0.00  0.00    +0.000 HD
BRANCH  22  31
ATOM     26  C   UNL     1       1.464   8.623  20.371  0.00  0.00    +0.000 A 
ATOM     27  C   UNL     1       2.033   7.326  20.399  0.00  0.00    +0.000 A 
ATOM     28  C   UNL     1       2.447   6.695  19.233  0.00  0.00    +0.000 A 
ATOM     29  C   UNL     1       2.334   7.370  18.029  0.00  0.00    +0.000 A 
ATOM     30  C   UNL     1       1.785   8.658  17.992  0.00  0.00    +0.000 A 
ATOM     31  C   UNL     1       1.306   9.306  19.144  0.00  0.00    +0.000 A 
BRANCH  26  32
ATOM     32  C   UNL     1       1.062   9.133  21.708  0.00  0.00    +0.000 C 
ATOM     33  O   UNL     1       1.853   9.274  22.630  0.00  0.00    +0.000 OA
BRANCH  32  35
ATOM     34  C   UNL     1      -0.729   9.929  22.972  0.00  0.00    +0.000 C 
ATOM     35  O   UNL     1      -0.280   9.280  21.778  0.00  0.00    +0.000 OA
ENDBRANCH  32  35
ENDBRANCH  26  32
ENDBRANCH  22  31
ENDBRANCH  21  23
ENDBRANCH   1  21
TORSDOF 6
ENDMDL
MODEL 4
REMARK VINA RESULT:      -7.5      4.388      8.062
REMARK  Name = 
REMARK  9 active torsions:
REMARK  status: ('A' for Active; 'I' for Inactive)
REMARK    1  A    between atoms: C_1  and  O_2
REMARK    2  A    between atoms: O_2  and  C_3
REMARK    3  A    between atoms: C_3  and  C_5
REMARK    4  A    between atoms: C_10  and  N_11
REMARK    5  A    between atoms: C_12  and  C_14
REMARK    6  A    between atoms: C_14  and  N_15
REMARK    7  A    between atoms: N_18  and  C_19
REMARK    8  A    between atoms: C_29  and  C_30
REMARK    9  A    between atoms: C_31  and  C_32
REMARK                            x       y       z     vdW  Elec       q    Type
REMARK                         _______ _______ _______ _____ _____    ______ ____
ROOT
ATOM      1  N   UNL     1      -0.641  12.456  20.741  0.00  0.00    +0.000 N 
ATOM      2  C   UNL     1       0.248  11.390  20.531  0.00  0.00    +0.000 A 
ATOM      3  O   UNL     1       1.264  11.296  21.227  0.00  0.00    +0.000 OA
ATOM      4  N   UNL     1      -0.087  10.447  19.539  0.00  0.00    +0.000 N 
ATOM      5  C   UNL     1      -1.265  10.468  18.779  0.00  0.00    +0.000 A 
ATOM      6  O   UNL     1      -1.458   9.794  17.769  0.00  0.00    +0.000 OA
ATOM      7  C   UNL     1      -2.255  11.415  19.230  0.00  0.00    +0.000 A 
ATOM      8  C   UNL     1      -3.647  11.503  18.872  0.00  0.00    +0.000 A 
ATOM      9  C   UNL     1      -4.390  10.508  18.030  0.00  0.00    +0.000 C 
ATOM     10  C   UNL     1      -4.225  12.628  19.443  0.00  0.00    +0.000 A 
ATOM     11  C   UNL     1      -5.639  13.102  19.323  0.00  0.00    +0.000 C 
ATOM     12  S   UNL     1      -3.108  13.508  20.410  0.00  0.00    +0.000 S 
ATOM     13  C   UNL     1      -1.882  12.382  20.124  0.00  0.00    +0.000 A 
ENDROOT
BRANCH   4  14
ATOM     14  C   UNL     1       0.851   9.415  19.209  0.00  0.00    +0.000 A 
ATOM     15  C   UNL     1       1.583   9.504  18.013  0.00  0.00    +0.000 A 
ATOM     16  C   UNL     1       2.553   8.555  17.696  0.00  0.00    +0.000 A 
ATOM     17  C   UNL     1       2.816   7.517  18.582  0.00  0.00    +0.000 A 
ATOM     18 CL   UNL     1       4.034   6.364  18.205  0.00  0.00    +0.000 Cl
ATOM     19  C   UNL     1       2.106   7.415  19.778  0.00  0.00    +0.000 A 
ATOM     20  C   UNL     1       1.111   8.353  20.086  0.00  0.00    +0.000 A 
ENDBRANCH   4  14
BRANCH   1  21
ATOM     21  C   UNL     1      -0.139  13.610  21.492  0.00  0.00    +0.000 C 
BRANCH  21  23
ATOM     22  N   UNL     1       0.297  14.978  19.435  0.00  0.00    +0.000 N 
ATOM     23  C   UNL     1       0.204  14.946  20.821  0.00  0.00    +0.000 C 
ATOM     24  O   UNL     1       0.210  15.950  21.541  0.00  0.00    +0.000 OA
ATOM     25  H   UNL     1      -0.025  14.155  18.931  0.00  0.00    +0.000 HD
BRANCH  22  31
ATOM     26  C   UNL     1       1.835  16.535  18.244  0.00  0.00    +0.000 A 
ATOM     27  C   UNL     1       2.027  17.672  17.422  0.00  0.00    +0.000 A 
ATOM     28  C   UNL     1       0.953  18.439  16.989  0.00  0.00    +0.000 A 
ATOM     29  C   UNL     1      -0.324  18.101  17.408  0.00  0.00    +0.000 A 
ATOM     30  C   UNL     1      -0.523  16.986  18.233  0.00  0.00    +0.000 A 
ATOM     31  C   UNL     1       0.535  16.156  18.646  0.00  0.00    +0.000 A 
BRANCH  26  32
ATOM     32  C   UNL     1       3.095  15.826  18.594  0.00  0.00    +0.000 C 
ATOM     33  O   UNL     1       3.405  15.554  19.744  0.00  0.00    +0.000 OA
BRANCH  32  35
ATOM     34  C   UNL     1       5.064  14.913  17.740  0.00  0.00    +0.000 C 
ATOM     35  O   UNL     1       3.867  15.661  17.496  0.00  0.00    +0.000 OA
ENDBRANCH  32  35
ENDBRANCH  26  32
ENDBRANCH  22  31
ENDBRANCH  21  23
ENDBRANCH   1  21
TORSDOF 6
ENDMDL
MODEL 5
REMARK VINA RESULT:      -7.5      2.744      4.900
REMARK  Name = 
REMARK  9 active torsions:
REMARK  status: ('A' for Active; 'I' for Inactive)
REMARK    1  A    between atoms: C_1  and  O_2
REMARK    2  A    between atoms: O_2  and  C_3
REMARK    3  A    between atoms: C_3  and  C_5
REMARK    4  A    between atoms: C_10  and  N_11
REMARK    5  A    between atoms: C_12  and  C_14
REMARK    6  A    between atoms: C_14  and  N_15
REMARK    7  A    between atoms: N_18  and  C_19
REMARK    8  A    between atoms: C_29  and  C_30
REMARK    9  A    between atoms: C_31  and  C_32
REMARK                            x       y       z     vdW  Elec       q    Type
REMARK                         _______ _______ _______ _____ _____    ______ ____
ROOT
ATOM      1  N   UNL     1      -1.313  13.214  19.501  0.00  0.00    +0.000 N 
ATOM      2  C   UNL     1      -2.420  13.047  20.347  0.00  0.00    +0.000 A 
ATOM      3  O   UNL     1      -3.116  12.031  20.249  0.00  0.00    +0.000 OA
ATOM      4  N   UNL     1      -2.666  14.052  21.305  0.00  0.00    +0.000 N 
ATOM      5  C   UNL     1      -1.860  15.182  21.505  0.00  0.00    +0.000 A 
ATOM      6  O   UNL     1      -2.186  16.163  22.170  0.00  0.00    +0.000 OA
ATOM      7  C   UNL     1      -0.600  15.154  20.804  0.00  0.00    +0.000 A 
ATOM      8  C   UNL     1       0.558  15.987  21.000  0.00  0.00    +0.000 A 
ATOM      9  C   UNL     1       0.725  16.995  22.098  0.00  0.00    +0.000 C 
ATOM     10  C   UNL     1       1.522  15.709  20.041  0.00  0.00    +0.000 A 
ATOM     11  C   UNL     1       2.866  16.346  19.872  0.00  0.00    +0.000 C 
ATOM     12  S   UNL     1       1.035  14.447  18.981  0.00  0.00    +0.000 S 
ATOM     13  C   UNL     1      -0.419  14.229  19.813  0.00  0.00    +0.000 A 
ENDROOT
BRANCH   4  14
ATOM     14  C   UNL     1      -3.854  13.981  22.104  0.00  0.00    +0.000 A 
ATOM     15  C   UNL     1      -5.045  14.550  21.622  0.00  0.00    +0.000 A 
ATOM     16  C   UNL     1      -6.232  14.437  22.342  0.00  0.00    +0.000 A 
ATOM     17  C   UNL     1      -6.247  13.736  23.543  0.00  0.00    +0.000 A 
ATOM     18 CL   UNL     1      -7.719  13.571  24.414  0.00  0.00    +0.000 Cl
ATOM     19  C   UNL     1      -5.077  13.158  24.034  0.00  0.00    +0.000 A 
ATOM     20  C   UNL     1      -3.876  13.293  23.325  0.00  0.00    +0.000 A 
ENDBRANCH   4  14
BRANCH   1  21
ATOM     21  C   UNL     1      -1.260  12.384  18.294  0.00  0.00    +0.000 C 
BRANCH  21  23
ATOM     22  N   UNL     1       0.518  10.767  19.013  0.00  0.00    +0.000 N 
ATOM     23  C   UNL     1      -0.646  10.978  18.285  0.00  0.00    +0.000 C 
ATOM     24  O   UNL     1      -1.317  10.077  17.770  0.00  0.00    +0.000 OA
ATOM     25  H   UNL     1       0.812  11.511  19.640  0.00  0.00    +0.000 HD
BRANCH  22  31
ATOM     26  C   UNL     1       0.993   8.699  20.320  0.00  0.00    +0.000 A 
ATOM     27  C   UNL     1       1.620   7.433  20.419  0.00  0.00    +0.000 A 
ATOM     28  C   UNL     1       2.427   6.947  19.399  0.00  0.00    +0.000 A 
ATOM     29  C   UNL     1       2.650   7.739  18.285  0.00  0.00    +0.000 A 
ATOM     30  C   UNL     1       2.046   8.999  18.184  0.00  0.00    +0.000 A 
ATOM     31  C   UNL     1       1.180   9.500  19.172  0.00  0.00    +0.000 A 
BRANCH  26  32
ATOM     32  C   UNL     1       0.152   9.048  21.496  0.00  0.00    +0.000 C 
ATOM     33  O   UNL     1      -0.651   8.270  21.992  0.00  0.00    +0.000 OA
BRANCH  32  35
ATOM     34  C   UNL     1      -0.689  10.847  22.720  0.00  0.00    +0.000 C 
ATOM     35  O   UNL     1       0.313  10.349  21.826  0.00  0.00    +0.000 OA
ENDBRANCH  32  35
ENDBRANCH  26  32
ENDBRANCH  22  31
ENDBRANCH  21  23
ENDBRANCH   1  21
TORSDOF 6
ENDMDL
MODEL 6
REMARK VINA RESULT:      -7.5      1.187      1.507
REMARK  Name = 
REMARK  9 active torsions:
REMARK  status: ('A' for Active; 'I' for Inactive)
REMARK    1  A    between atoms: C_1  and  O_2
REMARK    2  A    between atoms: O_2  and  C_3
REMARK    3  A    between atoms: C_3  and  C_5
REMARK    4  A    between atoms: C_10  and  N_11
REMARK    5  A    between atoms: C_12  and  C_14
REMARK    6  A    between atoms: C_14  and  N_15
REMARK    7  A    between atoms: N_18  and  C_19
REMARK    8  A    between atoms: C_29  and  C_30
REMARK    9  A    between atoms: C_31  and  C_32
REMARK                            x       y       z     vdW  Elec       q    Type
REMARK                         _______ _______ _______ _____ _____    ______ ____
ROOT
ATOM      1  N   UNL     1       0.417  10.821  19.545  0.00  0.00    +0.000 N 
ATOM      2  C   UNL     1       0.374  11.841  20.507  0.00  0.00    +0.000 A 
ATOM      3  O   UNL     1       1.411  12.173  21.092  0.00  0.00    +0.000 OA
ATOM      4  N   UNL     1      -0.867  12.467  20.740  0.00  0.00    +0.000 N 
ATOM      5  C   UNL     1      -2.052  12.179  20.047  0.00  0.00    +0.000 A 
ATOM      6  O   UNL     1      -3.171  12.551  20.392  0.00  0.00    +0.000 OA
ATOM      7  C   UNL     1      -1.882  11.331  18.893  0.00  0.00    +0.000 A 
ATOM      8  C   UNL     1      -2.808  11.073  17.820  0.00  0.00    +0.000 A 
ATOM      9  C   UNL     1      -4.125  11.765  17.627  0.00  0.00    +0.000 C 
ATOM     10  C   UNL     1      -2.300  10.108  16.962  0.00  0.00    +0.000 A 
ATOM     11  C   UNL     1      -2.935   9.540  15.732  0.00  0.00    +0.000 C 
ATOM     12  S   UNL     1      -0.735   9.580  17.438  0.00  0.00    +0.000 S 
ATOM     13  C   UNL     1      -0.701  10.658  18.738  0.00  0.00    +0.000 A 
ENDROOT
BRANCH   4  14
ATOM     14  C   UNL     1      -0.980  13.427  21.798  0.00  0.00    +0.000 A 
ATOM     15  C   UNL     1      -1.445  13.013  23.058  0.00  0.00    +0.000 A 
ATOM     16  C   UNL     1      -1.500  13.904  24.127  0.00  0.00    +0.000 A 
ATOM     17  C   UNL     1      -1.070  15.216  23.954  0.00  0.00    +0.000 A 
ATOM     18 CL   UNL     1      -1.110  16.306  25.282  0.00  0.00    +0.000 Cl
ATOM     19  C   UNL     1      -0.598  15.644  22.714  0.00  0.00    +0.000 A 
ATOM     20  C   UNL     1      -0.568  14.756  21.630  0.00  0.00    +0.000 A 
ENDBRANCH   4  14
BRANCH   1  21
ATOM     21  C   UNL     1       1.586   9.936  19.556  0.00  0.00    +0.000 C 
BRANCH  21  23
ATOM     22  N   UNL     1       2.270   7.531  19.358  0.00  0.00    +0.000 N 
ATOM     23  C   UNL     1       1.515   8.480  20.034  0.00  0.00    +0.000 C 
ATOM     24  O   UNL     1       0.924   8.269  21.098  0.00  0.00    +0.000 OA
ATOM     25  H   UNL     1       2.952   7.875  18.686  0.00  0.00    +0.000 HD
BRANCH  22  31
ATOM     26  C   UNL     1       3.464   5.344  19.299  0.00  0.00    +0.000 A 
ATOM     27  C   UNL     1       3.564   3.995  19.719  0.00  0.00    +0.000 A 
ATOM     28  C   UNL     1       2.607   3.425  20.548  0.00  0.00    +0.000 A 
ATOM     29  C   UNL     1       1.517   4.186  20.935  0.00  0.00    +0.000 A 
ATOM     30  C   UNL     1       1.401   5.517  20.515  0.00  0.00    +0.000 A 
ATOM     31  C   UNL     1       2.377   6.143  19.720  0.00  0.00    +0.000 A 
BRANCH  26  32
ATOM     32  C   UNL     1       4.586   5.789  18.430  0.00  0.00    +0.000 C 
ATOM     33  O   UNL     1       5.759   5.684  18.756  0.00  0.00    +0.000 OA
BRANCH  32  35
ATOM     34  C   UNL     1       5.072   6.536  16.275  0.00  0.00    +0.000 C 
ATOM     35  O   UNL     1       4.114   6.423  17.333  0.00  0.00    +0.000 OA
ENDBRANCH  32  35
ENDBRANCH  26  32
ENDBRANCH  22  31
ENDBRANCH  21  23
ENDBRANCH   1  21
TORSDOF 6
ENDMDL
MODEL 7
REMARK VINA RESULT:      -7.4      1.066      1.076
REMARK  Name = 
REMARK  9 active torsions:
REMARK  status: ('A' for Active; 'I' for Inactive)
REMARK    1  A    between atoms: C_1  and  O_2
REMARK    2  A    between atoms: O_2  and  C_3
REMARK    3  A    between atoms: C_3  and  C_5
REMARK    4  A    between atoms: C_10  and  N_11
REMARK    5  A    between atoms: C_12  and  C_14
REMARK    6  A    between atoms: C_14  and  N_15
REMARK    7  A    between atoms: N_18  and  C_19
REMARK    8  A    between atoms: C_29  and  C_30
REMARK    9  A    between atoms: C_31  and  C_32
REMARK                            x       y       z     vdW  Elec       q    Type
REMARK                         _______ _______ _______ _____ _____    ______ ____
ROOT
ATOM      1  N   UNL     1       0.194  11.060  19.278  0.00  0.00    +0.000 N 
ATOM      2  C   UNL     1       0.205  12.064  20.258  0.00  0.00    +0.000 A 
ATOM      3  O   UNL     1       1.279  12.426  20.749  0.00  0.00    +0.000 OA
ATOM      4  N   UNL     1      -1.031  12.638  20.617  0.00  0.00    +0.000 N 
ATOM      5  C   UNL     1      -2.264  12.315  20.032  0.00  0.00    +0.000 A 
ATOM      6  O   UNL     1      -3.360  12.638  20.487  0.00  0.00    +0.000 OA
ATOM      7  C   UNL     1      -2.173  11.491  18.852  0.00  0.00    +0.000 A 
ATOM      8  C   UNL     1      -3.185  11.214  17.866  0.00  0.00    +0.000 A 
ATOM      9  C   UNL     1      -4.539  11.858  17.809  0.00  0.00    +0.000 C 
ATOM     10  C   UNL     1      -2.725  10.282  16.947  0.00  0.00    +0.000 A 
ATOM     11  C   UNL     1      -3.451   9.708  15.771  0.00  0.00    +0.000 C 
ATOM     12  S   UNL     1      -1.104   9.807  17.265  0.00  0.00    +0.000 S 
ATOM     13  C   UNL     1      -0.987  10.866  18.576  0.00  0.00    +0.000 A 
ENDROOT
BRANCH   4  14
ATOM     14  C   UNL     1      -1.079  13.577  21.699  0.00  0.00    +0.000 A 
ATOM     15  C   UNL     1      -1.002  14.952  21.424  0.00  0.00    +0.000 A 
ATOM     16  C   UNL     1      -1.117  15.893  22.445  0.00  0.00    +0.000 A 
ATOM     17  C   UNL     1      -1.330  15.468  23.752  0.00  0.00    +0.000 A 
ATOM     18 CL   UNL     1      -1.501  16.631  25.007  0.00  0.00    +0.000 Cl
ATOM     19  C   UNL     1      -1.416  14.108  24.045  0.00  0.00    +0.000 A 
ATOM     20  C   UNL     1      -1.274  13.159  23.023  0.00  0.00    +0.000 A 
ENDBRANCH   4  14
BRANCH   1  21
ATOM     21  C   UNL     1       1.391  10.221  19.163  0.00  0.00    +0.000 C 
BRANCH  21  23
ATOM     22  N   UNL     1       2.213   7.853  19.060  0.00  0.00    +0.000 N 
ATOM     23  C   UNL     1       1.463   8.802  19.743  0.00  0.00    +0.000 C 
ATOM     24  O   UNL     1       0.990   8.634  20.872  0.00  0.00    +0.000 OA
ATOM     25  H   UNL     1       2.803   8.187  18.302  0.00  0.00    +0.000 HD
BRANCH  22  31
ATOM     26  C   UNL     1       3.511   5.727  18.995  0.00  0.00    +0.000 A 
ATOM     27  C   UNL     1       3.742   4.420  19.492  0.00  0.00    +0.000 A 
ATOM     28  C   UNL     1       2.938   3.873  20.482  0.00  0.00    +0.000 A 
ATOM     29  C   UNL     1       1.866   4.610  20.959  0.00  0.00    +0.000 A 
ATOM     30  C   UNL     1       1.620   5.897  20.465  0.00  0.00    +0.000 A 
ATOM     31  C   UNL     1       2.445   6.504  19.501  0.00  0.00    +0.000 A 
BRANCH  26  32
ATOM     32  C   UNL     1       4.480   6.155  17.952  0.00  0.00    +0.000 C 
ATOM     33  O   UNL     1       4.237   7.038  17.142  0.00  0.00    +0.000 OA
BRANCH  32  35
ATOM     34  C   UNL     1       6.687   5.891  17.242  0.00  0.00    +0.000 C 
ATOM     35  O   UNL     1       5.569   5.353  17.958  0.00  0.00    +0.000 OA
ENDBRANCH  32  35
ENDBRANCH  26  32
ENDBRANCH  22  31
ENDBRANCH  21  23
ENDBRANCH   1  21
TORSDOF 6
ENDMDL
MODEL 8
REMARK VINA RESULT:      -7.4      2.530      4.006
REMARK  Name = 
REMARK  9 active torsions:
REMARK  status: ('A' for Active; 'I' for Inactive)
REMARK    1  A    between atoms: C_1  and  O_2
REMARK    2  A    between atoms: O_2  and  C_3
REMARK    3  A    between atoms: C_3  and  C_5
REMARK    4  A    between atoms: C_10  and  N_11
REMARK    5  A    between atoms: C_12  and  C_14
REMARK    6  A    between atoms: C_14  and  N_15
REMARK    7  A    between atoms: N_18  and  C_19
REMARK    8  A    between atoms: C_29  and  C_30
REMARK    9  A    between atoms: C_31  and  C_32
REMARK                            x       y       z     vdW  Elec       q    Type
REMARK                         _______ _______ _______ _____ _____    ______ ____
ROOT
ATOM      1  N   UNL     1       0.629  10.866  19.023  0.00  0.00    +0.000 N 
ATOM      2  C   UNL     1      -0.435  10.905  19.937  0.00  0.00    +0.000 A 
ATOM      3  O   UNL     1      -0.979   9.852  20.286  0.00  0.00    +0.000 OA
ATOM      4  N   UNL     1      -0.816  12.165  20.441  0.00  0.00    +0.000 N 
ATOM      5  C   UNL     1      -0.179  13.376  20.135  0.00  0.00    +0.000 A 
ATOM      6  O   UNL     1      -0.637  14.489  20.384  0.00  0.00    +0.000 OA
ATOM      7  C   UNL     1       1.066  13.237  19.421  0.00  0.00    +0.000 A 
ATOM      8  C   UNL     1       2.094  14.221  19.202  0.00  0.00    +0.000 A 
ATOM      9  C   UNL     1       2.124  15.593  19.808  0.00  0.00    +0.000 C 
ATOM     10  C   UNL     1       3.081  13.715  18.368  0.00  0.00    +0.000 A 
ATOM     11  C   UNL     1       4.318  14.401  17.879  0.00  0.00    +0.000 C 
ATOM     12  S   UNL     1       2.771  12.086  17.915  0.00  0.00    +0.000 S 
ATOM     13  C   UNL     1       1.370  12.028  18.858  0.00  0.00    +0.000 A 
ENDROOT
BRANCH   4  14
ATOM     14  C   UNL     1      -1.975  12.263  21.279  0.00  0.00    +0.000 A 
ATOM     15  C   UNL     1      -1.839  12.096  22.667  0.00  0.00    +0.000 A 
ATOM     16  C   UNL     1      -2.932  12.255  23.516  0.00  0.00    +0.000 A 
ATOM     17  C   UNL     1      -4.171  12.601  22.988  0.00  0.00    +0.000 A 
ATOM     18 CL   UNL     1      -5.512  12.826  24.039  0.00  0.00    +0.000 Cl
ATOM     19  C   UNL     1      -4.325  12.778  21.613  0.00  0.00    +0.000 A 
ATOM     20  C   UNL     1      -3.233  12.592  20.755  0.00  0.00    +0.000 A 
ENDBRANCH   4  14
BRANCH   1  21
ATOM     21  C   UNL     1       0.791   9.642  18.234  0.00  0.00    +0.000 C 
BRANCH  21  23
ATOM     22  N   UNL     1       2.441   7.883  17.542  0.00  0.00    +0.000 N 
ATOM     23  C   UNL     1       1.826   8.564  18.584  0.00  0.00    +0.000 C 
ATOM     24  O   UNL     1       2.175   8.487  19.766  0.00  0.00    +0.000 OA
ATOM     25  H   UNL     1       2.292   8.243  16.602  0.00  0.00    +0.000 HD
BRANCH  22  31
ATOM     26  C   UNL     1       3.197   5.554  18.004  0.00  0.00    +0.000 A 
ATOM     27  C   UNL     1       4.243   4.603  18.090  0.00  0.00    +0.000 A 
ATOM     28  C   UNL     1       5.566   4.964  17.868  0.00  0.00    +0.000 A 
ATOM     29  C   UNL     1       5.862   6.290  17.597  0.00  0.00    +0.000 A 
ATOM     30  C   UNL     1       4.836   7.241  17.524  0.00  0.00    +0.000 A 
ATOM     31  C   UNL     1       3.481   6.901  17.690  0.00  0.00    +0.000 A 
BRANCH  26  32
ATOM     32  C   UNL     1       1.845   4.986  18.254  0.00  0.00    +0.000 C 
ATOM     33  O   UNL     1       1.169   4.471  17.376  0.00  0.00    +0.000 OA
BRANCH  32  35
ATOM     34  C   UNL     1       1.073   4.073  20.257  0.00  0.00    +0.000 C 
ATOM     35  O   UNL     1       1.449   5.243  19.522  0.00  0.00    +0.000 OA
ENDBRANCH  32  35
ENDBRANCH  26  32
ENDBRANCH  22  31
ENDBRANCH  21  23
ENDBRANCH   1  21
TORSDOF 6
ENDMDL
MODEL 9
REMARK VINA RESULT:      -7.4      2.820      4.214
REMARK  Name = 
REMARK  9 active torsions:
REMARK  status: ('A' for Active; 'I' for Inactive)
REMARK    1  A    between atoms: C_1  and  O_2
REMARK    2  A    between atoms: O_2  and  C_3
REMARK    3  A    between atoms: C_3  and  C_5
REMARK    4  A    between atoms: C_10  and  N_11
REMARK    5  A    between atoms: C_12  and  C_14
REMARK    6  A    between atoms: C_14  and  N_15
REMARK    7  A    between atoms: N_18  and  C_19
REMARK    8  A    between atoms: C_29  and  C_30
REMARK    9  A    between atoms: C_31  and  C_32
REMARK                            x       y       z     vdW  Elec       q    Type
REMARK                         _______ _______ _______ _____ _____    ______ ____
ROOT
ATOM      1  N   UNL     1      -2.473  13.142  19.747  0.00  0.00    +0.000 N 
ATOM      2  C   UNL     1      -2.039  14.039  20.735  0.00  0.00    +0.000 A 
ATOM      3  O   UNL     1      -0.996  14.679  20.563  0.00  0.00    +0.000 OA
ATOM      4  N   UNL     1      -2.846  14.188  21.881  0.00  0.00    +0.000 N 
ATOM      5  C   UNL     1      -4.074  13.543  22.085  0.00  0.00    +0.000 A 
ATOM      6  O   UNL     1      -4.665  13.489  23.161  0.00  0.00    +0.000 OA
ATOM      7  C   UNL     1      -4.595  12.861  20.926  0.00  0.00    +0.000 A 
ATOM      8  C   UNL     1      -5.923  12.352  20.701  0.00  0.00    +0.000 A 
ATOM      9  C   UNL     1      -7.096  12.557  21.614  0.00  0.00    +0.000 C 
ATOM     10  C   UNL     1      -5.981  11.662  19.498  0.00  0.00    +0.000 A 
ATOM     11  C   UNL     1      -7.159  10.969  18.887  0.00  0.00    +0.000 C 
ATOM     12  S   UNL     1      -4.476  11.683  18.668  0.00  0.00    +0.000 S 
ATOM     13  C   UNL     1      -3.763  12.644  19.861  0.00  0.00    +0.000 A 
ENDROOT
BRANCH   4  14
ATOM     14  C   UNL     1      -2.378  14.998  22.966  0.00  0.00    +0.000 A 
ATOM     15  C   UNL     1      -2.780  16.342  23.048  0.00  0.00    +0.000 A 
ATOM     16  C   UNL     1      -2.400  17.137  24.127  0.00  0.00    +0.000 A 
ATOM     17  C   UNL     1      -1.629  16.591  25.148  0.00  0.00    +0.000 A 
ATOM     18 CL   UNL     1      -1.187  17.564  26.494  0.00  0.00    +0.000 Cl
ATOM     19  C   UNL     1      -1.226  15.257  25.089  0.00  0.00    +0.000 A 
ATOM     20  C   UNL     1      -1.584  14.464  23.991  0.00  0.00    +0.000 A 
ENDBRANCH   4  14
BRANCH   1  21
ATOM     21  C   UNL     1      -1.488  12.715  18.749  0.00  0.00    +0.000 C 
BRANCH  21  23
ATOM     22  N   UNL     1       0.370  11.098  19.221  0.00  0.00    +0.000 N 
ATOM     23  C   UNL     1      -0.908  11.295  18.717  0.00  0.00    +0.000 C 
ATOM     24  O   UNL     1      -1.679  10.383  18.401  0.00  0.00    +0.000 OA
ATOM     25  H   UNL     1       0.791  11.872  19.730  0.00  0.00    +0.000 HD
BRANCH  22  31
ATOM     26  C   UNL     1       1.163   9.161  20.575  0.00  0.00    +0.000 A 
ATOM     27  C   UNL     1       1.773   7.885  20.641  0.00  0.00    +0.000 A 
ATOM     28  C   UNL     1       2.254   7.256  19.501  0.00  0.00    +0.000 A 
ATOM     29  C   UNL     1       2.167   7.914  18.285  0.00  0.00    +0.000 A 
ATOM     30  C   UNL     1       1.578   9.182  18.211  0.00  0.00    +0.000 A 
ATOM     31  C   UNL     1       1.032   9.826  19.335  0.00  0.00    +0.000 A 
BRANCH  26  32
ATOM     32  C   UNL     1       0.691   9.672  21.890  0.00  0.00    +0.000 C 
ATOM     33  O   UNL     1       1.319   9.516  22.926  0.00  0.00    +0.000 OA
BRANCH  32  35
ATOM     34  C   UNL     1      -1.102  10.645  23.021  0.00  0.00    +0.000 C 
ATOM     35  O   UNL     1      -0.552  10.192  21.779  0.00  0.00    +0.000 OA
ENDBRANCH  32  35
ENDBRANCH  26  32
ENDBRANCH  22  31
ENDBRANCH  21  23
ENDBRANCH   1  21
TORSDOF 6
ENDMDL
