MODEL 1
REMARK VINA RESULT:      -6.7      0.000      0.000
REMARK  Name = 
REMARK  9 active torsions:
REMARK  status: ('A' for Active; 'I' for Inactive)
REMARK    1  A    between atoms: C_1  and  C_2
REMARK    2  A    between atoms: C_4  and  C_5
REMARK    3  A    between atoms: N_10  and  C_11
REMARK    4  A    between atoms: C_11  and  C_12
REMARK    5  A    between atoms: C_11  and  C_13
REMARK    6  A    between atoms: N_16  and  C_17
REMARK    7  A    between atoms: C_17  and  C_18
REMARK    8  A    between atoms: C_17  and  C_19
REMARK    9  A    between atoms: C_17  and  C_20
REMARK                            x       y       z     vdW  Elec       q    Type
REMARK                         _______ _______ _______ _____ _____    ______ ____
ROOT
ATOM      1  C   UNL     1      -0.425   9.152  22.288  0.00  0.00    +0.000 C 
ATOM      2  C   UNL     1       0.438   8.915  21.106  0.00  0.00    +0.000 A 
ATOM      3  C   UNL     1       0.738   9.801  20.057  0.00  0.00    +0.000 A 
ATOM      4  C   UNL     1       1.573   9.102  19.209  0.00  0.00    +0.000 A 
ATOM      5  C   UNL     1       2.136   9.513  17.898  0.00  0.00    +0.000 C 
ATOM      6  N   UNL     1       1.789   7.860  19.806  0.00  0.00    +0.000 N 
ATOM      7  C   UNL     1       2.641   6.788  19.360  0.00  0.00    +0.000 A 
ATOM      8  N   UNL     1       2.521   5.611  19.979  0.00  0.00    +0.000 NA
ATOM      9  C   UNL     1       3.238   4.630  19.480  0.00  0.00    +0.000 A 
ATOM     10  N   UNL     1       3.006   3.321  19.866  0.00  0.00    +0.000 N 
ATOM     11  N   UNL     1       4.131   4.788  18.515  0.00  0.00    +0.000 NA
ATOM     12  C   UNL     1       4.214   5.990  17.961  0.00  0.00    +0.000 A 
ATOM     13  N   UNL     1       5.065   6.219  16.900  0.00  0.00    +0.000 N 
ATOM     14  N   UNL     1       3.474   7.017  18.332  0.00  0.00    +0.000 NA
ATOM     15  N   UNL     1       1.037   7.734  20.945  0.00  0.00    +0.000 NA
ATOM     16  H   UNL     1       3.712   2.729  19.448  0.00  0.00    +0.000 HD
ATOM     17  H   UNL     1       4.804   7.085  16.445  0.00  0.00    +0.000 HD
ENDROOT
BRANCH  13  18
ATOM     18  C   UNL     1       5.592   5.143  16.052  0.00  0.00    +0.000 C 
ATOM     19  C   UNL     1       4.702   3.888  16.052  0.00  0.00    +0.000 C 
ATOM     20  C   UNL     1       5.638   5.667  14.602  0.00  0.00    +0.000 C 
ATOM     21  C   UNL     1       7.029   4.806  16.479  0.00  0.00    +0.000 C 
ENDBRANCH  13  18
BRANCH  10  22
ATOM     22  C   UNL     1       2.644   3.065  21.252  0.00  0.00    +0.000 C 
ATOM     23  C   UNL     1       1.139   2.817  21.356  0.00  0.00    +0.000 C 
ATOM     24  C   UNL     1       3.403   1.822  21.726  0.00  0.00    +0.000 C 
ENDBRANCH  10  22
TORSDOF 2
ENDMDL
MODEL 2
REMARK VINA RESULT:      -6.3      1.409      4.782
REMARK  Name = 
REMARK  9 active torsions:
REMARK  status: ('A' for Active; 'I' for Inactive)
REMARK    1  A    between atoms: C_1  and  C_2
REMARK    2  A    between atoms: C_4  and  C_5
REMARK    3  A    between atoms: N_10  and  C_11
REMARK    4  A    between atoms: C_11  and  C_12
REMARK    5  A    between atoms: C_11  and  C_13
REMARK    6  A    between atoms: N_16  and  C_17
REMARK    7  A    between atoms: C_17  and  C_18
REMARK    8  A    between atoms: C_17  and  C_19
REMARK    9  A    between atoms: C_17  and  C_20
REMARK                            x       y       z     vdW  Elec       q    Type
REMARK                         _______ _______ _______ _____ _____    ______ ____
ROOT
ATOM      1  C   UNL     1       2.158  12.224  17.938  0.00  0.00    +0.000 C 
ATOM      2  C   UNL     1       1.830  10.944  18.607  0.00  0.00    +0.000 A 
ATOM      3  C   UNL     1       0.860  10.703  19.596  0.00  0.00    +0.000 A 
ATOM      4  C   UNL     1       0.956   9.359  19.891  0.00  0.00    +0.000 A 
ATOM      5  C   UNL     1       0.233   8.569  20.919  0.00  0.00    +0.000 C 
ATOM      6  N   UNL     1       1.926   8.837  19.035  0.00  0.00    +0.000 N 
ATOM      7  C   UNL     1       2.352   7.469  18.891  0.00  0.00    +0.000 A 
ATOM      8  N   UNL     1       3.447   7.240  18.160  0.00  0.00    +0.000 NA
ATOM      9  C   UNL     1       3.864   5.995  18.135  0.00  0.00    +0.000 A 
ATOM     10  N   UNL     1       5.116   5.683  17.635  0.00  0.00    +0.000 N 
ATOM     11  N   UNL     1       3.199   4.985  18.674  0.00  0.00    +0.000 NA
ATOM     12  C   UNL     1       2.107   5.281  19.365  0.00  0.00    +0.000 A 
ATOM     13  N   UNL     1       1.399   4.296  20.020  0.00  0.00    +0.000 N 
ATOM     14  N   UNL     1       1.655   6.511  19.522  0.00  0.00    +0.000 NA
ATOM     15  N   UNL     1       2.500   9.834  18.289  0.00  0.00    +0.000 NA
ATOM     16  H   UNL     1       5.217   4.676  17.615  0.00  0.00    +0.000 HD
ATOM     17  H   UNL     1       0.779   4.724  20.697  0.00  0.00    +0.000 HD
ENDROOT
BRANCH  13  18
ATOM     18  C   UNL     1       1.977   2.992  20.367  0.00  0.00    +0.000 C 
ATOM     19  C   UNL     1       3.502   3.046  20.569  0.00  0.00    +0.000 C 
ATOM     20  C   UNL     1       1.357   2.544  21.706  0.00  0.00    +0.000 C 
ATOM     21  C   UNL     1       1.594   1.957  19.298  0.00  0.00    +0.000 C 
ENDBRANCH  13  18
BRANCH  10  22
ATOM     22  C   UNL     1       5.606   6.432  16.488  0.00  0.00    +0.000 C 
ATOM     23  C   UNL     1       7.035   6.907  16.753  0.00  0.00    +0.000 C 
ATOM     24  C   UNL     1       5.591   5.508  15.266  0.00  0.00    +0.000 C 
ENDBRANCH  10  22
TORSDOF 2
ENDMDL
MODEL 3
REMARK VINA RESULT:      -6.2      5.540      7.979
REMARK  Name = 
REMARK  9 active torsions:
REMARK  status: ('A' for Active; 'I' for Inactive)
REMARK    1  A    between atoms: C_1  and  C_2
REMARK    2  A    between atoms: C_4  and  C_5
REMARK    3  A    between atoms: N_10  and  C_11
REMARK    4  A    between atoms: C_11  and  C_12
REMARK    5  A    between atoms: C_11  and  C_13
REMARK    6  A    between atoms: N_16  and  C_17
REMARK    7  A    between atoms: C_17  and  C_18
REMARK    8  A    between atoms: C_17  and  C_19
REMARK    9  A    between atoms: C_17  and  C_20
REMARK                            x       y       z     vdW  Elec       q    Type
REMARK                         _______ _______ _______ _____ _____    ______ ____
ROOT
ATOM      1  C   UNL     1       3.156  15.777  22.366  0.00  0.00    +0.000 C 
ATOM      2  C   UNL     1       2.145  15.459  21.331  0.00  0.00    +0.000 A 
ATOM      3  C   UNL     1       1.556  16.327  20.395  0.00  0.00    +0.000 A 
ATOM      4  C   UNL     1       0.679  15.549  19.668  0.00  0.00    +0.000 A 
ATOM      5  C   UNL     1      -0.273  15.953  18.602  0.00  0.00    +0.000 C 
ATOM      6  N   UNL     1       0.817  14.247  20.148  0.00  0.00    +0.000 N 
ATOM      7  C   UNL     1       0.177  13.046  19.677  0.00  0.00    +0.000 A 
ATOM      8  N   UNL     1       0.300  11.949  20.431  0.00  0.00    +0.000 NA
ATOM      9  C   UNL     1      -0.380  10.901  20.026  0.00  0.00    +0.000 A 
ATOM     10  N   UNL     1      -0.538   9.803  20.852  0.00  0.00    +0.000 N 
ATOM     11  N   UNL     1      -1.046  10.854  18.882  0.00  0.00    +0.000 NA
ATOM     12  C   UNL     1      -1.107  11.972  18.172  0.00  0.00    +0.000 A 
ATOM     13  N   UNL     1      -1.843  12.027  17.007  0.00  0.00    +0.000 N 
ATOM     14  N   UNL     1      -0.531  13.101  18.539  0.00  0.00    +0.000 NA
ATOM     15  N   UNL     1       1.680  14.214  21.213  0.00  0.00    +0.000 NA
ATOM     16  H   UNL     1      -1.007   9.071  20.334  0.00  0.00    +0.000 HD
ATOM     17  H   UNL     1      -1.996  12.996  16.755  0.00  0.00    +0.000 HD
ENDROOT
BRANCH  13  18
ATOM     18  C   UNL     1      -2.912  11.072  16.691  0.00  0.00    +0.000 C 
ATOM     19  C   UNL     1      -3.007  10.752  15.189  0.00  0.00    +0.000 C 
ATOM     20  C   UNL     1      -2.590   9.749  17.418  0.00  0.00    +0.000 C 
ATOM     21  C   UNL     1      -4.250  11.596  17.235  0.00  0.00    +0.000 C 
ENDBRANCH  13  18
BRANCH  10  22
ATOM     22  C   UNL     1       0.573   9.418  21.708  0.00  0.00    +0.000 C 
ATOM     23  C   UNL     1       0.135   9.452  23.172  0.00  0.00    +0.000 C 
ATOM     24  C   UNL     1       1.000   7.995  21.332  0.00  0.00    +0.000 C 
ENDBRANCH  10  22
TORSDOF 2
ENDMDL
MODEL 4
REMARK VINA RESULT:      -5.9      5.350      8.160
REMARK  Name = 
REMARK  9 active torsions:
REMARK  status: ('A' for Active; 'I' for Inactive)
REMARK    1  A    between atoms: C_1  and  C_2
REMARK    2  A    between atoms: C_4  and  C_5
REMARK    3  A    between atoms: N_10  and  C_11
REMARK    4  A    between atoms: C_11  and  C_12
REMARK    5  A    between atoms: C_11  and  C_13
REMARK    6  A    between atoms: N_16  and  C_17
REMARK    7  A    between atoms: C_17  and  C_18
REMARK    8  A    between atoms: C_17  and  C_19
REMARK    9  A    between atoms: C_17  and  C_20
REMARK                            x       y       z     vdW  Elec       q    Type
REMARK                         _______ _______ _______ _____ _____    ______ ____
ROOT
ATOM      1  C   UNL     1       4.271  15.382  20.928  0.00  0.00    +0.000 C 
ATOM      2  C   UNL     1       2.983  15.144  20.236  0.00  0.00    +0.000 A 
ATOM      3  C   UNL     1       2.251  16.033  19.430  0.00  0.00    +0.000 A 
ATOM      4  C   UNL     1       1.128  15.336  19.033  0.00  0.00    +0.000 A 
ATOM      5  C   UNL     1      -0.036  15.805  18.239  0.00  0.00    +0.000 C 
ATOM      6  N   UNL     1       1.257  14.051  19.559  0.00  0.00    +0.000 N 
ATOM      7  C   UNL     1       0.387  12.917  19.378  0.00  0.00    +0.000 A 
ATOM      8  N   UNL     1       0.599  11.851  20.154  0.00  0.00    +0.000 NA
ATOM      9  C   UNL     1      -0.274  10.877  20.034  0.00  0.00    +0.000 A 
ATOM     10  N   UNL     1      -0.310   9.846  20.957  0.00  0.00    +0.000 N 
ATOM     11  N   UNL     1      -1.235  10.859  19.123  0.00  0.00    +0.000 NA
ATOM     12  C   UNL     1      -1.373  11.941  18.370  0.00  0.00    +0.000 A 
ATOM     13  N   UNL     1      -2.396  12.032  17.449  0.00  0.00    +0.000 N 
ATOM     14  N   UNL     1      -0.602  13.006  18.475  0.00  0.00    +0.000 NA
ATOM     15  N   UNL     1       2.374  13.961  20.348  0.00  0.00    +0.000 NA
ATOM     16  H   UNL     1      -0.980   9.155  20.646  0.00  0.00    +0.000 HD
ATOM     17  H   UNL     1      -2.510  13.000  17.172  0.00  0.00    +0.000 HD
ENDROOT
BRANCH  13  18
ATOM     18  C   UNL     1      -3.605  11.203  17.513  0.00  0.00    +0.000 C 
ATOM     19  C   UNL     1      -3.297   9.704  17.676  0.00  0.00    +0.000 C 
ATOM     20  C   UNL     1      -4.409  11.639  18.755  0.00  0.00    +0.000 C 
ATOM     21  C   UNL     1      -4.474  11.461  16.272  0.00  0.00    +0.000 C 
ENDBRANCH  13  18
BRANCH  10  22
ATOM     22  C   UNL     1       0.949   9.367  21.505  0.00  0.00    +0.000 C 
ATOM     23  C   UNL     1       0.841   9.251  23.025  0.00  0.00    +0.000 C 
ATOM     24  C   UNL     1       1.244   7.990  20.904  0.00  0.00    +0.000 C 
ENDBRANCH  10  22
TORSDOF 2
ENDMDL
MODEL 5
REMARK VINA RESULT:      -5.7      6.199     10.404
REMARK  Name = 
REMARK  9 active torsions:
REMARK  status: ('A' for Active; 'I' for Inactive)
REMARK    1  A    between atoms: C_1  and  C_2
REMARK    2  A    between atoms: C_4  and  C_5
REMARK    3  A    between atoms: N_10  and  C_11
REMARK    4  A    between atoms: C_11  and  C_12
REMARK    5  A    between atoms: C_11  and  C_13
REMARK    6  A    between atoms: N_16  and  C_17
REMARK    7  A    between atoms: C_17  and  C_18
REMARK    8  A    between atoms: C_17  and  C_19
REMARK    9  A    between atoms: C_17  and  C_20
REMARK                            x       y       z     vdW  Elec       q    Type
REMARK                         _______ _______ _______ _____ _____    ______ ____
ROOT
ATOM      1  C   UNL     1       1.948   8.580  18.277  0.00  0.00    +0.000 C 
ATOM      2  C   UNL     1       1.071   9.774  18.290  0.00  0.00    +0.000 A 
ATOM      3  C   UNL     1      -0.327   9.828  18.144  0.00  0.00    +0.000 A 
ATOM      4  C   UNL     1      -0.656  11.165  18.221  0.00  0.00    +0.000 A 
ATOM      5  C   UNL     1      -1.980  11.817  18.051  0.00  0.00    +0.000 C 
ATOM      6  N   UNL     1       0.533  11.850  18.469  0.00  0.00    +0.000 N 
ATOM      7  C   UNL     1       0.724  13.258  18.704  0.00  0.00    +0.000 A 
ATOM      8  N   UNL     1       1.980  13.716  18.704  0.00  0.00    +0.000 NA
ATOM      9  C   UNL     1       2.111  15.017  18.819  0.00  0.00    +0.000 A 
ATOM     10  N   UNL     1       3.329  15.626  18.574  0.00  0.00    +0.000 N 
ATOM     11  N   UNL     1       1.101  15.841  19.053  0.00  0.00    +0.000 NA
ATOM     12  C   UNL     1      -0.116  15.315  19.064  0.00  0.00    +0.000 A 
ATOM     13  N   UNL     1      -1.228  16.116  19.227  0.00  0.00    +0.000 N 
ATOM     14  N   UNL     1      -0.359  14.033  18.871  0.00  0.00    +0.000 NA
ATOM     15  N   UNL     1       1.599  10.989  18.451  0.00  0.00    +0.000 NA
ATOM     16  H   UNL     1       3.253  16.609  18.801  0.00  0.00    +0.000 HD
ATOM     17  H   UNL     1      -2.053  15.602  18.942  0.00  0.00    +0.000 HD
ENDROOT
BRANCH  13  18
ATOM     18  C   UNL     1      -1.214  17.562  18.977  0.00  0.00    +0.000 C 
ATOM     19  C   UNL     1      -0.700  17.924  17.572  0.00  0.00    +0.000 C 
ATOM     20  C   UNL     1      -2.668  18.070  19.073  0.00  0.00    +0.000 C 
ATOM     21  C   UNL     1      -0.394  18.267  20.068  0.00  0.00    +0.000 C 
ENDBRANCH  13  18
BRANCH  10  22
ATOM     22  C   UNL     1       4.541  14.931  18.980  0.00  0.00    +0.000 C 
ATOM     23  C   UNL     1       5.524  14.879  17.811  0.00  0.00    +0.000 C 
ATOM     24  C   UNL     1       5.170  15.700  20.146  0.00  0.00    +0.000 C 
ENDBRANCH  10  22
TORSDOF 2
ENDMDL
MODEL 6
REMARK VINA RESULT:      -5.7      7.403      9.209
REMARK  Name = 
REMARK  9 active torsions:
REMARK  status: ('A' for Active; 'I' for Inactive)
REMARK    1  A    between atoms: C_1  and  C_2
REMARK    2  A    between atoms: C_4  and  C_5
REMARK    3  A    between atoms: N_10  and  C_11
REMARK    4  A    between atoms: C_11  and  C_12
REMARK    5  A    between atoms: C_11  and  C_13
REMARK    6  A    between atoms: N_16  and  C_17
REMARK    7  A    between atoms: C_17  and  C_18
REMARK    8  A    between atoms: C_17  and  C_19
REMARK    9  A    between atoms: C_17  and  C_20
REMARK                            x       y       z     vdW  Elec       q    Type
REMARK                         _______ _______ _______ _____ _____    ______ ____
ROOT
ATOM      1  C   UNL     1      -7.703  12.056  21.329  0.00  0.00    +0.000 C 
ATOM      2  C   UNL     1      -6.290  12.488  21.433  0.00  0.00    +0.000 A 
ATOM      3  C   UNL     1      -5.679  13.224  22.463  0.00  0.00    +0.000 A 
ATOM      4  C   UNL     1      -4.361  13.371  22.083  0.00  0.00    +0.000 A 
ATOM      5  C   UNL     1      -3.271  14.129  22.747  0.00  0.00    +0.000 C 
ATOM      6  N   UNL     1      -4.218  12.674  20.883  0.00  0.00    +0.000 N 
ATOM      7  C   UNL     1      -3.023  12.460  20.108  0.00  0.00    +0.000 A 
ATOM      8  N   UNL     1      -3.169  11.946  18.884  0.00  0.00    +0.000 NA
ATOM      9  C   UNL     1      -2.071  11.859  18.168  0.00  0.00    +0.000 A 
ATOM     10  N   UNL     1      -2.134  11.591  16.812  0.00  0.00    +0.000 N 
ATOM     11  N   UNL     1      -0.863  12.128  18.638  0.00  0.00    +0.000 NA
ATOM     12  C   UNL     1      -0.789  12.612  19.871  0.00  0.00    +0.000 A 
ATOM     13  N   UNL     1       0.425  12.988  20.408  0.00  0.00    +0.000 N 
ATOM     14  N   UNL     1      -1.843  12.818  20.637  0.00  0.00    +0.000 NA
ATOM     15  N   UNL     1      -5.427  12.185  20.461  0.00  0.00    +0.000 NA
ATOM     16  H   UNL     1      -1.193  11.474  16.459  0.00  0.00    +0.000 HD
ATOM     17  H   UNL     1       0.263  13.570  21.221  0.00  0.00    +0.000 HD
ENDROOT
BRANCH  13  18
ATOM     18  C   UNL     1       1.603  13.289  19.587  0.00  0.00    +0.000 C 
ATOM     19  C   UNL     1       1.963  12.153  18.614  0.00  0.00    +0.000 C 
ATOM     20  C   UNL     1       1.277  14.532  18.733  0.00  0.00    +0.000 C 
ATOM     21  C   UNL     1       2.790  13.639  20.498  0.00  0.00    +0.000 C 
ENDBRANCH  13  18
BRANCH  10  22
ATOM     22  C   UNL     1      -3.152  10.665  16.339  0.00  0.00    +0.000 C 
ATOM     23  C   UNL     1      -4.522  11.343  16.368  0.00  0.00    +0.000 C 
ATOM     24  C   UNL     1      -2.808  10.263  14.902  0.00  0.00    +0.000 C 
ENDBRANCH  10  22
TORSDOF 2
ENDMDL
MODEL 7
REMARK VINA RESULT:      -5.6      5.507      8.573
REMARK  Name = 
REMARK  9 active torsions:
REMARK  status: ('A' for Active; 'I' for Inactive)
REMARK    1  A    between atoms: C_1  and  C_2
REMARK    2  A    between atoms: C_4  and  C_5
REMARK    3  A    between atoms: N_10  and  C_11
REMARK    4  A    between atoms: C_11  and  C_12
REMARK    5  A    between atoms: C_11  and  C_13
REMARK    6  A    between atoms: N_16  and  C_17
REMARK    7  A    between atoms: C_17  and  C_18
REMARK    8  A    between atoms: C_17  and  C_19
REMARK    9  A    between atoms: C_17  and  C_20
REMARK                            x       y       z     vdW  Elec       q    Type
REMARK                         _______ _______ _______ _____ _____    ______ ____
ROOT
ATOM      1  C   UNL     1      -0.324  17.877  17.465  0.00  0.00    +0.000 C 
ATOM      2  C   UNL     1       0.156  16.760  18.313  0.00  0.00    +0.000 A 
ATOM      3  C   UNL     1       1.109  16.800  19.345  0.00  0.00    +0.000 A 
ATOM      4  C   UNL     1       1.205  15.506  19.813  0.00  0.00    +0.000 A 
ATOM      5  C   UNL     1       2.115  14.944  20.843  0.00  0.00    +0.000 C 
ATOM      6  N   UNL     1       0.273  14.759  19.093  0.00  0.00    +0.000 N 
ATOM      7  C   UNL     1      -0.072  13.369  19.246  0.00  0.00    +0.000 A 
ATOM      8  N   UNL     1      -0.839  12.818  18.301  0.00  0.00    +0.000 NA
ATOM      9  C   UNL     1      -1.049  11.527  18.418  0.00  0.00    +0.000 A 
ATOM     10  N   UNL     1      -1.602  10.806  17.374  0.00  0.00    +0.000 N 
ATOM     11  N   UNL     1      -0.655  10.809  19.459  0.00  0.00    +0.000 NA
ATOM     12  C   UNL     1       0.082  11.425  20.373  0.00  0.00    +0.000 A 
ATOM     13  N   UNL     1       0.594  10.731  21.449  0.00  0.00    +0.000 N 
ATOM     14  N   UNL     1       0.421  12.698  20.300  0.00  0.00    +0.000 NA
ATOM     15  N   UNL     1      -0.326  15.530  18.131  0.00  0.00    +0.000 NA
ATOM     16  H   UNL     1      -1.768   9.858  17.686  0.00  0.00    +0.000 HD
ATOM     17  H   UNL     1       1.332  11.277  21.877  0.00  0.00    +0.000 HD
ENDROOT
BRANCH  13  18
ATOM     18  C   UNL     1       0.742   9.271  21.461  0.00  0.00    +0.000 C 
ATOM     19  C   UNL     1       1.329   8.716  20.152  0.00  0.00    +0.000 C 
ATOM     20  C   UNL     1       1.729   8.908  22.591  0.00  0.00    +0.000 C 
ATOM     21  C   UNL     1      -0.610   8.618  21.786  0.00  0.00    +0.000 C 
ENDBRANCH  13  18
BRANCH  10  22
ATOM     22  C   UNL     1      -2.632  11.441  16.568  0.00  0.00    +0.000 C 
ATOM     23  C   UNL     1      -2.821  10.666  15.265  0.00  0.00    +0.000 C 
ATOM     24  C   UNL     1      -3.941  11.433  17.364  0.00  0.00    +0.000 C 
ENDBRANCH  10  22
TORSDOF 2
ENDMDL
MODEL 8
REMARK VINA RESULT:      -5.5      7.676      9.601
REMARK  Name = 
REMARK  9 active torsions:
REMARK  status: ('A' for Active; 'I' for Inactive)
REMARK    1  A    between atoms: C_1  and  C_2
REMARK    2  A    between atoms: C_4  and  C_5
REMARK    3  A    between atoms: N_10  and  C_11
REMARK    4  A    between atoms: C_11  and  C_12
REMARK    5  A    between atoms: C_11  and  C_13
REMARK    6  A    between atoms: N_16  and  C_17
REMARK    7  A    between atoms: C_17  and  C_18
REMARK    8  A    between atoms: C_17  and  C_19
REMARK    9  A    between atoms: C_17  and  C_20
REMARK                            x       y       z     vdW  Elec       q    Type
REMARK                         _______ _______ _______ _____ _____    ______ ____
ROOT
ATOM      1  C   UNL     1      -7.714  11.831  21.561  0.00  0.00    +0.000 C 
ATOM      2  C   UNL     1      -6.391  12.480  21.720  0.00  0.00    +0.000 A 
ATOM      3  C   UNL     1      -5.965  13.346  22.742  0.00  0.00    +0.000 A 
ATOM      4  C   UNL     1      -4.663  13.677  22.428  0.00  0.00    +0.000 A 
ATOM      5  C   UNL     1      -3.744  14.624  23.111  0.00  0.00    +0.000 C 
ATOM      6  N   UNL     1      -4.341  12.958  21.278  0.00  0.00    +0.000 N 
ATOM      7  C   UNL     1      -3.080  12.896  20.584  0.00  0.00    +0.000 A 
ATOM      8  N   UNL     1      -3.069  12.310  19.383  0.00  0.00    +0.000 NA
ATOM      9  C   UNL     1      -1.927  12.362  18.735  0.00  0.00    +0.000 A 
ATOM     10  N   UNL     1      -1.863  12.026  17.394  0.00  0.00    +0.000 N 
ATOM     11  N   UNL     1      -0.806  12.835  19.258  0.00  0.00    +0.000 NA
ATOM     12  C   UNL     1      -0.884  13.379  20.464  0.00  0.00    +0.000 A 
ATOM     13  N   UNL     1       0.222  13.961  21.047  0.00  0.00    +0.000 N 
ATOM     14  N   UNL     1      -2.004  13.455  21.158  0.00  0.00    +0.000 NA
ATOM     15  N   UNL     1      -5.432  12.270  20.816  0.00  0.00    +0.000 NA
ATOM     16  H   UNL     1      -0.894  12.040  17.102  0.00  0.00    +0.000 HD
ATOM     17  H   UNL     1      -0.077  14.548  21.817  0.00  0.00    +0.000 HD
ENDROOT
BRANCH  13  18
ATOM     18  C   UNL     1       1.391  14.403  20.279  0.00  0.00    +0.000 C 
ATOM     19  C   UNL     1       2.261  13.234  19.784  0.00  0.00    +0.000 C 
ATOM     20  C   UNL     1       0.878  15.147  19.029  0.00  0.00    +0.000 C 
ATOM     21  C   UNL     1       2.215  15.394  21.115  0.00  0.00    +0.000 C 
ENDBRANCH  13  18
BRANCH  10  22
ATOM     22  C   UNL     1      -2.697  10.934  16.917  0.00  0.00    +0.000 C 
ATOM     23  C   UNL     1      -3.039  11.151  15.443  0.00  0.00    +0.000 C 
ATOM     24  C   UNL     1      -1.916   9.626  17.076  0.00  0.00    +0.000 C 
ENDBRANCH  10  22
TORSDOF 2
ENDMDL
MODEL 9
REMARK VINA RESULT:      -5.4      1.377      5.759
REMARK  Name = 
REMARK  9 active torsions:
REMARK  status: ('A' for Active; 'I' for Inactive)
REMARK    1  A    between atoms: C_1  and  C_2
REMARK    2  A    between atoms: C_4  and  C_5
REMARK    3  A    between atoms: N_10  and  C_11
REMARK    4  A    between atoms: C_11  and  C_12
REMARK    5  A    between atoms: C_11  and  C_13
REMARK    6  A    between atoms: N_16  and  C_17
REMARK    7  A    between atoms: C_17  and  C_18
REMARK    8  A    between atoms: C_17  and  C_19
REMARK    9  A    between atoms: C_17  and  C_20
REMARK                            x       y       z     vdW  Elec       q    Type
REMARK                         _______ _______ _______ _____ _____    ______ ____
ROOT
ATOM      1  C   UNL     1       5.934   3.469  15.511  0.00  0.00    +0.000 C 
ATOM      2  C   UNL     1       5.369   4.672  16.167  0.00  0.00    +0.000 A 
ATOM      3  C   UNL     1       5.579   6.022  15.836  0.00  0.00    +0.000 A 
ATOM      4  C   UNL     1       4.839   6.746  16.747  0.00  0.00    +0.000 A 
ATOM      5  C   UNL     1       4.750   8.218  16.926  0.00  0.00    +0.000 C 
ATOM      6  N   UNL     1       4.173   5.814  17.542  0.00  0.00    +0.000 N 
ATOM      7  C   UNL     1       3.220   6.053  18.596  0.00  0.00    +0.000 A 
ATOM      8  N   UNL     1       2.877   5.013  19.361  0.00  0.00    +0.000 NA
ATOM      9  C   UNL     1       2.087   5.288  20.374  0.00  0.00    +0.000 A 
ATOM     10  N   UNL     1       1.876   4.355  21.375  0.00  0.00    +0.000 N 
ATOM     11  N   UNL     1       1.539   6.476  20.579  0.00  0.00    +0.000 NA
ATOM     12  C   UNL     1       1.905   7.457  19.766  0.00  0.00    +0.000 A 
ATOM     13  N   UNL     1       1.438   8.741  19.957  0.00  0.00    +0.000 N 
ATOM     14  N   UNL     1       2.761   7.302  18.774  0.00  0.00    +0.000 NA
ATOM     15  N   UNL     1       4.553   4.539  17.214  0.00  0.00    +0.000 NA
ATOM     16  H   UNL     1       1.174   4.713  22.010  0.00  0.00    +0.000 HD
ATOM     17  H   UNL     1       2.016   9.387  19.433  0.00  0.00    +0.000 HD
ENDROOT
BRANCH  13  18
ATOM     18  C   UNL     1       0.891   9.210  21.235  0.00  0.00    +0.000 C 
ATOM     19  C   UNL     1       1.866   9.024  22.411  0.00  0.00    +0.000 C 
ATOM     20  C   UNL     1       0.621  10.723  21.105  0.00  0.00    +0.000 C 
ATOM     21  C   UNL     1      -0.450   8.512  21.509  0.00  0.00    +0.000 C 
ENDBRANCH  13  18
BRANCH  10  22
ATOM     22  C   UNL     1       1.797   2.951  21.003  0.00  0.00    +0.000 C 
ATOM     23  C   UNL     1       1.389   2.118  22.218  0.00  0.00    +0.000 C 
ATOM     24  C   UNL     1       0.744   2.803  19.901  0.00  0.00    +0.000 C 
ENDBRANCH  10  22
TORSDOF 2
ENDMDL
