MODEL 1
REMARK VINA RESULT:      -6.1      0.000      0.000
REMARK  Name = 
REMARK  9 active torsions:
REMARK  status: ('A' for Active; 'I' for Inactive)
REMARK    1  A    between atoms: C_1  and  O_2
REMARK    2  A    between atoms: O_2  and  C_3
REMARK    3  A    between atoms: C_3  and  C_4
REMARK    4  A    between atoms: C_3  and  C_11
REMARK    5  A    between atoms: N_14  and  S_15
REMARK    6  A    between atoms: S_15  and  C_18
REMARK    7  A    between atoms: C_19  and  C_20
REMARK    8  A    between atoms: N_22  and  C_23
REMARK    9  A    between atoms: C_24  and  C_25
REMARK                            x       y       z     vdW  Elec       q    Type
REMARK                         _______ _______ _______ _____ _____    ______ ____
ROOT
ATOM      1  C   UNL     1       0.565  12.442  18.884  0.00  0.00    +0.000 C 
ATOM      2  C   UNL     1       1.442  12.711  20.121  0.00  0.00    +0.000 C 
ATOM      3  C   UNL     1       0.663  13.197  21.345  0.00  0.00    +0.000 C 
ATOM      4  N   UNL     1      -0.179  14.391  21.029  0.00  0.00    +0.000 NA
ATOM      5  C   UNL     1      -1.039  14.196  19.820  0.00  0.00    +0.000 C 
ATOM      6  C   UNL     1      -0.231  13.728  18.618  0.00  0.00    +0.000 C 
ENDROOT
BRANCH   4   7
ATOM      7  S   UNL     1      -1.157  14.900  22.362  0.00  0.00    +0.000 S 
ATOM      8  O   UNL     1      -0.518  14.464  23.585  0.00  0.00    +0.000 OA
ATOM      9  O   UNL     1      -1.489  16.295  22.156  0.00  0.00    +0.000 OA
BRANCH   7  10
ATOM     10  C   UNL     1      -2.664  14.066  22.370  0.00  0.00    +0.000 A 
ATOM     11  C   UNL     1      -2.851  12.695  22.664  0.00  0.00    +0.000 A 
ATOM     12  C   UNL     1      -1.865  11.645  23.022  0.00  0.00    +0.000 C 
ATOM     13  N   UNL     1      -4.150  12.365  22.633  0.00  0.00    +0.000 NA
ATOM     14  N   UNL     1      -4.787  13.524  22.400  0.00  0.00    +0.000 N 
ATOM     15  C   UNL     1      -6.233  13.540  22.421  0.00  0.00    +0.000 C 
ATOM     16  C   UNL     1      -3.943  14.589  22.218  0.00  0.00    +0.000 A 
ATOM     17  C   UNL     1      -4.405  15.980  21.983  0.00  0.00    +0.000 C 
ENDBRANCH   7  10
ENDBRANCH   4   7
BRANCH   1  18
ATOM     18  C   UNL     1      -0.288  11.137  18.997  0.00  0.00    +0.000 C 
BRANCH  18  19
ATOM     19  C   UNL     1       0.601   9.905  19.109  0.00  0.00    +0.000 A 
ATOM     20  C   UNL     1       1.303   9.408  17.998  0.00  0.00    +0.000 A 
ATOM     21  C   UNL     1       2.101   8.269  18.098  0.00  0.00    +0.000 A 
ATOM     22  C   UNL     1       2.218   7.622  19.324  0.00  0.00    +0.000 A 
ATOM     23 CL   UNL     1       3.199   6.213  19.454  0.00  0.00    +0.000 Cl
ATOM     24  C   UNL     1       1.548   8.106  20.446  0.00  0.00    +0.000 A 
ATOM     25  C   UNL     1       0.739   9.243  20.338  0.00  0.00    +0.000 A 
ENDBRANCH  18  19
BRANCH  18  27
ATOM     26  C   UNL     1      -2.530  10.696  18.250  0.00  0.00    +0.000 C 
ATOM     27  O   UNL     1      -1.192  11.031  17.896  0.00  0.00    +0.000 OA
ENDBRANCH  18  27
ENDBRANCH   1  18
TORSDOF 5
ENDMDL
MODEL 2
REMARK VINA RESULT:      -6.0      2.191      2.737
REMARK  Name = 
REMARK  9 active torsions:
REMARK  status: ('A' for Active; 'I' for Inactive)
REMARK    1  A    between atoms: C_1  and  O_2
REMARK    2  A    between atoms: O_2  and  C_3
REMARK    3  A    between atoms: C_3  and  C_4
REMARK    4  A    between atoms: C_3  and  C_11
REMARK    5  A    between atoms: N_14  and  S_15
REMARK    6  A    between atoms: S_15  and  C_18
REMARK    7  A    between atoms: C_19  and  C_20
REMARK    8  A    between atoms: N_22  and  C_23
REMARK    9  A    between atoms: C_24  and  C_25
REMARK                            x       y       z     vdW  Elec       q    Type
REMARK                         _______ _______ _______ _____ _____    ______ ____
ROOT
ATOM      1  C   UNL     1       0.212  11.464  20.907  0.00  0.00    +0.000 C 
ATOM      2  C   UNL     1       0.023  10.982  22.357  0.00  0.00    +0.000 C 
ATOM      3  C   UNL     1      -1.414  11.097  22.871  0.00  0.00    +0.000 C 
ATOM      4  N   UNL     1      -1.956  12.480  22.702  0.00  0.00    +0.000 NA
ATOM      5  C   UNL     1      -1.780  13.011  21.314  0.00  0.00    +0.000 C 
ATOM      6  C   UNL     1      -0.338  12.897  20.841  0.00  0.00    +0.000 C 
ENDROOT
BRANCH   4   7
ATOM      7  S   UNL     1      -3.615  12.618  23.172  0.00  0.00    +0.000 S 
ATOM      8  O   UNL     1      -4.431  12.533  21.979  0.00  0.00    +0.000 OA
ATOM      9  O   UNL     1      -3.833  11.716  24.285  0.00  0.00    +0.000 OA
BRANCH   7  10
ATOM     10  C   UNL     1      -3.950  14.193  23.783  0.00  0.00    +0.000 A 
ATOM     11  C   UNL     1      -3.003  15.085  24.340  0.00  0.00    +0.000 A 
ATOM     12  C   UNL     1      -1.542  14.929  24.549  0.00  0.00    +0.000 C 
ATOM     13  N   UNL     1      -3.574  16.250  24.677  0.00  0.00    +0.000 NA
ATOM     14  N   UNL     1      -4.848  16.132  24.269  0.00  0.00    +0.000 N 
ATOM     15  C   UNL     1      -5.724  17.277  24.381  0.00  0.00    +0.000 C 
ATOM     16  C   UNL     1      -5.142  14.905  23.733  0.00  0.00    +0.000 A 
ATOM     17  C   UNL     1      -6.471  14.542  23.179  0.00  0.00    +0.000 C 
ENDBRANCH   7  10
ENDBRANCH   4   7
BRANCH   1  18
ATOM     18  C   UNL     1      -0.365  10.476  19.842  0.00  0.00    +0.000 C 
BRANCH  18  19
ATOM     19  C   UNL     1       0.683   9.458  19.410  0.00  0.00    +0.000 A 
ATOM     20  C   UNL     1       1.241   9.486  18.120  0.00  0.00    +0.000 A 
ATOM     21  C   UNL     1       2.185   8.542  17.720  0.00  0.00    +0.000 A 
ATOM     22  C   UNL     1       2.596   7.563  18.619  0.00  0.00    +0.000 A 
ATOM     23 CL   UNL     1       3.759   6.393  18.130  0.00  0.00    +0.000 Cl
ATOM     24  C   UNL     1       2.073   7.525  19.910  0.00  0.00    +0.000 A 
ATOM     25  C   UNL     1       1.117   8.468  20.303  0.00  0.00    +0.000 A 
ENDBRANCH  18  19
BRANCH  18  27
ATOM     26  C   UNL     1      -2.175  10.762  18.286  0.00  0.00    +0.000 C 
ATOM     27  O   UNL     1      -0.890  11.193  18.724  0.00  0.00    +0.000 OA
ENDBRANCH  18  27
ENDBRANCH   1  18
TORSDOF 5
ENDMDL
MODEL 3
REMARK VINA RESULT:      -6.0      4.367      7.139
REMARK  Name = 
REMARK  9 active torsions:
REMARK  status: ('A' for Active; 'I' for Inactive)
REMARK    1  A    between atoms: C_1  and  O_2
REMARK    2  A    between atoms: O_2  and  C_3
REMARK    3  A    between atoms: C_3  and  C_4
REMARK    4  A    between atoms: C_3  and  C_11
REMARK    5  A    between atoms: N_14  and  S_15
REMARK    6  A    between atoms: S_15  and  C_18
REMARK    7  A    between atoms: C_19  and  C_20
REMARK    8  A    between atoms: N_22  and  C_23
REMARK    9  A    between atoms: C_24  and  C_25
REMARK                            x       y       z     vdW  Elec       q    Type
REMARK                         _______ _______ _______ _____ _____    ______ ____
ROOT
ATOM      1  C   UNL     1       3.257   5.428  18.996  0.00  0.00    +0.000 C 
ATOM      2  C   UNL     1       2.252   5.647  17.849  0.00  0.00    +0.000 C 
ATOM      3  C   UNL     1       1.924   7.117  17.578  0.00  0.00    +0.000 C 
ATOM      4  N   UNL     1       1.470   7.822  18.815  0.00  0.00    +0.000 NA
ATOM      5  C   UNL     1       2.398   7.627  19.973  0.00  0.00    +0.000 C 
ATOM      6  C   UNL     1       2.691   6.155  20.225  0.00  0.00    +0.000 C 
ENDROOT
BRANCH   4   7
ATOM      7  S   UNL     1       1.196   9.512  18.568  0.00  0.00    +0.000 S 
ATOM      8  O   UNL     1       2.460  10.131  18.230  0.00  0.00    +0.000 OA
ATOM      9  O   UNL     1       0.047   9.647  17.696  0.00  0.00    +0.000 OA
BRANCH   7  10
ATOM     10  C   UNL     1       0.746  10.282  20.042  0.00  0.00    +0.000 A 
ATOM     11  C   UNL     1       0.969  11.640  20.370  0.00  0.00    +0.000 A 
ATOM     12  C   UNL     1       1.618  12.723  19.590  0.00  0.00    +0.000 C 
ATOM     13  N   UNL     1       0.456  11.939  21.572  0.00  0.00    +0.000 NA
ATOM     14  N   UNL     1      -0.152  10.810  21.970  0.00  0.00    +0.000 N 
ATOM     15  C   UNL     1      -0.917  10.827  23.197  0.00  0.00    +0.000 C 
ATOM     16  C   UNL     1      -0.001   9.766  21.094  0.00  0.00    +0.000 A 
ATOM     17  C   UNL     1      -0.610   8.427  21.292  0.00  0.00    +0.000 C 
ENDBRANCH   7  10
ENDBRANCH   4   7
BRANCH   1  18
ATOM     18  C   UNL     1       4.727   5.801  18.615  0.00  0.00    +0.000 C 
BRANCH  18  19
ATOM     19  C   UNL     1       5.087   5.276  17.231  0.00  0.00    +0.000 A 
ATOM     20  C   UNL     1       5.203   3.898  16.981  0.00  0.00    +0.000 A 
ATOM     21  C   UNL     1       5.553   3.419  15.719  0.00  0.00    +0.000 A 
ATOM     22  C   UNL     1       5.775   4.321  14.683  0.00  0.00    +0.000 A 
ATOM     23 CL   UNL     1       6.211   3.738  13.124  0.00  0.00    +0.000 Cl
ATOM     24  C   UNL     1       5.648   5.693  14.900  0.00  0.00    +0.000 A 
ATOM     25  C   UNL     1       5.308   6.168  16.172  0.00  0.00    +0.000 A 
ENDBRANCH  18  19
BRANCH  18  27
ATOM     26  C   UNL     1       7.008   5.623  19.353  0.00  0.00    +0.000 C 
ATOM     27  O   UNL     1       5.638   5.329  19.608  0.00  0.00    +0.000 OA
ENDBRANCH  18  27
ENDBRANCH   1  18
TORSDOF 5
ENDMDL
MODEL 4
REMARK VINA RESULT:      -6.0      2.340      3.059
REMARK  Name = 
REMARK  9 active torsions:
REMARK  status: ('A' for Active; 'I' for Inactive)
REMARK    1  A    between atoms: C_1  and  O_2
REMARK    2  A    between atoms: O_2  and  C_3
REMARK    3  A    between atoms: C_3  and  C_4
REMARK    4  A    between atoms: C_3  and  C_11
REMARK    5  A    between atoms: N_14  and  S_15
REMARK    6  A    between atoms: S_15  and  C_18
REMARK    7  A    between atoms: C_19  and  C_20
REMARK    8  A    between atoms: N_22  and  C_23
REMARK    9  A    between atoms: C_24  and  C_25
REMARK                            x       y       z     vdW  Elec       q    Type
REMARK                         _______ _______ _______ _____ _____    ______ ____
ROOT
ATOM      1  C   UNL     1       0.084  11.518  21.337  0.00  0.00    +0.000 C 
ATOM      2  C   UNL     1      -0.430  11.011  22.697  0.00  0.00    +0.000 C 
ATOM      3  C   UNL     1      -1.878  11.400  23.002  0.00  0.00    +0.000 C 
ATOM      4  N   UNL     1      -2.097  12.873  22.874  0.00  0.00    +0.000 NA
ATOM      5  C   UNL     1      -1.596  13.427  21.577  0.00  0.00    +0.000 C 
ATOM      6  C   UNL     1      -0.149  13.035  21.312  0.00  0.00    +0.000 C 
ENDROOT
BRANCH   4   7
ATOM      7  S   UNL     1      -3.748  13.334  23.104  0.00  0.00    +0.000 S 
ATOM      8  O   UNL     1      -4.298  13.705  21.817  0.00  0.00    +0.000 OA
ATOM      9  O   UNL     1      -4.380  12.312  23.914  0.00  0.00    +0.000 OA
BRANCH   7  10
ATOM     10  C   UNL     1      -3.857  14.784  24.027  0.00  0.00    +0.000 A 
ATOM     11  C   UNL     1      -2.784  15.429  24.686  0.00  0.00    +0.000 A 
ATOM     12  C   UNL     1      -1.348  15.063  24.773  0.00  0.00    +0.000 C 
ATOM     13  N   UNL     1      -3.190  16.564  25.275  0.00  0.00    +0.000 NA
ATOM     14  N   UNL     1      -4.482  16.680  24.930  0.00  0.00    +0.000 N 
ATOM     15  C   UNL     1      -5.199  17.876  25.313  0.00  0.00    +0.000 C 
ATOM     16  C   UNL     1      -4.949  15.628  24.186  0.00  0.00    +0.000 A 
ATOM     17  C   UNL     1      -6.333  15.542  23.654  0.00  0.00    +0.000 C 
ENDBRANCH   7  10
ENDBRANCH   4   7
BRANCH   1  18
ATOM     18  C   UNL     1      -0.500  10.731  20.118  0.00  0.00    +0.000 C 
BRANCH  18  19
ATOM     19  C   UNL     1       0.495   9.700  19.600  0.00  0.00    +0.000 A 
ATOM     20  C   UNL     1       1.029   8.712  20.445  0.00  0.00    +0.000 A 
ATOM     21  C   UNL     1       1.955   7.781  19.974  0.00  0.00    +0.000 A 
ATOM     22  C   UNL     1       2.345   7.821  18.640  0.00  0.00    +0.000 A 
ATOM     23 CL   UNL     1       3.489   6.678  18.053  0.00  0.00    +0.000 Cl
ATOM     24  C   UNL     1       1.815   8.778  17.776  0.00  0.00    +0.000 A 
ATOM     25  C   UNL     1       0.895   9.717  18.257  0.00  0.00    +0.000 A 
ENDBRANCH  18  19
BRANCH  18  27
ATOM     26  C   UNL     1      -2.242  11.456  18.629  0.00  0.00    +0.000 C 
ATOM     27  O   UNL     1      -0.905  11.632  19.087  0.00  0.00    +0.000 OA
ENDBRANCH  18  27
ENDBRANCH   1  18
TORSDOF 5
ENDMDL
MODEL 5
REMARK VINA RESULT:      -5.9      1.928      2.785
REMARK  Name = 
REMARK  9 active torsions:
REMARK  status: ('A' for Active; 'I' for Inactive)
REMARK    1  A    between atoms: C_1  and  O_2
REMARK    2  A    between atoms: O_2  and  C_3
REMARK    3  A    between atoms: C_3  and  C_4
REMARK    4  A    between atoms: C_3  and  C_11
REMARK    5  A    between atoms: N_14  and  S_15
REMARK    6  A    between atoms: S_15  and  C_18
REMARK    7  A    between atoms: C_19  and  C_20
REMARK    8  A    between atoms: N_22  and  C_23
REMARK    9  A    between atoms: C_24  and  C_25
REMARK                            x       y       z     vdW  Elec       q    Type
REMARK                         _______ _______ _______ _____ _____    ______ ____
ROOT
ATOM      1  C   UNL     1      -0.154  11.905  21.628  0.00  0.00    +0.000 C 
ATOM      2  C   UNL     1      -1.167  11.476  22.706  0.00  0.00    +0.000 C 
ATOM      3  C   UNL     1      -2.550  12.112  22.551  0.00  0.00    +0.000 C 
ATOM      4  N   UNL     1      -2.471  13.602  22.468  0.00  0.00    +0.000 NA
ATOM      5  C   UNL     1      -1.484  14.079  21.449  0.00  0.00    +0.000 C 
ATOM      6  C   UNL     1      -0.116  13.440  21.642  0.00  0.00    +0.000 C 
ENDROOT
BRANCH   4   7
ATOM      7  S   UNL     1      -4.006  14.346  22.182  0.00  0.00    +0.000 S 
ATOM      8  O   UNL     1      -4.449  14.961  23.416  0.00  0.00    +0.000 OA
ATOM      9  O   UNL     1      -3.897  15.123  20.965  0.00  0.00    +0.000 OA
BRANCH   7  10
ATOM     10  C   UNL     1      -5.213  13.159  21.863  0.00  0.00    +0.000 A 
ATOM     11  C   UNL     1      -6.303  12.837  22.706  0.00  0.00    +0.000 A 
ATOM     12  C   UNL     1      -6.694  13.392  24.026  0.00  0.00    +0.000 C 
ATOM     13  N   UNL     1      -7.088  11.905  22.148  0.00  0.00    +0.000 NA
ATOM     14  N   UNL     1      -6.551  11.692  20.936  0.00  0.00    +0.000 N 
ATOM     15  C   UNL     1      -7.235  10.811  20.016  0.00  0.00    +0.000 C 
ATOM     16  C   UNL     1      -5.406  12.411  20.708  0.00  0.00    +0.000 A 
ATOM     17  C   UNL     1      -4.648  12.375  19.432  0.00  0.00    +0.000 C 
ENDBRANCH   7  10
ENDBRANCH   4   7
BRANCH   1  18
ATOM     18  C   UNL     1      -0.419  11.254  20.231  0.00  0.00    +0.000 C 
BRANCH  18  19
ATOM     19  C   UNL     1       0.443  10.015  20.028  0.00  0.00    +0.000 A 
ATOM     20  C   UNL     1       1.054   9.744  18.792  0.00  0.00    +0.000 A 
ATOM     21  C   UNL     1       1.827   8.599  18.603  0.00  0.00    +0.000 A 
ATOM     22  C   UNL     1       2.011   7.715  19.662  0.00  0.00    +0.000 A 
ATOM     23 CL   UNL     1       2.960   6.298  19.434  0.00  0.00    +0.000 Cl
ATOM     24  C   UNL     1       1.432   7.970  20.904  0.00  0.00    +0.000 A 
ATOM     25  C   UNL     1       0.648   9.116  21.085  0.00  0.00    +0.000 A 
ENDBRANCH  18  19
BRANCH  18  27
ATOM     26  C   UNL     1      -1.259  12.263  18.217  0.00  0.00    +0.000 C 
ATOM     27  O   UNL     1      -0.218  12.208  19.187  0.00  0.00    +0.000 OA
ENDBRANCH  18  27
ENDBRANCH   1  18
TORSDOF 5
ENDMDL
MODEL 6
REMARK VINA RESULT:      -5.9      2.133      2.784
REMARK  Name = 
REMARK  9 active torsions:
REMARK  status: ('A' for Active; 'I' for Inactive)
REMARK    1  A    between atoms: C_1  and  O_2
REMARK    2  A    between atoms: O_2  and  C_3
REMARK    3  A    between atoms: C_3  and  C_4
REMARK    4  A    between atoms: C_3  and  C_11
REMARK    5  A    between atoms: N_14  and  S_15
REMARK    6  A    between atoms: S_15  and  C_18
REMARK    7  A    between atoms: C_19  and  C_20
REMARK    8  A    between atoms: N_22  and  C_23
REMARK    9  A    between atoms: C_24  and  C_25
REMARK                            x       y       z     vdW  Elec       q    Type
REMARK                         _______ _______ _______ _____ _____    ______ ____
ROOT
ATOM      1  C   UNL     1       0.071  11.777  19.896  0.00  0.00    +0.000 C 
ATOM      2  C   UNL     1       0.281  11.692  21.420  0.00  0.00    +0.000 C 
ATOM      3  C   UNL     1      -1.016  11.715  22.231  0.00  0.00    +0.000 C 
ATOM      4  N   UNL     1      -1.868  12.893  21.884  0.00  0.00    +0.000 NA
ATOM      5  C   UNL     1      -2.089  13.040  20.411  0.00  0.00    +0.000 C 
ATOM      6  C   UNL     1      -0.779  13.029  19.636  0.00  0.00    +0.000 C 
ENDROOT
BRANCH   4   7
ATOM      7  S   UNL     1      -3.392  12.891  22.703  0.00  0.00    +0.000 S 
ATOM      8  O   UNL     1      -4.441  12.828  21.708  0.00  0.00    +0.000 OA
ATOM      9  O   UNL     1      -3.317  11.908  23.765  0.00  0.00    +0.000 OA
BRANCH   7  10
ATOM     10  C   UNL     1      -3.666  14.398  23.490  0.00  0.00    +0.000 A 
ATOM     11  C   UNL     1      -4.929  14.935  23.837  0.00  0.00    +0.000 A 
ATOM     12  C   UNL     1      -6.295  14.391  23.630  0.00  0.00    +0.000 C 
ATOM     13  N   UNL     1      -4.799  16.102  24.483  0.00  0.00    +0.000 NA
ATOM     14  N   UNL     1      -3.473  16.268  24.616  0.00  0.00    +0.000 N 
ATOM     15  C   UNL     1      -2.986  17.393  25.384  0.00  0.00    +0.000 C 
ATOM     16  C   UNL     1      -2.732  15.278  24.024  0.00  0.00    +0.000 A 
ATOM     17  C   UNL     1      -1.250  15.218  24.065  0.00  0.00    +0.000 C 
ENDBRANCH   7  10
ENDBRANCH   4   7
BRANCH   1  18
ATOM     18  C   UNL     1      -0.476  10.454  19.268  0.00  0.00    +0.000 C 
BRANCH  18  19
ATOM     19  C   UNL     1       0.633   9.423  19.105  0.00  0.00    +0.000 A 
ATOM     20  C   UNL     1       1.357   9.312  17.906  0.00  0.00    +0.000 A 
ATOM     21  C   UNL     1       2.359   8.354  17.751  0.00  0.00    +0.000 A 
ATOM     22  C   UNL     1       2.659   7.502  18.810  0.00  0.00    +0.000 A 
ATOM     23 CL   UNL     1       3.891   6.315  18.625  0.00  0.00    +0.000 Cl
ATOM     24  C   UNL     1       1.969   7.604  20.017  0.00  0.00    +0.000 A 
ATOM     25  C   UNL     1       0.957   8.560  20.162  0.00  0.00    +0.000 A 
ENDBRANCH  18  19
BRANCH  18  27
ATOM     26  C   UNL     1      -2.396  10.090  17.869  0.00  0.00    +0.000 C 
ATOM     27  O   UNL     1      -1.129  10.721  18.027  0.00  0.00    +0.000 OA
ENDBRANCH  18  27
ENDBRANCH   1  18
TORSDOF 5
ENDMDL
MODEL 7
REMARK VINA RESULT:      -5.8      3.271      4.942
REMARK  Name = 
REMARK  9 active torsions:
REMARK  status: ('A' for Active; 'I' for Inactive)
REMARK    1  A    between atoms: C_1  and  O_2
REMARK    2  A    between atoms: O_2  and  C_3
REMARK    3  A    between atoms: C_3  and  C_4
REMARK    4  A    between atoms: C_3  and  C_11
REMARK    5  A    between atoms: N_14  and  S_15
REMARK    6  A    between atoms: S_15  and  C_18
REMARK    7  A    between atoms: C_19  and  C_20
REMARK    8  A    between atoms: N_22  and  C_23
REMARK    9  A    between atoms: C_24  and  C_25
REMARK                            x       y       z     vdW  Elec       q    Type
REMARK                         _______ _______ _______ _____ _____    ______ ____
ROOT
ATOM      1  C   UNL     1       0.598   9.653  19.032  0.00  0.00    +0.000 C 
ATOM      2  C   UNL     1       1.525  10.612  18.261  0.00  0.00    +0.000 C 
ATOM      3  C   UNL     1       1.861  11.899  19.018  0.00  0.00    +0.000 C 
ATOM      4  N   UNL     1       0.630  12.613  19.474  0.00  0.00    +0.000 NA
ATOM      5  C   UNL     1      -0.322  11.724  20.212  0.00  0.00    +0.000 C 
ATOM      6  C   UNL     1      -0.647  10.462  19.425  0.00  0.00    +0.000 C 
ENDROOT
BRANCH   4   7
ATOM      7  S   UNL     1       0.975  14.014  20.428  0.00  0.00    +0.000 S 
ATOM      8  O   UNL     1      -0.265  14.482  21.011  0.00  0.00    +0.000 OA
ATOM      9  O   UNL     1       2.117  13.705  21.264  0.00  0.00    +0.000 OA
BRANCH   7  10
ATOM     10  C   UNL     1       1.476  15.326  19.431  0.00  0.00    +0.000 A 
ATOM     11  C   UNL     1       2.785  15.543  18.942  0.00  0.00    +0.000 A 
ATOM     12  C   UNL     1       4.028  14.755  19.139  0.00  0.00    +0.000 C 
ATOM     13  N   UNL     1       2.835  16.626  18.153  0.00  0.00    +0.000 NA
ATOM     14  N   UNL     1       1.563  17.047  18.077  0.00  0.00    +0.000 N 
ATOM     15  C   UNL     1       1.245  18.148  17.194  0.00  0.00    +0.000 C 
ATOM     16  C   UNL     1       0.693  16.311  18.839  0.00  0.00    +0.000 A 
ATOM     17  C   UNL     1      -0.770  16.556  18.894  0.00  0.00    +0.000 C 
ENDBRANCH   7  10
ENDBRANCH   4   7
BRANCH   1  18
ATOM     18  C   UNL     1       1.311   8.908  20.206  0.00  0.00    +0.000 C 
BRANCH  18  19
ATOM     19  C   UNL     1       1.897   7.581  19.741  0.00  0.00    +0.000 A 
ATOM     20  C   UNL     1       2.567   7.469  18.510  0.00  0.00    +0.000 A 
ATOM     21  C   UNL     1       3.085   6.250  18.077  0.00  0.00    +0.000 A 
ATOM     22  C   UNL     1       2.952   5.125  18.885  0.00  0.00    +0.000 A 
ATOM     23 CL   UNL     1       3.586   3.616  18.355  0.00  0.00    +0.000 Cl
ATOM     24  C   UNL     1       2.309   5.212  20.119  0.00  0.00    +0.000 A 
ATOM     25  C   UNL     1       1.780   6.436  20.544  0.00  0.00    +0.000 A 
ENDBRANCH  18  19
BRANCH  18  27
ATOM     26  C   UNL     1       0.879   9.244  22.547  0.00  0.00    +0.000 C 
ATOM     27  O   UNL     1       0.415   8.728  21.304  0.00  0.00    +0.000 OA
ENDBRANCH  18  27
ENDBRANCH   1  18
TORSDOF 5
ENDMDL
MODEL 8
REMARK VINA RESULT:      -5.8      3.481      5.144
REMARK  Name = 
REMARK  9 active torsions:
REMARK  status: ('A' for Active; 'I' for Inactive)
REMARK    1  A    between atoms: C_1  and  O_2
REMARK    2  A    between atoms: O_2  and  C_3
REMARK    3  A    between atoms: C_3  and  C_4
REMARK    4  A    between atoms: C_3  and  C_11
REMARK    5  A    between atoms: N_14  and  S_15
REMARK    6  A    between atoms: S_15  and  C_18
REMARK    7  A    between atoms: C_19  and  C_20
REMARK    8  A    between atoms: N_22  and  C_23
REMARK    9  A    between atoms: C_24  and  C_25
REMARK                            x       y       z     vdW  Elec       q    Type
REMARK                         _______ _______ _______ _____ _____    ______ ____
ROOT
ATOM      1  C   UNL     1       1.006   9.459  18.629  0.00  0.00    +0.000 C 
ATOM      2  C   UNL     1       1.929  10.492  17.954  0.00  0.00    +0.000 C 
ATOM      3  C   UNL     1       2.147  11.764  18.776  0.00  0.00    +0.000 C 
ATOM      4  N   UNL     1       0.854  12.398  19.174  0.00  0.00    +0.000 NA
ATOM      5  C   UNL     1      -0.094  11.435  19.817  0.00  0.00    +0.000 C 
ATOM      6  C   UNL     1      -0.302  10.189  18.968  0.00  0.00    +0.000 C 
ENDROOT
BRANCH   4   7
ATOM      7  S   UNL     1       1.064  13.778  20.197  0.00  0.00    +0.000 S 
ATOM      8  O   UNL     1      -0.228  14.138  20.742  0.00  0.00    +0.000 OA
ATOM      9  O   UNL     1       2.188  13.509  21.070  0.00  0.00    +0.000 OA
BRANCH   7  10
ATOM     10  C   UNL     1       1.517  15.160  19.275  0.00  0.00    +0.000 A 
ATOM     11  C   UNL     1       2.804  15.420  18.748  0.00  0.00    +0.000 A 
ATOM     12  C   UNL     1       4.057  14.630  18.837  0.00  0.00    +0.000 C 
ATOM     13  N   UNL     1       2.816  16.556  18.037  0.00  0.00    +0.000 NA
ATOM     14  N   UNL     1       1.539  16.973  18.044  0.00  0.00    +0.000 N 
ATOM     15  C   UNL     1       1.181  18.131  17.256  0.00  0.00    +0.000 C 
ATOM     16  C   UNL     1       0.706  16.179  18.788  0.00  0.00    +0.000 A 
ATOM     17  C   UNL     1      -0.755  16.409  18.921  0.00  0.00    +0.000 C 
ENDBRANCH   7  10
ENDBRANCH   4   7
BRANCH   1  18
ATOM     18  C   UNL     1       1.681   8.706  19.821  0.00  0.00    +0.000 C 
BRANCH  18  19
ATOM     19  C   UNL     1       2.223   7.352  19.381  0.00  0.00    +0.000 A 
ATOM     20  C   UNL     1       2.037   6.201  20.165  0.00  0.00    +0.000 A 
ATOM     21  C   UNL     1       2.550   4.966  19.771  0.00  0.00    +0.000 A 
ATOM     22  C   UNL     1       3.247   4.868  18.570  0.00  0.00    +0.000 A 
ATOM     23 CL   UNL     1       3.887   3.348  18.079  0.00  0.00    +0.000 Cl
ATOM     24  C   UNL     1       3.429   5.991  17.764  0.00  0.00    +0.000 A 
ATOM     25  C   UNL     1       2.921   7.230  18.171  0.00  0.00    +0.000 A 
ENDBRANCH  18  19
BRANCH  18  27
ATOM     26  C   UNL     1       1.264   9.038  22.165  0.00  0.00    +0.000 C 
ATOM     27  O   UNL     1       0.769   8.575  20.913  0.00  0.00    +0.000 OA
ENDBRANCH  18  27
ENDBRANCH   1  18
TORSDOF 5
ENDMDL
MODEL 9
REMARK VINA RESULT:      -5.8      3.324      5.001
REMARK  Name = 
REMARK  9 active torsions:
REMARK  status: ('A' for Active; 'I' for Inactive)
REMARK    1  A    between atoms: C_1  and  O_2
REMARK    2  A    between atoms: O_2  and  C_3
REMARK    3  A    between atoms: C_3  and  C_4
REMARK    4  A    between atoms: C_3  and  C_11
REMARK    5  A    between atoms: N_14  and  S_15
REMARK    6  A    between atoms: S_15  and  C_18
REMARK    7  A    between atoms: C_19  and  C_20
REMARK    8  A    between atoms: N_22  and  C_23
REMARK    9  A    between atoms: C_24  and  C_25
REMARK                            x       y       z     vdW  Elec       q    Type
REMARK                         _______ _______ _______ _____ _____    ______ ____
ROOT
ATOM      1  C   UNL     1       0.703   9.380  18.994  0.00  0.00    +0.000 C 
ATOM      2  C   UNL     1       1.531  10.083  17.901  0.00  0.00    +0.000 C 
ATOM      3  C   UNL     1       2.205  11.377  18.364  0.00  0.00    +0.000 C 
ATOM      4  N   UNL     1       1.225  12.327  18.973  0.00  0.00    +0.000 NA
ATOM      5  C   UNL     1       0.376  11.693  20.030  0.00  0.00    +0.000 C 
ATOM      6  C   UNL     1      -0.292  10.418  19.532  0.00  0.00    +0.000 C 
ENDROOT
BRANCH   4   7
ATOM      7  S   UNL     1       1.971  13.754  19.607  0.00  0.00    +0.000 S 
ATOM      8  O   UNL     1       1.711  13.807  21.030  0.00  0.00    +0.000 OA
ATOM      9  O   UNL     1       3.326  13.803  19.098  0.00  0.00    +0.000 OA
BRANCH   7  10
ATOM     10  C   UNL     1       1.200  15.169  18.999  0.00  0.00    +0.000 A 
ATOM     11  C   UNL     1      -0.148  15.539  19.219  0.00  0.00    +0.000 A 
ATOM     12  C   UNL     1      -1.221  14.854  19.983  0.00  0.00    +0.000 C 
ATOM     13  N   UNL     1      -0.425  16.722  18.652  0.00  0.00    +0.000 NA
ATOM     14  N   UNL     1       0.748  17.136  18.146  0.00  0.00    +0.000 N 
ATOM     15  C   UNL     1       0.824  18.455  17.557  0.00  0.00    +0.000 C 
ATOM     16  C   UNL     1       1.767  16.236  18.311  0.00  0.00    +0.000 A 
ATOM     17  C   UNL     1       3.164  16.479  17.871  0.00  0.00    +0.000 C 
ENDBRANCH   7  10
ENDBRANCH   4   7
BRANCH   1  18
ATOM     18  C   UNL     1       1.579   8.668  20.076  0.00  0.00    +0.000 C 
BRANCH  18  19
ATOM     19  C   UNL     1       2.127   7.345  19.557  0.00  0.00    +0.000 A 
ATOM     20  C   UNL     1       2.850   7.275  18.354  0.00  0.00    +0.000 A 
ATOM     21  C   UNL     1       3.334   6.060  17.871  0.00  0.00    +0.000 A 
ATOM     22  C   UNL     1       3.110   4.896  18.601  0.00  0.00    +0.000 A 
ATOM     23 CL   UNL     1       3.701   3.393  18.008  0.00  0.00    +0.000 Cl
ATOM     24  C   UNL     1       2.412   4.941  19.807  0.00  0.00    +0.000 A 
ATOM     25  C   UNL     1       1.920   6.162  20.281  0.00  0.00    +0.000 A 
ENDBRANCH  18  19
BRANCH  18  27
ATOM     26  C   UNL     1       1.391   9.134  22.427  0.00  0.00    +0.000 C 
ATOM     27  O   UNL     1       0.837   8.490  21.284  0.00  0.00    +0.000 OA
ENDBRANCH  18  27
ENDBRANCH   1  18
TORSDOF 5
ENDMDL
