MODEL 1
REMARK VINA RESULT:      -8.5      0.000      0.000
REMARK  Name = 
REMARK  2 active torsions:
REMARK  status: ('A' for Active; 'I' for Inactive)
REMARK    1  A    between atoms: S_2  and  C_4
REMARK    2  A    between atoms: S_2  and  C_13
REMARK                            x       y       z     vdW  Elec       q    Type
REMARK                         _______ _______ _______ _____ _____    ______ ____
ROOT
ATOM      1  C   UNL     1       4.455   5.465  17.780  0.00  0.00    +0.000 A 
ATOM      2  C   UNL     1       5.624   6.133  18.181  0.00  0.00    +0.000 A 
ATOM      3  C   UNL     1       6.680   6.320  17.265  0.00  0.00    +0.000 A 
ATOM      4 CL   UNL     1       8.061   7.233  17.720  0.00  0.00    +0.000 Cl
ATOM      5  C   UNL     1       6.565   5.732  16.009  0.00  0.00    +0.000 A 
ATOM      6  O   UNL     1       7.505   5.721  15.008  0.00  0.00    +0.000 OA
ATOM      7  C   UNL     1       6.987   4.947  14.028  0.00  0.00    +0.000 A 
ATOM      8  C   UNL     1       5.726   4.498  14.334  0.00  0.00    +0.000 A 
ATOM      9  C   UNL     1       5.438   5.003  15.616  0.00  0.00    +0.000 A 
ATOM     10  C   UNL     1       4.358   4.896  16.502  0.00  0.00    +0.000 A 
ATOM     11  C   UNL     1       4.957   3.579  13.457  0.00  0.00    +0.000 C 
ATOM     12  N   UNL     1       5.537   3.593  12.098  0.00  0.00    +0.000 NA
ATOM     13  C   UNL     1       7.014   3.434  12.131  0.00  0.00    +0.000 C 
ATOM     14  C   UNL     1       7.745   4.625  12.805  0.00  0.00    +0.000 C 
ATOM     15  H   UNL     1       5.323   4.502  11.685  0.00  0.00    +0.000 HD
ENDROOT
BRANCH   1  17
ATOM     16  O   UNL     1       3.513   4.524  19.973  0.00  0.00    +0.000 OA
ATOM     17  S   UNL     1       3.019   5.220  18.814  0.00  0.00    +0.000 S 
ATOM     18  O   UNL     1       2.022   4.590  17.948  0.00  0.00    +0.000 OA
BRANCH  17  19
ATOM     19  C   UNL     1       2.263   6.721  19.397  0.00  0.00    +0.000 A 
ATOM     20  C   UNL     1       1.799   6.859  20.708  0.00  0.00    +0.000 A 
ATOM     21  C   UNL     1       1.075   7.995  21.084  0.00  0.00    +0.000 A 
ATOM     22  C   UNL     1       1.018   9.051  20.171  0.00  0.00    +0.000 A 
ATOM     23  N   UNL     1       0.440  10.291  20.286  0.00  0.00    +0.000 N 
ATOM     24  C   UNL     1       0.763  11.068  19.206  0.00  0.00    +0.000 A 
ATOM     25  C   UNL     1       1.491  10.286  18.330  0.00  0.00    +0.000 A 
ATOM     26  C   UNL     1       1.634   9.002  18.918  0.00  0.00    +0.000 A 
ATOM     27  C   UNL     1       2.242   7.806  18.510  0.00  0.00    +0.000 A 
ATOM     28  H   UNL     1      -0.096  10.602  21.086  0.00  0.00    +0.000 HD
ENDBRANCH  17  19
ENDBRANCH   1  17
TORSDOF 2
ENDMDL
MODEL 2
REMARK VINA RESULT:      -8.4      3.191      4.835
REMARK  Name = 
REMARK  2 active torsions:
REMARK  status: ('A' for Active; 'I' for Inactive)
REMARK    1  A    between atoms: S_2  and  C_4
REMARK    2  A    between atoms: S_2  and  C_13
REMARK                            x       y       z     vdW  Elec       q    Type
REMARK                         _______ _______ _______ _____ _____    ______ ____
ROOT
ATOM      1  C   UNL     1       1.464   7.125  20.590  0.00  0.00    +0.000 A 
ATOM      2  C   UNL     1       1.171   5.802  20.961  0.00  0.00    +0.000 A 
ATOM      3  C   UNL     1       1.888   4.732  20.385  0.00  0.00    +0.000 A 
ATOM      4 CL   UNL     1       1.608   3.124  20.920  0.00  0.00    +0.000 Cl
ATOM      5  C   UNL     1       2.798   5.026  19.376  0.00  0.00    +0.000 A 
ATOM      6  O   UNL     1       3.531   4.133  18.633  0.00  0.00    +0.000 OA
ATOM      7  C   UNL     1       4.189   4.876  17.714  0.00  0.00    +0.000 A 
ATOM      8  C   UNL     1       3.951   6.219  17.866  0.00  0.00    +0.000 A 
ATOM      9  C   UNL     1       3.052   6.331  18.944  0.00  0.00    +0.000 A 
ATOM     10  C   UNL     1       2.400   7.395  19.581  0.00  0.00    +0.000 A 
ATOM     11  C   UNL     1       4.501   7.249  16.948  0.00  0.00    +0.000 C 
ATOM     12  N   UNL     1       5.628   6.677  16.182  0.00  0.00    +0.000 NA
ATOM     13  C   UNL     1       5.279   5.355  15.599  0.00  0.00    +0.000 C 
ATOM     14  C   UNL     1       5.027   4.259  16.668  0.00  0.00    +0.000 C 
ATOM     15  H   UNL     1       6.403   6.544  16.834  0.00  0.00    +0.000 HD
ENDROOT
BRANCH   1  17
ATOM     16  O   UNL     1       1.715   9.210  22.064  0.00  0.00    +0.000 OA
ATOM     17  S   UNL     1       0.685   8.572  21.287  0.00  0.00    +0.000 S 
ATOM     18  O   UNL     1      -0.529   8.081  21.941  0.00  0.00    +0.000 OA
BRANCH  17  19
ATOM     19  C   UNL     1       0.130   9.763  20.088  0.00  0.00    +0.000 A 
ATOM     20  C   UNL     1       0.748  11.008  19.936  0.00  0.00    +0.000 A 
ATOM     21  C   UNL     1       0.189  11.973  19.092  0.00  0.00    +0.000 A 
ATOM     22  C   UNL     1      -0.868  11.575  18.271  0.00  0.00    +0.000 A 
ATOM     23  N   UNL     1      -1.562  12.276  17.316  0.00  0.00    +0.000 N 
ATOM     24  C   UNL     1      -2.414  11.444  16.641  0.00  0.00    +0.000 A 
ATOM     25  C   UNL     1      -2.337  10.197  17.230  0.00  0.00    +0.000 A 
ATOM     26  C   UNL     1      -1.382  10.275  18.278  0.00  0.00    +0.000 A 
ATOM     27  C   UNL     1      -0.897   9.362  19.224  0.00  0.00    +0.000 A 
ATOM     28  H   UNL     1      -1.415  13.255  17.105  0.00  0.00    +0.000 HD
ENDBRANCH  17  19
ENDBRANCH   1  17
TORSDOF 2
ENDMDL
MODEL 3
REMARK VINA RESULT:      -8.4      2.631      8.474
REMARK  Name = 
REMARK  2 active torsions:
REMARK  status: ('A' for Active; 'I' for Inactive)
REMARK    1  A    between atoms: S_2  and  C_4
REMARK    2  A    between atoms: S_2  and  C_13
REMARK                            x       y       z     vdW  Elec       q    Type
REMARK                         _______ _______ _______ _____ _____    ______ ____
ROOT
ATOM      1  C   UNL     1       2.207   7.214  19.277  0.00  0.00    +0.000 A 
ATOM      2  C   UNL     1       2.403   8.181  18.278  0.00  0.00    +0.000 A 
ATOM      3  C   UNL     1       2.025   9.521  18.508  0.00  0.00    +0.000 A 
ATOM      4 CL   UNL     1       2.368  10.724  17.331  0.00  0.00    +0.000 Cl
ATOM      5  C   UNL     1       1.363   9.817  19.694  0.00  0.00    +0.000 A 
ATOM      6  O   UNL     1       0.839  11.029  20.073  0.00  0.00    +0.000 OA
ATOM      7  C   UNL     1       0.207  10.802  21.247  0.00  0.00    +0.000 A 
ATOM      8  C   UNL     1       0.344   9.503  21.668  0.00  0.00    +0.000 A 
ATOM      9  C   UNL     1       1.095   8.852  20.671  0.00  0.00    +0.000 A 
ATOM     10  C   UNL     1       1.551   7.543  20.473  0.00  0.00    +0.000 A 
ATOM     11  C   UNL     1      -0.307   8.975  22.894  0.00  0.00    +0.000 C 
ATOM     12  N   UNL     1      -0.714  10.101  23.761  0.00  0.00    +0.000 NA
ATOM     13  C   UNL     1      -1.441  11.146  22.995  0.00  0.00    +0.000 C 
ATOM     14  C   UNL     1      -0.558  11.858  21.937  0.00  0.00    +0.000 C 
ATOM     15  H   UNL     1       0.138  10.517  24.140  0.00  0.00    +0.000 HD
ENDROOT
BRANCH   1  17
ATOM     16  O   UNL     1       1.676   4.883  18.347  0.00  0.00    +0.000 OA
ATOM     17  S   UNL     1       2.700   5.503  19.146  0.00  0.00    +0.000 S 
ATOM     18  O   UNL     1       2.927   5.059  20.522  0.00  0.00    +0.000 OA
BRANCH  17  19
ATOM     19  C   UNL     1       4.243   5.240  18.301  0.00  0.00    +0.000 A 
ATOM     20  C   UNL     1       5.448   5.067  18.989  0.00  0.00    +0.000 A 
ATOM     21  C   UNL     1       6.658   5.016  18.289  0.00  0.00    +0.000 A 
ATOM     22  C   UNL     1       6.592   4.939  16.896  0.00  0.00    +0.000 A 
ATOM     23  N   UNL     1       7.595   4.822  15.966  0.00  0.00    +0.000 N 
ATOM     24  C   UNL     1       7.067   4.621  14.720  0.00  0.00    +0.000 A 
ATOM     25  C   UNL     1       5.692   4.699  14.829  0.00  0.00    +0.000 A 
ATOM     26  C   UNL     1       5.383   4.928  16.196  0.00  0.00    +0.000 A 
ATOM     27  C   UNL     1       4.188   5.112  16.906  0.00  0.00    +0.000 A 
ATOM     28  H   UNL     1       8.583   4.823  16.187  0.00  0.00    +0.000 HD
ENDBRANCH  17  19
ENDBRANCH   1  17
TORSDOF 2
ENDMDL
MODEL 4
REMARK VINA RESULT:      -8.3      5.623     10.411
REMARK  Name = 
REMARK  2 active torsions:
REMARK  status: ('A' for Active; 'I' for Inactive)
REMARK    1  A    between atoms: S_2  and  C_4
REMARK    2  A    between atoms: S_2  and  C_13
REMARK                            x       y       z     vdW  Elec       q    Type
REMARK                         _______ _______ _______ _____ _____    ______ ____
ROOT
ATOM      1  C   UNL     1      -1.279  11.048  18.554  0.00  0.00    +0.000 A 
ATOM      2  C   UNL     1      -1.491  10.373  17.341  0.00  0.00    +0.000 A 
ATOM      3  C   UNL     1      -2.736  10.472  16.686  0.00  0.00    +0.000 A 
ATOM      4 CL   UNL     1      -2.959   9.740  15.148  0.00  0.00    +0.000 Cl
ATOM      5  C   UNL     1      -3.760  11.157  17.332  0.00  0.00    +0.000 A 
ATOM      6  O   UNL     1      -5.060  11.298  16.911  0.00  0.00    +0.000 OA
ATOM      7  C   UNL     1      -5.699  11.949  17.910  0.00  0.00    +0.000 A 
ATOM      8  C   UNL     1      -4.851  12.280  18.938  0.00  0.00    +0.000 A 
ATOM      9  C   UNL     1      -3.588  11.776  18.574  0.00  0.00    +0.000 A 
ATOM     10  C   UNL     1      -2.324  11.747  19.177  0.00  0.00    +0.000 A 
ATOM     11  C   UNL     1      -5.310  12.944  20.185  0.00  0.00    +0.000 C 
ATOM     12  N   UNL     1      -6.638  13.553  19.960  0.00  0.00    +0.000 NA
ATOM     13  C   UNL     1      -7.573  12.602  19.306  0.00  0.00    +0.000 C 
ATOM     14  C   UNL     1      -7.148  12.216  17.865  0.00  0.00    +0.000 C 
ATOM     15  H   UNL     1      -6.505  14.352  19.337  0.00  0.00    +0.000 HD
ENDROOT
BRANCH   1  17
ATOM     16  O   UNL     1      -0.075  11.554  20.762  0.00  0.00    +0.000 OA
ATOM     17  S   UNL     1       0.265  11.064  19.452  0.00  0.00    +0.000 S 
ATOM     18  O   UNL     1       1.196  11.813  18.607  0.00  0.00    +0.000 OA
BRANCH  17  19
ATOM     19  C   UNL     1       1.007   9.464  19.676  0.00  0.00    +0.000 A 
ATOM     20  C   UNL     1       0.773   8.688  20.815  0.00  0.00    +0.000 A 
ATOM     21  C   UNL     1       1.492   7.506  21.023  0.00  0.00    +0.000 A 
ATOM     22  C   UNL     1       2.283   7.042  19.970  0.00  0.00    +0.000 A 
ATOM     23  N   UNL     1       3.041   5.902  19.867  0.00  0.00    +0.000 N 
ATOM     24  C   UNL     1       3.527   5.767  18.594  0.00  0.00    +0.000 A 
ATOM     25  C   UNL     1       3.150   6.889  17.881  0.00  0.00    +0.000 A 
ATOM     26  C   UNL     1       2.387   7.713  18.749  0.00  0.00    +0.000 A 
ATOM     27  C   UNL     1       1.764   8.961  18.609  0.00  0.00    +0.000 A 
ATOM     28  H   UNL     1       3.168   5.229  20.612  0.00  0.00    +0.000 HD
ENDBRANCH  17  19
ENDBRANCH   1  17
TORSDOF 2
ENDMDL
MODEL 5
REMARK VINA RESULT:      -8.3      3.398      4.689
REMARK  Name = 
REMARK  2 active torsions:
REMARK  status: ('A' for Active; 'I' for Inactive)
REMARK    1  A    between atoms: S_2  and  C_4
REMARK    2  A    between atoms: S_2  and  C_13
REMARK                            x       y       z     vdW  Elec       q    Type
REMARK                         _______ _______ _______ _____ _____    ______ ____
ROOT
ATOM      1  C   UNL     1       2.530   7.820  17.893  0.00  0.00    +0.000 A 
ATOM      2  C   UNL     1       3.887   7.833  17.530  0.00  0.00    +0.000 A 
ATOM      3  C   UNL     1       4.578   6.618  17.337  0.00  0.00    +0.000 A 
ATOM      4 CL   UNL     1       6.204   6.633  16.784  0.00  0.00    +0.000 Cl
ATOM      5  C   UNL     1       3.907   5.434  17.622  0.00  0.00    +0.000 A 
ATOM      6  O   UNL     1       4.417   4.160  17.582  0.00  0.00    +0.000 OA
ATOM      7  C   UNL     1       3.429   3.356  18.037  0.00  0.00    +0.000 A 
ATOM      8  C   UNL     1       2.282   4.054  18.321  0.00  0.00    +0.000 A 
ATOM      9  C   UNL     1       2.576   5.405  18.053  0.00  0.00    +0.000 A 
ATOM     10  C   UNL     1       1.872   6.610  18.159  0.00  0.00    +0.000 A 
ATOM     11  C   UNL     1       1.067   3.420  18.895  0.00  0.00    +0.000 C 
ATOM     12  N   UNL     1       1.133   1.957  18.695  0.00  0.00    +0.000 NA
ATOM     13  C   UNL     1       2.452   1.408  19.103  0.00  0.00    +0.000 C 
ATOM     14  C   UNL     1       3.625   1.905  18.219  0.00  0.00    +0.000 C 
ATOM     15  H   UNL     1       1.008   1.780  17.697  0.00  0.00    +0.000 HD
ENDROOT
BRANCH   1  17
ATOM     16  O   UNL     1       0.390   9.074  17.237  0.00  0.00    +0.000 OA
ATOM     17  S   UNL     1       1.520   9.278  18.104  0.00  0.00    +0.000 S 
ATOM     18  O   UNL     1       2.422  10.409  17.881  0.00  0.00    +0.000 OA
BRANCH  17  19
ATOM     19  C   UNL     1       0.876   9.500  19.747  0.00  0.00    +0.000 A 
ATOM     20  C   UNL     1       1.277   8.697  20.818  0.00  0.00    +0.000 A 
ATOM     21  C   UNL     1       0.637   8.803  22.057  0.00  0.00    +0.000 A 
ATOM     22  C   UNL     1      -0.255   9.863  22.231  0.00  0.00    +0.000 A 
ATOM     23  N   UNL     1      -0.973  10.246  23.337  0.00  0.00    +0.000 N 
ATOM     24  C   UNL     1      -1.602  11.439  23.106  0.00  0.00    +0.000 A 
ATOM     25  C   UNL     1      -1.360  11.793  21.792  0.00  0.00    +0.000 A 
ATOM     26  C   UNL     1      -0.533  10.791  21.223  0.00  0.00    +0.000 A 
ATOM     27  C   UNL     1       0.018  10.590  19.949  0.00  0.00    +0.000 A 
ATOM     28  H   UNL     1      -0.981   9.744  24.215  0.00  0.00    +0.000 HD
ENDBRANCH  17  19
ENDBRANCH   1  17
TORSDOF 2
ENDMDL
MODEL 6
REMARK VINA RESULT:      -8.2      3.058      7.873
REMARK  Name = 
REMARK  2 active torsions:
REMARK  status: ('A' for Active; 'I' for Inactive)
REMARK    1  A    between atoms: S_2  and  C_4
REMARK    2  A    between atoms: S_2  and  C_13
REMARK                            x       y       z     vdW  Elec       q    Type
REMARK                         _______ _______ _______ _____ _____    ______ ____
ROOT
ATOM      1  C   UNL     1       5.602   5.806  17.466  0.00  0.00    +0.000 A 
ATOM      2  C   UNL     1       4.685   6.837  17.203  0.00  0.00    +0.000 A 
ATOM      3  C   UNL     1       3.493   6.929  17.952  0.00  0.00    +0.000 A 
ATOM      4 CL   UNL     1       2.425   8.252  17.709  0.00  0.00    +0.000 Cl
ATOM      5  C   UNL     1       3.215   5.915  18.863  0.00  0.00    +0.000 A 
ATOM      6  O   UNL     1       2.081   5.770  19.624  0.00  0.00    +0.000 OA
ATOM      7  C   UNL     1       2.223   4.591  20.270  0.00  0.00    +0.000 A 
ATOM      8  C   UNL     1       3.428   3.991  19.997  0.00  0.00    +0.000 A 
ATOM      9  C   UNL     1       4.084   4.842  19.087  0.00  0.00    +0.000 A 
ATOM     10  C   UNL     1       5.305   4.805  18.403  0.00  0.00    +0.000 A 
ATOM     11  C   UNL     1       3.809   2.658  20.528  0.00  0.00    +0.000 C 
ATOM     12  N   UNL     1       2.942   2.318  21.676  0.00  0.00    +0.000 NA
ATOM     13  C   UNL     1       1.508   2.547  21.365  0.00  0.00    +0.000 C 
ATOM     14  C   UNL     1       1.161   4.041  21.133  0.00  0.00    +0.000 C 
ATOM     15  H   UNL     1       3.205   2.932  22.449  0.00  0.00    +0.000 HD
ENDROOT
BRANCH   1  17
ATOM     16  O   UNL     1       7.857   4.584  17.387  0.00  0.00    +0.000 OA
ATOM     17  S   UNL     1       7.176   5.612  16.644  0.00  0.00    +0.000 S 
ATOM     18  O   UNL     1       7.741   6.960  16.567  0.00  0.00    +0.000 OA
BRANCH  17  19
ATOM     19  C   UNL     1       7.066   5.045  14.961  0.00  0.00    +0.000 A 
ATOM     20  C   UNL     1       8.040   5.354  14.007  0.00  0.00    +0.000 A 
ATOM     21  C   UNL     1       7.841   5.020  12.664  0.00  0.00    +0.000 A 
ATOM     22  C   UNL     1       6.751   4.203  12.359  0.00  0.00    +0.000 A 
ATOM     23  N   UNL     1       6.347   3.674  11.158  0.00  0.00    +0.000 N 
ATOM     24  C   UNL     1       5.313   2.798  11.347  0.00  0.00    +0.000 A 
ATOM     25  C   UNL     1       4.980   2.826  12.688  0.00  0.00    +0.000 A 
ATOM     26  C   UNL     1       5.864   3.731  13.331  0.00  0.00    +0.000 A 
ATOM     27  C   UNL     1       6.005   4.184  14.650  0.00  0.00    +0.000 A 
ATOM     28  H   UNL     1       6.795   3.863  10.270  0.00  0.00    +0.000 HD
ENDBRANCH  17  19
ENDBRANCH   1  17
TORSDOF 2
ENDMDL
MODEL 7
REMARK VINA RESULT:      -8.2      4.529      5.955
REMARK  Name = 
REMARK  2 active torsions:
REMARK  status: ('A' for Active; 'I' for Inactive)
REMARK    1  A    between atoms: S_2  and  C_4
REMARK    2  A    between atoms: S_2  and  C_13
REMARK                            x       y       z     vdW  Elec       q    Type
REMARK                         _______ _______ _______ _____ _____    ______ ____
ROOT
ATOM      1  C   UNL     1       1.409   8.227  20.061  0.00  0.00    +0.000 A 
ATOM      2  C   UNL     1       2.188   8.487  18.920  0.00  0.00    +0.000 A 
ATOM      3  C   UNL     1       2.910   7.443  18.306  0.00  0.00    +0.000 A 
ATOM      4 CL   UNL     1       3.771   7.736  16.848  0.00  0.00    +0.000 Cl
ATOM      5  C   UNL     1       2.911   6.198  18.925  0.00  0.00    +0.000 A 
ATOM      6  O   UNL     1       3.611   5.080  18.542  0.00  0.00    +0.000 OA
ATOM      7  C   UNL     1       3.378   4.156  19.502  0.00  0.00    +0.000 A 
ATOM      8  C   UNL     1       2.513   4.615  20.464  0.00  0.00    +0.000 A 
ATOM      9  C   UNL     1       2.199   5.938  20.100  0.00  0.00    +0.000 A 
ATOM     10  C   UNL     1       1.415   6.957  20.656  0.00  0.00    +0.000 A 
ATOM     11  C   UNL     1       2.139   3.822  21.663  0.00  0.00    +0.000 C 
ATOM     12  N   UNL     1       2.463   2.398  21.434  0.00  0.00    +0.000 NA
ATOM     13  C   UNL     1       3.840   2.229  20.902  0.00  0.00    +0.000 C 
ATOM     14  C   UNL     1       4.030   2.833  19.486  0.00  0.00    +0.000 C 
ATOM     15  H   UNL     1       1.805   2.044  20.738  0.00  0.00    +0.000 HD
ENDROOT
BRANCH   1  17
ATOM     16  O   UNL     1       1.324  10.411  21.403  0.00  0.00    +0.000 OA
ATOM     17  S   UNL     1       0.395   9.436  20.896  0.00  0.00    +0.000 S 
ATOM     18  O   UNL     1      -0.441   8.667  21.819  0.00  0.00    +0.000 OA
BRANCH  17  19
ATOM     19  C   UNL     1      -0.741  10.305  19.838  0.00  0.00    +0.000 A 
ATOM     20  C   UNL     1      -1.233  11.574  20.159  0.00  0.00    +0.000 A 
ATOM     21  C   UNL     1      -2.237  12.158  19.380  0.00  0.00    +0.000 A 
ATOM     22  C   UNL     1      -2.571  11.524  18.181  0.00  0.00    +0.000 A 
ATOM     23  N   UNL     1      -3.462  11.891  17.203  0.00  0.00    +0.000 N 
ATOM     24  C   UNL     1      -3.353  11.056  16.124  0.00  0.00    +0.000 A 
ATOM     25  C   UNL     1      -2.436  10.073  16.445  0.00  0.00    +0.000 A 
ATOM     26  C   UNL     1      -1.956  10.344  17.753  0.00  0.00    +0.000 A 
ATOM     27  C   UNL     1      -1.048   9.707  18.609  0.00  0.00    +0.000 A 
ATOM     28  H   UNL     1      -4.066  12.701  17.253  0.00  0.00    +0.000 HD
ENDBRANCH  17  19
ENDBRANCH   1  17
TORSDOF 2
ENDMDL
MODEL 8
REMARK VINA RESULT:      -8.2      0.584      1.390
REMARK  Name = 
REMARK  2 active torsions:
REMARK  status: ('A' for Active; 'I' for Inactive)
REMARK    1  A    between atoms: S_2  and  C_4
REMARK    2  A    between atoms: S_2  and  C_13
REMARK                            x       y       z     vdW  Elec       q    Type
REMARK                         _______ _______ _______ _____ _____    ______ ____
ROOT
ATOM      1  C   UNL     1       4.471   5.684  17.778  0.00  0.00    +0.000 A 
ATOM      2  C   UNL     1       5.665   6.315  18.162  0.00  0.00    +0.000 A 
ATOM      3  C   UNL     1       6.730   6.430  17.243  0.00  0.00    +0.000 A 
ATOM      4 CL   UNL     1       8.146   7.300  17.674  0.00  0.00    +0.000 Cl
ATOM      5  C   UNL     1       6.594   5.809  16.006  0.00  0.00    +0.000 A 
ATOM      6  O   UNL     1       7.534   5.729  15.009  0.00  0.00    +0.000 OA
ATOM      7  C   UNL     1       6.986   4.946  14.052  0.00  0.00    +0.000 A 
ATOM      8  C   UNL     1       5.708   4.559  14.368  0.00  0.00    +0.000 A 
ATOM      9  C   UNL     1       5.438   5.115  15.633  0.00  0.00    +0.000 A 
ATOM     10  C   UNL     1       4.353   5.079  16.518  0.00  0.00    +0.000 A 
ATOM     11  C   UNL     1       4.904   3.645  13.517  0.00  0.00    +0.000 C 
ATOM     12  N   UNL     1       5.486   3.594  12.160  0.00  0.00    +0.000 NA
ATOM     13  C   UNL     1       6.955   3.376  12.202  0.00  0.00    +0.000 C 
ATOM     14  C   UNL     1       7.733   4.556  12.841  0.00  0.00    +0.000 C 
ATOM     15  H   UNL     1       5.310   4.497  11.718  0.00  0.00    +0.000 HD
ENDROOT
BRANCH   1  17
ATOM     16  O   UNL     1       3.516   4.995  20.057  0.00  0.00    +0.000 OA
ATOM     17  S   UNL     1       3.024   5.529  18.814  0.00  0.00    +0.000 S 
ATOM     18  O   UNL     1       2.058   4.770  18.019  0.00  0.00    +0.000 OA
BRANCH  17  19
ATOM     19  C   UNL     1       2.221   7.069  19.196  0.00  0.00    +0.000 A 
ATOM     20  C   UNL     1       1.984   8.046  18.225  0.00  0.00    +0.000 A 
ATOM     21  C   UNL     1       1.489   9.301  18.593  0.00  0.00    +0.000 A 
ATOM     22  C   UNL     1       1.058   9.460  19.912  0.00  0.00    +0.000 A 
ATOM     23  N   UNL     1       0.482  10.542  20.532  0.00  0.00    +0.000 N 
ATOM     24  C   UNL     1       0.072  10.204  21.793  0.00  0.00    +0.000 A 
ATOM     25  C   UNL     1       0.470   8.901  22.029  0.00  0.00    +0.000 A 
ATOM     26  C   UNL     1       1.117   8.432  20.856  0.00  0.00    +0.000 A 
ATOM     27  C   UNL     1       1.737   7.225  20.503  0.00  0.00    +0.000 A 
ATOM     28  H   UNL     1       0.331  11.440  20.092  0.00  0.00    +0.000 HD
ENDBRANCH  17  19
ENDBRANCH   1  17
TORSDOF 2
ENDMDL
MODEL 9
REMARK VINA RESULT:      -8.1      5.571     10.396
REMARK  Name = 
REMARK  2 active torsions:
REMARK  status: ('A' for Active; 'I' for Inactive)
REMARK    1  A    between atoms: S_2  and  C_4
REMARK    2  A    between atoms: S_2  and  C_13
REMARK                            x       y       z     vdW  Elec       q    Type
REMARK                         _______ _______ _______ _____ _____    ______ ____
ROOT
ATOM      1  C   UNL     1      -1.288  10.760  18.596  0.00  0.00    +0.000 A 
ATOM      2  C   UNL     1      -1.464  10.177  17.330  0.00  0.00    +0.000 A 
ATOM      3  C   UNL     1      -2.654  10.403  16.608  0.00  0.00    +0.000 A 
ATOM      4 CL   UNL     1      -2.823   9.784  15.014  0.00  0.00    +0.000 Cl
ATOM      5  C   UNL     1      -3.671  11.117  17.233  0.00  0.00    +0.000 A 
ATOM      6  O   UNL     1      -4.928  11.374  16.744  0.00  0.00    +0.000 OA
ATOM      7  C   UNL     1      -5.587  12.005  17.742  0.00  0.00    +0.000 A 
ATOM      8  C   UNL     1      -4.789  12.213  18.839  0.00  0.00    +0.000 A 
ATOM      9  C   UNL     1      -3.541  11.645  18.521  0.00  0.00    +0.000 A 
ATOM     10  C   UNL     1      -2.324  11.491  19.197  0.00  0.00    +0.000 A 
ATOM     11  C   UNL     1      -5.284  12.830  20.096  0.00  0.00    +0.000 C 
ATOM     12  N   UNL     1      -6.551  13.543  19.831  0.00  0.00    +0.000 NA
ATOM     13  C   UNL     1      -7.502  12.701  19.059  0.00  0.00    +0.000 C 
ATOM     14  C   UNL     1      -7.010  12.376  17.625  0.00  0.00    +0.000 C 
ATOM     15  H   UNL     1      -6.326  14.367  19.270  0.00  0.00    +0.000 HD
ENDROOT
BRANCH   1  17
ATOM     16  O   UNL     1      -0.281  10.345  20.918  0.00  0.00    +0.000 OA
ATOM     17  S   UNL     1       0.191  10.614  19.586  0.00  0.00    +0.000 S 
ATOM     18  O   UNL     1       0.962  11.827  19.311  0.00  0.00    +0.000 OA
BRANCH  17  19
ATOM     19  C   UNL     1       1.254   9.262  19.132  0.00  0.00    +0.000 A 
ATOM     20  C   UNL     1       2.027   9.282  17.967  0.00  0.00    +0.000 A 
ATOM     21  C   UNL     1       2.730   8.141  17.569  0.00  0.00    +0.000 A 
ATOM     22  C   UNL     1       2.790   7.076  18.470  0.00  0.00    +0.000 A 
ATOM     23  N   UNL     1       3.445   5.872  18.377  0.00  0.00    +0.000 N 
ATOM     24  C   UNL     1       3.362   5.194  19.563  0.00  0.00    +0.000 A 
ATOM     25  C   UNL     1       2.560   5.931  20.413  0.00  0.00    +0.000 A 
ATOM     26  C   UNL     1       2.172   7.109  19.723  0.00  0.00    +0.000 A 
ATOM     27  C   UNL     1       1.364   8.207  20.048  0.00  0.00    +0.000 A 
ATOM     28  H   UNL     1       3.966   5.565  17.566  0.00  0.00    +0.000 HD
ENDBRANCH  17  19
ENDBRANCH   1  17
TORSDOF 2
ENDMDL
