MODEL 1
REMARK VINA RESULT:      -8.2      0.000      0.000
REMARK  Name = 
REMARK  6 active torsions:
REMARK  status: ('A' for Active; 'I' for Inactive)
REMARK    1  A    between atoms: C_2  and  C_27
REMARK    2  A    between atoms: N_3  and  C_4
REMARK    3  A    between atoms: C_4  and  C_5
REMARK    4  A    between atoms: C_5  and  C_6
REMARK    5  A    between atoms: C_6  and  C_7
REMARK    6  A    between atoms: C_7  and  N_8
REMARK                            x       y       z     vdW  Elec       q    Type
REMARK                         _______ _______ _______ _____ _____    ______ ____
ROOT
ATOM      1  N   UNL     1       2.183   6.890  18.833  0.00  0.00    +0.000 NA
ATOM      2  C   UNL     1       2.967   7.933  18.143  0.00  0.00    +0.000 C 
ATOM      3  C   UNL     1       2.047   9.038  17.573  0.00  0.00    +0.000 C 
ATOM      4  N   UNL     1       1.372   9.809  18.646  0.00  0.00    +0.000 N 
ATOM      5  C   UNL     1       1.473  11.203  18.609  0.00  0.00    +0.000 A 
ATOM      6  C   UNL     1       2.590  11.881  18.092  0.00  0.00    +0.000 A 
ATOM      7  C   UNL     1       2.619  13.277  17.978  0.00  0.00    +0.000 A 
ATOM      8  C   UNL     1       1.539  14.032  18.415  0.00  0.00    +0.000 A 
ATOM      9  C   UNL     1       0.431  13.394  18.962  0.00  0.00    +0.000 A 
ATOM     10  C   UNL     1       0.390  11.989  19.047  0.00  0.00    +0.000 A 
ATOM     11  C   UNL     1      -0.843  11.311  19.581  0.00  0.00    +0.000 C 
ATOM     12  C   UNL     1      -0.580  10.650  20.908  0.00  0.00    +0.000 A 
ATOM     13  C   UNL     1      -1.284  11.131  22.035  0.00  0.00    +0.000 A 
ATOM     14  C   UNL     1      -1.051  10.621  23.308  0.00  0.00    +0.000 A 
ATOM     15  C   UNL     1      -0.120   9.606  23.474  0.00  0.00    +0.000 A 
ATOM     16  C   UNL     1       0.580   9.118  22.368  0.00  0.00    +0.000 A 
ATOM     17  C   UNL     1       0.382   9.629  21.062  0.00  0.00    +0.000 A 
ATOM     18  C   UNL     1       1.330   9.103  19.968  0.00  0.00    +0.000 C 
ATOM     19  C   UNL     1       1.135   7.544  19.692  0.00  0.00    +0.000 C 
ENDROOT
BRANCH   1  20
ATOM     20  C   UNL     1       3.008   5.903  19.556  0.00  0.00    +0.000 C 
BRANCH  20  21
ATOM     21  C   UNL     1       2.370   4.497  19.700  0.00  0.00    +0.000 C 
BRANCH  21  22
ATOM     22  C   UNL     1       2.289   3.744  18.357  0.00  0.00    +0.000 C 
BRANCH  22  23
ATOM     23  C   UNL     1       3.521   2.860  18.094  0.00  0.00    +0.000 C 
BRANCH  23  26
ATOM     24  O   UNL     1       4.713   4.400  15.992  0.00  0.00    +0.000 OA
ATOM     25  C   UNL     1       5.236   4.387  17.102  0.00  0.00    +0.000 C 
ATOM     26  N   UNL     1       4.760   3.628  18.157  0.00  0.00    +0.000 N 
ATOM     27  H   UNL     1       5.256   3.653  19.040  0.00  0.00    +0.000 HD
BRANCH  25  28
ATOM     28  C   UNL     1       6.426   5.281  17.481  0.00  0.00    +0.000 C 
ATOM     29  C   UNL     1       6.759   5.254  18.979  0.00  0.00    +0.000 C 
ATOM     30  C   UNL     1       8.123   5.907  19.213  0.00  0.00    +0.000 C 
ATOM     31  C   UNL     1       8.209   7.323  18.638  0.00  0.00    +0.000 C 
ATOM     32  C   UNL     1       7.637   7.451  17.223  0.00  0.00    +0.000 C 
ATOM     33  C   UNL     1       6.284   6.749  17.062  0.00  0.00    +0.000 C 
ENDBRANCH  25  28
ENDBRANCH  23  26
ENDBRANCH  22  23
ENDBRANCH  21  22
ENDBRANCH  20  21
ENDBRANCH   1  20
TORSDOF 6
ENDMDL
MODEL 2
REMARK VINA RESULT:      -8.1      2.869      8.749
REMARK  Name = 
REMARK  6 active torsions:
REMARK  status: ('A' for Active; 'I' for Inactive)
REMARK    1  A    between atoms: C_2  and  C_27
REMARK    2  A    between atoms: N_3  and  C_4
REMARK    3  A    between atoms: C_4  and  C_5
REMARK    4  A    between atoms: C_5  and  C_6
REMARK    5  A    between atoms: C_6  and  C_7
REMARK    6  A    between atoms: C_7  and  N_8
REMARK                            x       y       z     vdW  Elec       q    Type
REMARK                         _______ _______ _______ _____ _____    ______ ____
ROOT
ATOM      1  N   UNL     1       2.295   8.340  18.994  0.00  0.00    +0.000 NA
ATOM      2  C   UNL     1       3.003   8.550  17.716  0.00  0.00    +0.000 C 
ATOM      3  C   UNL     1       4.341   7.775  17.685  0.00  0.00    +0.000 C 
ATOM      4  N   UNL     1       4.134   6.306  17.693  0.00  0.00    +0.000 N 
ATOM      5  C   UNL     1       4.772   5.552  16.704  0.00  0.00    +0.000 A 
ATOM      6  C   UNL     1       5.038   6.042  15.414  0.00  0.00    +0.000 A 
ATOM      7  C   UNL     1       5.766   5.297  14.477  0.00  0.00    +0.000 A 
ATOM      8  C   UNL     1       6.217   4.025  14.800  0.00  0.00    +0.000 A 
ATOM      9  C   UNL     1       5.943   3.498  16.057  0.00  0.00    +0.000 A 
ATOM     10  C   UNL     1       5.237   4.258  17.009  0.00  0.00    +0.000 A 
ATOM     11  C   UNL     1       5.006   3.699  18.386  0.00  0.00    +0.000 C 
ATOM     12  C   UNL     1       3.549   3.403  18.625  0.00  0.00    +0.000 A 
ATOM     13  C   UNL     1       3.175   2.058  18.847  0.00  0.00    +0.000 A 
ATOM     14  C   UNL     1       1.844   1.692  19.010  0.00  0.00    +0.000 A 
ATOM     15  C   UNL     1       0.860   2.669  18.972  0.00  0.00    +0.000 A 
ATOM     16  C   UNL     1       1.215   4.004  18.758  0.00  0.00    +0.000 A 
ATOM     17  C   UNL     1       2.559   4.408  18.568  0.00  0.00    +0.000 A 
ATOM     18  C   UNL     1       2.784   5.884  18.193  0.00  0.00    +0.000 C 
ATOM     19  C   UNL     1       2.354   6.882  19.360  0.00  0.00    +0.000 C 
ENDROOT
BRANCH   1  20
ATOM     20  C   UNL     1       0.930   8.901  19.020  0.00  0.00    +0.000 C 
BRANCH  20  21
ATOM     21  C   UNL     1       0.356   9.158  20.437  0.00  0.00    +0.000 C 
BRANCH  21  22
ATOM     22  C   UNL     1       0.866  10.477  21.052  0.00  0.00    +0.000 C 
BRANCH  22  23
ATOM     23  C   UNL     1      -0.207  11.581  21.069  0.00  0.00    +0.000 C 
BRANCH  23  26
ATOM     24  O   UNL     1      -0.475  13.209  18.726  0.00  0.00    +0.000 OA
ATOM     25  C   UNL     1      -1.193  12.224  18.862  0.00  0.00    +0.000 C 
ATOM     26  N   UNL     1      -1.169  11.415  19.985  0.00  0.00    +0.000 N 
ATOM     27  H   UNL     1      -1.806  10.630  20.036  0.00  0.00    +0.000 HD
BRANCH  25  28
ATOM     28  C   UNL     1      -2.139  11.715  17.764  0.00  0.00    +0.000 C 
ATOM     29  C   UNL     1      -3.613  11.689  18.189  0.00  0.00    +0.000 C 
ATOM     30  C   UNL     1      -4.498  11.477  16.958  0.00  0.00    +0.000 C 
ATOM     31  C   UNL     1      -4.114  10.229  16.160  0.00  0.00    +0.000 C 
ATOM     32  C   UNL     1      -2.607  10.076  15.937  0.00  0.00    +0.000 C 
ATOM     33  C   UNL     1      -1.789  10.329  17.209  0.00  0.00    +0.000 C 
ENDBRANCH  25  28
ENDBRANCH  23  26
ENDBRANCH  22  23
ENDBRANCH  21  22
ENDBRANCH  20  21
ENDBRANCH   1  20
TORSDOF 6
ENDMDL
MODEL 3
REMARK VINA RESULT:      -8.1      3.200      6.373
REMARK  Name = 
REMARK  6 active torsions:
REMARK  status: ('A' for Active; 'I' for Inactive)
REMARK    1  A    between atoms: C_2  and  C_27
REMARK    2  A    between atoms: N_3  and  C_4
REMARK    3  A    between atoms: C_4  and  C_5
REMARK    4  A    between atoms: C_5  and  C_6
REMARK    5  A    between atoms: C_6  and  C_7
REMARK    6  A    between atoms: C_7  and  N_8
REMARK                            x       y       z     vdW  Elec       q    Type
REMARK                         _______ _______ _______ _____ _____    ______ ____
ROOT
ATOM      1  N   UNL     1       0.323  11.690  20.369  0.00  0.00    +0.000 NA
ATOM      2  C   UNL     1      -0.014  11.557  21.799  0.00  0.00    +0.000 C 
ATOM      3  C   UNL     1      -0.917  12.721  22.271  0.00  0.00    +0.000 C 
ATOM      4  N   UNL     1      -2.254  12.686  21.628  0.00  0.00    +0.000 N 
ATOM      5  C   UNL     1      -3.378  12.739  22.456  0.00  0.00    +0.000 A 
ATOM      6  C   UNL     1      -3.402  12.208  23.757  0.00  0.00    +0.000 A 
ATOM      7  C   UNL     1      -4.511  12.365  24.598  0.00  0.00    +0.000 A 
ATOM      8  C   UNL     1      -5.641  13.030  24.142  0.00  0.00    +0.000 A 
ATOM      9  C   UNL     1      -5.661  13.541  22.848  0.00  0.00    +0.000 A 
ATOM     10  C   UNL     1      -4.535  13.409  22.014  0.00  0.00    +0.000 A 
ATOM     11  C   UNL     1      -4.549  14.025  20.640  0.00  0.00    +0.000 C 
ATOM     12  C   UNL     1      -4.555  12.972  19.564  0.00  0.00    +0.000 A 
ATOM     13  C   UNL     1      -5.681  12.904  18.712  0.00  0.00    +0.000 A 
ATOM     14  C   UNL     1      -5.794  11.920  17.736  0.00  0.00    +0.000 A 
ATOM     15  C   UNL     1      -4.773  10.994  17.581  0.00  0.00    +0.000 A 
ATOM     16  C   UNL     1      -3.651  11.052  18.413  0.00  0.00    +0.000 A 
ATOM     17  C   UNL     1      -3.513  12.028  19.430  0.00  0.00    +0.000 A 
ATOM     18  C   UNL     1      -2.299  11.877  20.365  0.00  0.00    +0.000 C 
ATOM     19  C   UNL     1      -0.913  12.071  19.601  0.00  0.00    +0.000 C 
ENDROOT
BRANCH   1  20
ATOM     20  C   UNL     1       1.029  10.521  19.810  0.00  0.00    +0.000 C 
BRANCH  20  21
ATOM     21  C   UNL     1       1.184  10.526  18.267  0.00  0.00    +0.000 C 
BRANCH  21  22
ATOM     22  C   UNL     1       1.316   9.106  17.681  0.00  0.00    +0.000 C 
BRANCH  22  23
ATOM     23  C   UNL     1       2.724   8.514  17.863  0.00  0.00    +0.000 C 
BRANCH  23  26
ATOM     24  O   UNL     1       2.152   7.254  20.372  0.00  0.00    +0.000 OA
ATOM     25  C   UNL     1       2.340   6.560  19.378  0.00  0.00    +0.000 C 
ATOM     26  N   UNL     1       2.676   7.082  18.140  0.00  0.00    +0.000 N 
ATOM     27  H   UNL     1       2.835   6.446  17.369  0.00  0.00    +0.000 HD
BRANCH  25  28
ATOM     28  C   UNL     1       2.134   5.038  19.362  0.00  0.00    +0.000 C 
ATOM     29  C   UNL     1       1.764   4.484  17.980  0.00  0.00    +0.000 C 
ATOM     30  C   UNL     1       1.888   2.959  17.988  0.00  0.00    +0.000 C 
ATOM     31  C   UNL     1       1.068   2.303  19.102  0.00  0.00    +0.000 C 
ATOM     32  C   UNL     1       1.205   2.995  20.461  0.00  0.00    +0.000 C 
ATOM     33  C   UNL     1       1.096   4.521  20.365  0.00  0.00    +0.000 C 
ENDBRANCH  25  28
ENDBRANCH  23  26
ENDBRANCH  22  23
ENDBRANCH  21  22
ENDBRANCH  20  21
ENDBRANCH   1  20
TORSDOF 6
ENDMDL
MODEL 4
REMARK VINA RESULT:      -8.0      3.730      9.782
REMARK  Name = 
REMARK  6 active torsions:
REMARK  status: ('A' for Active; 'I' for Inactive)
REMARK    1  A    between atoms: C_2  and  C_27
REMARK    2  A    between atoms: N_3  and  C_4
REMARK    3  A    between atoms: C_4  and  C_5
REMARK    4  A    between atoms: C_5  and  C_6
REMARK    5  A    between atoms: C_6  and  C_7
REMARK    6  A    between atoms: C_7  and  N_8
REMARK                            x       y       z     vdW  Elec       q    Type
REMARK                         _______ _______ _______ _____ _____    ______ ____
ROOT
ATOM      1  N   UNL     1       2.278   8.252  19.055  0.00  0.00    +0.000 NA
ATOM      2  C   UNL     1       2.968   8.491  17.773  0.00  0.00    +0.000 C 
ATOM      3  C   UNL     1       4.315   7.734  17.715  0.00  0.00    +0.000 C 
ATOM      4  N   UNL     1       4.128   6.262  17.702  0.00  0.00    +0.000 N 
ATOM      5  C   UNL     1       4.764   5.532  16.693  0.00  0.00    +0.000 A 
ATOM      6  C   UNL     1       5.009   6.046  15.409  0.00  0.00    +0.000 A 
ATOM      7  C   UNL     1       5.736   5.326  14.452  0.00  0.00    +0.000 A 
ATOM      8  C   UNL     1       6.206   4.054  14.749  0.00  0.00    +0.000 A 
ATOM      9  C   UNL     1       5.953   3.504  16.002  0.00  0.00    +0.000 A 
ATOM     10  C   UNL     1       5.249   4.240  16.973  0.00  0.00    +0.000 A 
ATOM     11  C   UNL     1       5.041   3.656  18.344  0.00  0.00    +0.000 C 
ATOM     12  C   UNL     1       3.590   3.338  18.595  0.00  0.00    +0.000 A 
ATOM     13  C   UNL     1       3.237   1.985  18.799  0.00  0.00    +0.000 A 
ATOM     14  C   UNL     1       1.913   1.599  18.971  0.00  0.00    +0.000 A 
ATOM     15  C   UNL     1       0.916   2.564  18.959  0.00  0.00    +0.000 A 
ATOM     16  C   UNL     1       1.251   3.906  18.763  0.00  0.00    +0.000 A 
ATOM     17  C   UNL     1       2.587   4.331  18.564  0.00  0.00    +0.000 A 
ATOM     18  C   UNL     1       2.789   5.815  18.210  0.00  0.00    +0.000 C 
ATOM     19  C   UNL     1       2.359   6.789  19.398  0.00  0.00    +0.000 C 
ENDROOT
BRANCH   1  20
ATOM     20  C   UNL     1       0.906   8.794  19.105  0.00  0.00    +0.000 C 
BRANCH  20  21
ATOM     21  C   UNL     1       0.529   9.732  17.929  0.00  0.00    +0.000 C 
BRANCH  21  22
ATOM     22  C   UNL     1      -0.782  10.502  18.184  0.00  0.00    +0.000 C 
BRANCH  22  23
ATOM     23  C   UNL     1      -1.990   9.880  17.461  0.00  0.00    +0.000 C 
BRANCH  23  26
ATOM     24  O   UNL     1      -3.856  11.232  15.759  0.00  0.00    +0.000 OA
ATOM     25  C   UNL     1      -4.110  11.105  16.952  0.00  0.00    +0.000 C 
ATOM     26  N   UNL     1      -3.242  10.516  17.855  0.00  0.00    +0.000 N 
ATOM     27  H   UNL     1      -3.511  10.464  18.830  0.00  0.00    +0.000 HD
BRANCH  25  28
ATOM     28  C   UNL     1      -5.459  11.500  17.572  0.00  0.00    +0.000 C 
ATOM     29  C   UNL     1      -5.988  12.853  17.077  0.00  0.00    +0.000 C 
ATOM     30  C   UNL     1      -7.452  13.014  17.492  0.00  0.00    +0.000 C 
ATOM     31  C   UNL     1      -7.664  12.838  18.997  0.00  0.00    +0.000 C 
ATOM     32  C   UNL     1      -6.928  11.632  19.588  0.00  0.00    +0.000 C 
ATOM     33  C   UNL     1      -5.478  11.525  19.104  0.00  0.00    +0.000 C 
ENDBRANCH  25  28
ENDBRANCH  23  26
ENDBRANCH  22  23
ENDBRANCH  21  22
ENDBRANCH  20  21
ENDBRANCH   1  20
TORSDOF 6
ENDMDL
MODEL 5
REMARK VINA RESULT:      -7.9      2.054      4.043
REMARK  Name = 
REMARK  6 active torsions:
REMARK  status: ('A' for Active; 'I' for Inactive)
REMARK    1  A    between atoms: C_2  and  C_27
REMARK    2  A    between atoms: N_3  and  C_4
REMARK    3  A    between atoms: C_4  and  C_5
REMARK    4  A    between atoms: C_5  and  C_6
REMARK    5  A    between atoms: C_6  and  C_7
REMARK    6  A    between atoms: C_7  and  N_8
REMARK                            x       y       z     vdW  Elec       q    Type
REMARK                         _______ _______ _______ _____ _____    ______ ____
ROOT
ATOM      1  N   UNL     1       1.710   9.022  19.267  0.00  0.00    +0.000 NA
ATOM      2  C   UNL     1       1.456   9.159  20.714  0.00  0.00    +0.000 C 
ATOM      3  C   UNL     1       1.026  10.601  21.071  0.00  0.00    +0.000 C 
ATOM      4  N   UNL     1      -0.292  10.950  20.485  0.00  0.00    +0.000 N 
ATOM      5  C   UNL     1      -1.271  11.464  21.341  0.00  0.00    +0.000 A 
ATOM      6  C   UNL     1      -1.371  11.109  22.697  0.00  0.00    +0.000 A 
ATOM      7  C   UNL     1      -2.301  11.716  23.551  0.00  0.00    +0.000 A 
ATOM      8  C   UNL     1      -3.179  12.672  23.058  0.00  0.00    +0.000 A 
ATOM      9  C   UNL     1      -3.126  13.022  21.713  0.00  0.00    +0.000 A 
ATOM     10  C   UNL     1      -2.172  12.434  20.861  0.00  0.00    +0.000 A 
ATOM     11  C   UNL     1      -2.085  12.873  19.424  0.00  0.00    +0.000 C 
ATOM     12  C   UNL     1      -2.518  11.777  18.486  0.00  0.00    +0.000 A 
ATOM     13  C   UNL     1      -3.664  12.004  17.690  0.00  0.00    +0.000 A 
ATOM     14  C   UNL     1      -4.168  11.020  16.847  0.00  0.00    +0.000 A 
ATOM     15  C   UNL     1      -3.523   9.794  16.770  0.00  0.00    +0.000 A 
ATOM     16  C   UNL     1      -2.387   9.558  17.547  0.00  0.00    +0.000 A 
ATOM     17  C   UNL     1      -1.859  10.530  18.432  0.00  0.00    +0.000 A 
ATOM     18  C   UNL     1      -0.696  10.078  19.334  0.00  0.00    +0.000 C 
ATOM     19  C   UNL     1       0.615   9.714  18.503  0.00  0.00    +0.000 C 
ENDROOT
BRANCH   1  20
ATOM     20  C   UNL     1       1.947   7.632  18.831  0.00  0.00    +0.000 C 
BRANCH  20  21
ATOM     21  C   UNL     1       2.612   6.717  19.892  0.00  0.00    +0.000 C 
BRANCH  21  22
ATOM     22  C   UNL     1       1.665   5.607  20.392  0.00  0.00    +0.000 C 
BRANCH  22  23
ATOM     23  C   UNL     1       1.760   4.320  19.555  0.00  0.00    +0.000 C 
BRANCH  23  26
ATOM     24  O   UNL     1       2.362   3.267  16.959  0.00  0.00    +0.000 OA
ATOM     25  C   UNL     1       3.272   3.691  17.664  0.00  0.00    +0.000 C 
ATOM     26  N   UNL     1       3.079   4.165  18.950  0.00  0.00    +0.000 N 
ATOM     27  H   UNL     1       3.881   4.481  19.480  0.00  0.00    +0.000 HD
BRANCH  25  28
ATOM     28  C   UNL     1       4.720   3.834  17.172  0.00  0.00    +0.000 C 
ATOM     29  C   UNL     1       5.584   4.735  18.065  0.00  0.00    +0.000 C 
ATOM     30  C   UNL     1       7.058   4.569  17.688  0.00  0.00    +0.000 C 
ATOM     31  C   UNL     1       7.322   4.822  16.202  0.00  0.00    +0.000 C 
ATOM     32  C   UNL     1       6.311   4.148  15.271  0.00  0.00    +0.000 C 
ATOM     33  C   UNL     1       4.860   4.336  15.730  0.00  0.00    +0.000 C 
ENDBRANCH  25  28
ENDBRANCH  23  26
ENDBRANCH  22  23
ENDBRANCH  21  22
ENDBRANCH  20  21
ENDBRANCH   1  20
TORSDOF 6
ENDMDL
MODEL 6
REMARK VINA RESULT:      -7.9      3.148      6.343
REMARK  Name = 
REMARK  6 active torsions:
REMARK  status: ('A' for Active; 'I' for Inactive)
REMARK    1  A    between atoms: C_2  and  C_27
REMARK    2  A    between atoms: N_3  and  C_4
REMARK    3  A    between atoms: C_4  and  C_5
REMARK    4  A    between atoms: C_5  and  C_6
REMARK    5  A    between atoms: C_6  and  C_7
REMARK    6  A    between atoms: C_7  and  N_8
REMARK                            x       y       z     vdW  Elec       q    Type
REMARK                         _______ _______ _______ _____ _____    ______ ____
ROOT
ATOM      1  N   UNL     1       0.157  13.053  19.517  0.00  0.00    +0.000 NA
ATOM      2  C   UNL     1       0.107  12.858  20.978  0.00  0.00    +0.000 C 
ATOM      3  C   UNL     1      -1.032  13.691  21.613  0.00  0.00    +0.000 C 
ATOM      4  N   UNL     1      -2.372  13.219  21.186  0.00  0.00    +0.000 N 
ATOM      5  C   UNL     1      -3.313  12.937  22.182  0.00  0.00    +0.000 A 
ATOM      6  C   UNL     1      -2.964  12.460  23.457  0.00  0.00    +0.000 A 
ATOM      7  C   UNL     1      -3.921  12.281  24.465  0.00  0.00    +0.000 A 
ATOM      8  C   UNL     1      -5.259  12.545  24.207  0.00  0.00    +0.000 A 
ATOM      9  C   UNL     1      -5.641  12.988  22.945  0.00  0.00    +0.000 A 
ATOM     10  C   UNL     1      -4.675  13.196  21.942  0.00  0.00    +0.000 A 
ATOM     11  C   UNL     1      -5.098  13.739  20.603  0.00  0.00    +0.000 C 
ATOM     12  C   UNL     1      -4.938  12.710  19.515  0.00  0.00    +0.000 A 
ATOM     13  C   UNL     1      -6.104  12.268  18.849  0.00  0.00    +0.000 A 
ATOM     14  C   UNL     1      -6.052  11.274  17.880  0.00  0.00    +0.000 A 
ATOM     15  C   UNL     1      -4.828  10.713  17.544  0.00  0.00    +0.000 A 
ATOM     16  C   UNL     1      -3.667  11.143  18.191  0.00  0.00    +0.000 A 
ATOM     17  C   UNL     1      -3.687  12.139  19.198  0.00  0.00    +0.000 A 
ATOM     18  C   UNL     1      -2.357  12.403  19.927  0.00  0.00    +0.000 C 
ATOM     19  C   UNL     1      -1.240  13.004  18.961  0.00  0.00    +0.000 C 
ENDROOT
BRANCH   1  20
ATOM     20  C   UNL     1       1.099  12.151  18.826  0.00  0.00    +0.000 C 
BRANCH  20  21
ATOM     21  C   UNL     1       1.042  10.670  19.282  0.00  0.00    +0.000 C 
BRANCH  21  22
ATOM     22  C   UNL     1       1.034   9.685  18.096  0.00  0.00    +0.000 C 
BRANCH  22  23
ATOM     23  C   UNL     1       2.264   8.760  18.080  0.00  0.00    +0.000 C 
BRANCH  23  26
ATOM     24  O   UNL     1       3.992   6.484  17.875  0.00  0.00    +0.000 OA
ATOM     25  C   UNL     1       2.798   6.317  18.101  0.00  0.00    +0.000 C 
ATOM     26  N   UNL     1       1.883   7.354  18.162  0.00  0.00    +0.000 N 
ATOM     27  H   UNL     1       0.909   7.138  18.333  0.00  0.00    +0.000 HD
BRANCH  25  28
ATOM     28  C   UNL     1       2.189   4.947  18.438  0.00  0.00    +0.000 C 
ATOM     29  C   UNL     1       1.827   4.785  19.920  0.00  0.00    +0.000 C 
ATOM     30  C   UNL     1       0.954   3.541  20.103  0.00  0.00    +0.000 C 
ATOM     31  C   UNL     1       1.599   2.276  19.533  0.00  0.00    +0.000 C 
ATOM     32  C   UNL     1       2.214   2.466  18.144  0.00  0.00    +0.000 C 
ATOM     33  C   UNL     1       3.051   3.746  18.034  0.00  0.00    +0.000 C 
ENDBRANCH  25  28
ENDBRANCH  23  26
ENDBRANCH  22  23
ENDBRANCH  21  22
ENDBRANCH  20  21
ENDBRANCH   1  20
TORSDOF 6
ENDMDL
MODEL 7
REMARK VINA RESULT:      -7.9      2.818      9.272
REMARK  Name = 
REMARK  6 active torsions:
REMARK  status: ('A' for Active; 'I' for Inactive)
REMARK    1  A    between atoms: C_2  and  C_27
REMARK    2  A    between atoms: N_3  and  C_4
REMARK    3  A    between atoms: C_4  and  C_5
REMARK    4  A    between atoms: C_5  and  C_6
REMARK    5  A    between atoms: C_6  and  C_7
REMARK    6  A    between atoms: C_7  and  N_8
REMARK                            x       y       z     vdW  Elec       q    Type
REMARK                         _______ _______ _______ _____ _____    ______ ____
ROOT
ATOM      1  N   UNL     1       2.239   8.227  19.022  0.00  0.00    +0.000 NA
ATOM      2  C   UNL     1       2.955   8.467  17.754  0.00  0.00    +0.000 C 
ATOM      3  C   UNL     1       4.301   7.705  17.721  0.00  0.00    +0.000 C 
ATOM      4  N   UNL     1       4.109   6.234  17.700  0.00  0.00    +0.000 N 
ATOM      5  C   UNL     1       4.762   5.504  16.702  0.00  0.00    +0.000 A 
ATOM      6  C   UNL     1       5.034   6.021  15.424  0.00  0.00    +0.000 A 
ATOM      7  C   UNL     1       5.777   5.301  14.480  0.00  0.00    +0.000 A 
ATOM      8  C   UNL     1       6.238   4.027  14.783  0.00  0.00    +0.000 A 
ATOM      9  C   UNL     1       5.958   3.474  16.028  0.00  0.00    +0.000 A 
ATOM     10  C   UNL     1       5.237   4.210  16.987  0.00  0.00    +0.000 A 
ATOM     11  C   UNL     1       5.000   3.623  18.353  0.00  0.00    +0.000 C 
ATOM     12  C   UNL     1       3.544   3.309  18.574  0.00  0.00    +0.000 A 
ATOM     13  C   UNL     1       3.182   1.957  18.767  0.00  0.00    +0.000 A 
ATOM     14  C   UNL     1       1.853   1.575  18.912  0.00  0.00    +0.000 A 
ATOM     15  C   UNL     1       0.860   2.543  18.883  0.00  0.00    +0.000 A 
ATOM     16  C   UNL     1       1.203   3.885  18.698  0.00  0.00    +0.000 A 
ATOM     17  C   UNL     1       2.545   4.306  18.526  0.00  0.00    +0.000 A 
ATOM     18  C   UNL     1       2.759   5.791  18.181  0.00  0.00    +0.000 C 
ATOM     19  C   UNL     1       2.309   6.762  19.362  0.00  0.00    +0.000 C 
ENDROOT
BRANCH   1  20
ATOM     20  C   UNL     1       0.868   8.774  19.047  0.00  0.00    +0.000 C 
BRANCH  20  21
ATOM     21  C   UNL     1       0.661  10.059  18.205  0.00  0.00    +0.000 C 
BRANCH  21  22
ATOM     22  C   UNL     1       0.226  11.264  19.062  0.00  0.00    +0.000 C 
BRANCH  22  23
ATOM     23  C   UNL     1       0.573  11.093  20.552  0.00  0.00    +0.000 C 
BRANCH  23  26
ATOM     24  O   UNL     1      -0.746  10.123  22.903  0.00  0.00    +0.000 OA
ATOM     25  C   UNL     1      -0.905  11.290  22.560  0.00  0.00    +0.000 C 
ATOM     26  N   UNL     1      -0.352  11.826  21.410  0.00  0.00    +0.000 N 
ATOM     27  H   UNL     1      -0.544  12.792  21.179  0.00  0.00    +0.000 HD
BRANCH  25  28
ATOM     28  C   UNL     1      -1.660  12.321  23.411  0.00  0.00    +0.000 C 
ATOM     29  C   UNL     1      -3.181  12.293  23.203  0.00  0.00    +0.000 C 
ATOM     30  C   UNL     1      -3.864  13.113  24.299  0.00  0.00    +0.000 C 
ATOM     31  C   UNL     1      -3.330  14.544  24.388  0.00  0.00    +0.000 C 
ATOM     32  C   UNL     1      -1.803  14.639  24.333  0.00  0.00    +0.000 C 
ATOM     33  C   UNL     1      -1.193  13.770  23.228  0.00  0.00    +0.000 C 
ENDBRANCH  25  28
ENDBRANCH  23  26
ENDBRANCH  22  23
ENDBRANCH  21  22
ENDBRANCH  20  21
ENDBRANCH   1  20
TORSDOF 6
ENDMDL
MODEL 8
REMARK VINA RESULT:      -7.9      2.003      2.634
REMARK  Name = 
REMARK  6 active torsions:
REMARK  status: ('A' for Active; 'I' for Inactive)
REMARK    1  A    between atoms: C_2  and  C_27
REMARK    2  A    between atoms: N_3  and  C_4
REMARK    3  A    between atoms: C_4  and  C_5
REMARK    4  A    between atoms: C_5  and  C_6
REMARK    5  A    between atoms: C_6  and  C_7
REMARK    6  A    between atoms: C_7  and  N_8
REMARK                            x       y       z     vdW  Elec       q    Type
REMARK                         _______ _______ _______ _____ _____    ______ ____
ROOT
ATOM      1  N   UNL     1       2.349   6.861  18.800  0.00  0.00    +0.000 NA
ATOM      2  C   UNL     1       3.077   7.932  18.092  0.00  0.00    +0.000 C 
ATOM      3  C   UNL     1       2.103   8.998  17.538  0.00  0.00    +0.000 C 
ATOM      4  N   UNL     1       1.419   9.746  18.623  0.00  0.00    +0.000 N 
ATOM      5  C   UNL     1       1.464  11.142  18.581  0.00  0.00    +0.000 A 
ATOM      6  C   UNL     1       2.542  11.862  18.040  0.00  0.00    +0.000 A 
ATOM      7  C   UNL     1       2.514  13.258  17.924  0.00  0.00    +0.000 A 
ATOM      8  C   UNL     1       1.413  13.971  18.380  0.00  0.00    +0.000 A 
ATOM      9  C   UNL     1       0.342  13.290  18.949  0.00  0.00    +0.000 A 
ATOM     10  C   UNL     1       0.359  11.885  19.039  0.00  0.00    +0.000 A 
ATOM     11  C   UNL     1      -0.836  11.161  19.598  0.00  0.00    +0.000 C 
ATOM     12  C   UNL     1      -0.520  10.515  20.921  0.00  0.00    +0.000 A 
ATOM     13  C   UNL     1      -1.221  10.970  22.061  0.00  0.00    +0.000 A 
ATOM     14  C   UNL     1      -0.943  10.474  23.330  0.00  0.00    +0.000 A 
ATOM     15  C   UNL     1       0.031   9.497  23.480  0.00  0.00    +0.000 A 
ATOM     16  C   UNL     1       0.728   9.034  22.361  0.00  0.00    +0.000 A 
ATOM     17  C   UNL     1       0.485   9.533  21.058  0.00  0.00    +0.000 A 
ATOM     18  C   UNL     1       1.431   9.041  19.947  0.00  0.00    +0.000 C 
ATOM     19  C   UNL     1       1.293   7.476  19.678  0.00  0.00    +0.000 C 
ENDROOT
BRANCH   1  20
ATOM     20  C   UNL     1       3.226   5.910  19.509  0.00  0.00    +0.000 C 
BRANCH  20  21
ATOM     21  C   UNL     1       2.977   4.416  19.174  0.00  0.00    +0.000 C 
BRANCH  21  22
ATOM     22  C   UNL     1       4.187   3.755  18.484  0.00  0.00    +0.000 C 
BRANCH  22  23
ATOM     23  C   UNL     1       5.312   4.756  18.165  0.00  0.00    +0.000 C 
BRANCH  23  26
ATOM     24  O   UNL     1       7.934   4.415  17.061  0.00  0.00    +0.000 OA
ATOM     25  C   UNL     1       6.969   4.505  16.308  0.00  0.00    +0.000 C 
ATOM     26  N   UNL     1       5.677   4.726  16.753  0.00  0.00    +0.000 N 
ATOM     27  H   UNL     1       4.933   4.809  16.071  0.00  0.00    +0.000 HD
BRANCH  25  28
ATOM     28  C   UNL     1       7.063   4.291  14.790  0.00  0.00    +0.000 C 
ATOM     29  C   UNL     1       7.594   5.514  14.030  0.00  0.00    +0.000 C 
ATOM     30  C   UNL     1       7.948   5.113  12.597  0.00  0.00    +0.000 C 
ATOM     31  C   UNL     1       6.782   4.449  11.861  0.00  0.00    +0.000 C 
ATOM     32  C   UNL     1       6.049   3.392  12.691  0.00  0.00    +0.000 C 
ATOM     33  C   UNL     1       5.753   3.859  14.121  0.00  0.00    +0.000 C 
ENDBRANCH  25  28
ENDBRANCH  23  26
ENDBRANCH  22  23
ENDBRANCH  21  22
ENDBRANCH  20  21
ENDBRANCH   1  20
TORSDOF 6
ENDMDL
MODEL 9
REMARK VINA RESULT:      -7.8      3.008      8.032
REMARK  Name = 
REMARK  6 active torsions:
REMARK  status: ('A' for Active; 'I' for Inactive)
REMARK    1  A    between atoms: C_2  and  C_27
REMARK    2  A    between atoms: N_3  and  C_4
REMARK    3  A    between atoms: C_4  and  C_5
REMARK    4  A    between atoms: C_5  and  C_6
REMARK    5  A    between atoms: C_6  and  C_7
REMARK    6  A    between atoms: C_7  and  N_8
REMARK                            x       y       z     vdW  Elec       q    Type
REMARK                         _______ _______ _______ _____ _____    ______ ____
ROOT
ATOM      1  N   UNL     1       1.552   8.948  19.108  0.00  0.00    +0.000 NA
ATOM      2  C   UNL     1       2.172   8.975  17.769  0.00  0.00    +0.000 C 
ATOM      3  C   UNL     1       3.627   8.455  17.818  0.00  0.00    +0.000 C 
ATOM      4  N   UNL     1       3.694   7.014  18.167  0.00  0.00    +0.000 N 
ATOM      5  C   UNL     1       4.430   6.172  17.328  0.00  0.00    +0.000 A 
ATOM      6  C   UNL     1       4.564   6.389  15.946  0.00  0.00    +0.000 A 
ATOM      7  C   UNL     1       5.388   5.584  15.150  0.00  0.00    +0.000 A 
ATOM      8  C   UNL     1       6.073   4.517  15.715  0.00  0.00    +0.000 A 
ATOM      9  C   UNL     1       5.937   4.257  17.074  0.00  0.00    +0.000 A 
ATOM     10  C   UNL     1       5.132   5.084  17.880  0.00  0.00    +0.000 A 
ATOM     11  C   UNL     1       5.048   4.828  19.360  0.00  0.00    +0.000 C 
ATOM     12  C   UNL     1       3.676   4.350  19.760  0.00  0.00    +0.000 A 
ATOM     13  C   UNL     1       3.562   3.050  20.301  0.00  0.00    +0.000 A 
ATOM     14  C   UNL     1       2.326   2.508  20.634  0.00  0.00    +0.000 A 
ATOM     15  C   UNL     1       1.179   3.267  20.449  0.00  0.00    +0.000 A 
ATOM     16  C   UNL     1       1.277   4.556  19.920  0.00  0.00    +0.000 A 
ATOM     17  C   UNL     1       2.518   5.130  19.550  0.00  0.00    +0.000 A 
ATOM     18  C   UNL     1       2.459   6.495  18.842  0.00  0.00    +0.000 C 
ATOM     19  C   UNL     1       1.887   7.647  19.785  0.00  0.00    +0.000 C 
ENDROOT
BRANCH   1  20
ATOM     20  C   UNL     1       0.109   9.258  19.105  0.00  0.00    +0.000 C 
BRANCH  20  21
ATOM     21  C   UNL     1      -0.416   9.923  17.806  0.00  0.00    +0.000 C 
BRANCH  21  22
ATOM     22  C   UNL     1      -1.942  10.137  17.825  0.00  0.00    +0.000 C 
BRANCH  22  23
ATOM     23  C   UNL     1      -2.348  11.573  17.448  0.00  0.00    +0.000 C 
BRANCH  23  26
ATOM     24  O   UNL     1      -1.333  13.023  19.701  0.00  0.00    +0.000 OA
ATOM     25  C   UNL     1      -0.754  13.102  18.622  0.00  0.00    +0.000 C 
ATOM     26  N   UNL     1      -1.206  12.480  17.471  0.00  0.00    +0.000 N 
ATOM     27  H   UNL     1      -0.686  12.606  16.611  0.00  0.00    +0.000 HD
BRANCH  25  28
ATOM     28  C   UNL     1       0.591  13.821  18.440  0.00  0.00    +0.000 C 
ATOM     29  C   UNL     1       1.804  12.952  18.797  0.00  0.00    +0.000 C 
ATOM     30  C   UNL     1       3.083  13.624  18.294  0.00  0.00    +0.000 C 
ATOM     31  C   UNL     1       3.240  15.057  18.806  0.00  0.00    +0.000 C 
ATOM     32  C   UNL     1       1.961  15.893  18.711  0.00  0.00    +0.000 C 
ATOM     33  C   UNL     1       0.721  15.141  19.208  0.00  0.00    +0.000 C 
ENDBRANCH  25  28
ENDBRANCH  23  26
ENDBRANCH  22  23
ENDBRANCH  21  22
ENDBRANCH  20  21
ENDBRANCH   1  20
TORSDOF 6
ENDMDL
