MODEL 1
REMARK VINA RESULT:      -7.9      0.000      0.000
REMARK  Name = 
REMARK  1 active torsions:
REMARK  status: ('A' for Active; 'I' for Inactive)
REMARK    1  A    between atoms: C_4  and  C_5
REMARK                            x       y       z     vdW  Elec       q    Type
REMARK                         _______ _______ _______ _____ _____    ______ ____
ROOT
ATOM      1  O   UNL     1       2.559   8.202  19.832  0.00  0.00    +0.000 OA
ATOM      2  C   UNL     1       2.284   7.058  19.480  0.00  0.00    +0.000 C 
ATOM      3  C   UNL     1       2.170   6.648  18.034  0.00  0.00    +0.000 C 
ATOM      4  C   UNL     1       2.593   5.193  17.803  0.00  0.00    +0.000 C 
ATOM      5  C   UNL     1       2.099   4.286  18.906  0.00  0.00    +0.000 C 
ATOM      6  C   UNL     1       1.817   4.746  20.132  0.00  0.00    +0.000 C 
ATOM      7  C   UNL     1       1.408   3.901  21.296  0.00  0.00    +0.000 C 
ATOM      8  C   UNL     1       1.343   2.394  21.074  0.00  0.00    +0.000 C 
ATOM      9  C   UNL     1       1.703   1.851  19.701  0.00  0.00    +0.000 C 
ATOM     10  C   UNL     1       1.973   2.840  18.597  0.00  0.00    +0.000 C 
ATOM     11  O   UNL     1       2.119   2.447  17.439  0.00  0.00    +0.000 OA
ATOM     12  N   UNL     1       1.972   6.089  20.401  0.00  0.00    +0.000 N 
ATOM     13  H   UNL     1       1.920   6.421  21.360  0.00  0.00    +0.000 HD
ENDROOT
BRANCH   4  14
ATOM     14  C   UNL     1       4.105   5.052  17.619  0.00  0.00    +0.000 A 
ATOM     15  C   UNL     1       4.990   5.043  18.710  0.00  0.00    +0.000 A 
ATOM     16  C   UNL     1       6.362   4.865  18.516  0.00  0.00    +0.000 A 
ATOM     17  C   UNL     1       6.860   4.696  17.235  0.00  0.00    +0.000 A 
ATOM     18  F   UNL     1       8.182   4.518  17.076  0.00  0.00    +0.000 F 
ATOM     19  C   UNL     1       6.005   4.703  16.135  0.00  0.00    +0.000 A 
ATOM     20 BR   UNL     1       6.682   4.459  14.387  0.00  0.00    +0.000 Br
ATOM     21  C   UNL     1       4.633   4.879  16.325  0.00  0.00    +0.000 A 
ENDBRANCH   4  14
TORSDOF 1
ENDMDL
MODEL 2
REMARK VINA RESULT:      -7.6      3.783      5.106
REMARK  Name = 
REMARK  1 active torsions:
REMARK  status: ('A' for Active; 'I' for Inactive)
REMARK    1  A    between atoms: C_4  and  C_5
REMARK                            x       y       z     vdW  Elec       q    Type
REMARK                         _______ _______ _______ _____ _____    ______ ____
ROOT
ATOM      1  O   UNL     1       5.227   5.413  15.991  0.00  0.00    +0.000 OA
ATOM      2  C   UNL     1       4.663   5.055  17.021  0.00  0.00    +0.000 C 
ATOM      3  C   UNL     1       4.999   5.616  18.381  0.00  0.00    +0.000 C 
ATOM      4  C   UNL     1       3.782   5.661  19.312  0.00  0.00    +0.000 C 
ATOM      5  C   UNL     1       2.928   4.421  19.176  0.00  0.00    +0.000 C 
ATOM      6  C   UNL     1       2.930   3.676  18.063  0.00  0.00    +0.000 C 
ATOM      7  C   UNL     1       2.052   2.489  17.820  0.00  0.00    +0.000 C 
ATOM      8  C   UNL     1       1.054   2.126  18.913  0.00  0.00    +0.000 C 
ATOM      9  C   UNL     1       1.008   2.989  20.164  0.00  0.00    +0.000 C 
ATOM     10  C   UNL     1       2.043   4.073  20.314  0.00  0.00    +0.000 C 
ATOM     11  O   UNL     1       2.137   4.694  21.374  0.00  0.00    +0.000 OA
ATOM     12  N   UNL     1       3.739   4.039  17.007  0.00  0.00    +0.000 N 
ATOM     13  H   UNL     1       3.630   3.583  16.107  0.00  0.00    +0.000 HD
ENDROOT
BRANCH   4  14
ATOM     14  C   UNL     1       2.944   6.924  19.108  0.00  0.00    +0.000 A 
ATOM     15  C   UNL     1       2.902   7.599  17.876  0.00  0.00    +0.000 A 
ATOM     16  C   UNL     1       2.091   8.723  17.704  0.00  0.00    +0.000 A 
ATOM     17  C   UNL     1       1.319   9.182  18.758  0.00  0.00    +0.000 A 
ATOM     18  F   UNL     1       0.540  10.261  18.565  0.00  0.00    +0.000 F 
ATOM     19  C   UNL     1       1.343   8.534  19.991  0.00  0.00    +0.000 A 
ATOM     20 BR   UNL     1       0.279   9.152  21.426  0.00  0.00    +0.000 Br
ATOM     21  C   UNL     1       2.151   7.409  20.166  0.00  0.00    +0.000 A 
ENDBRANCH   4  14
TORSDOF 1
ENDMDL
MODEL 3
REMARK VINA RESULT:      -7.6      1.218      1.601
REMARK  Name = 
REMARK  1 active torsions:
REMARK  status: ('A' for Active; 'I' for Inactive)
REMARK    1  A    between atoms: C_4  and  C_5
REMARK                            x       y       z     vdW  Elec       q    Type
REMARK                         _______ _______ _______ _____ _____    ______ ____
ROOT
ATOM      1  O   UNL     1       2.719   8.147  19.381  0.00  0.00    +0.000 OA
ATOM      2  C   UNL     1       2.410   6.977  19.179  0.00  0.00    +0.000 C 
ATOM      3  C   UNL     1       2.155   6.419  17.801  0.00  0.00    +0.000 C 
ATOM      4  C   UNL     1       2.551   4.944  17.684  0.00  0.00    +0.000 C 
ATOM      5  C   UNL     1       2.165   4.162  18.918  0.00  0.00    +0.000 C 
ATOM      6  C   UNL     1       2.004   4.751  20.111  0.00  0.00    +0.000 C 
ATOM      7  C   UNL     1       1.709   4.035  21.391  0.00  0.00    +0.000 C 
ATOM      8  C   UNL     1       1.620   2.515  21.335  0.00  0.00    +0.000 C 
ATOM      9  C   UNL     1       1.845   1.828  19.998  0.00  0.00    +0.000 C 
ATOM     10  C   UNL     1       2.007   2.694  18.776  0.00  0.00    +0.000 C 
ATOM     11  O   UNL     1       2.040   2.181  17.657  0.00  0.00    +0.000 OA
ATOM     12  N   UNL     1       2.187   6.113  20.222  0.00  0.00    +0.000 N 
ATOM     13  H   UNL     1       2.229   6.542  21.141  0.00  0.00    +0.000 HD
ENDROOT
BRANCH   4  14
ATOM     14  C   UNL     1       4.037   4.767  17.370  0.00  0.00    +0.000 A 
ATOM     15  C   UNL     1       4.481   4.187  16.169  0.00  0.00    +0.000 A 
ATOM     16  C   UNL     1       5.844   4.081  15.887  0.00  0.00    +0.000 A 
ATOM     17  C   UNL     1       6.774   4.550  16.800  0.00  0.00    +0.000 A 
ATOM     18  F   UNL     1       8.080   4.444  16.501  0.00  0.00    +0.000 F 
ATOM     19  C   UNL     1       6.363   5.127  17.999  0.00  0.00    +0.000 A 
ATOM     20 BR   UNL     1       7.631   5.780  19.239  0.00  0.00    +0.000 Br
ATOM     21  C   UNL     1       5.000   5.236  18.284  0.00  0.00    +0.000 A 
ENDBRANCH   4  14
TORSDOF 1
ENDMDL
MODEL 4
REMARK VINA RESULT:      -7.4      3.628      5.784
REMARK  Name = 
REMARK  1 active torsions:
REMARK  status: ('A' for Active; 'I' for Inactive)
REMARK    1  A    between atoms: C_4  and  C_5
REMARK                            x       y       z     vdW  Elec       q    Type
REMARK                         _______ _______ _______ _____ _____    ______ ____
ROOT
ATOM      1  O   UNL     1       4.016   2.331  20.014  0.00  0.00    +0.000 OA
ATOM      2  C   UNL     1       4.353   3.212  19.227  0.00  0.00    +0.000 C 
ATOM      3  C   UNL     1       3.476   3.683  18.095  0.00  0.00    +0.000 C 
ATOM      4  C   UNL     1       3.683   5.167  17.773  0.00  0.00    +0.000 C 
ATOM      5  C   UNL     1       5.143   5.554  17.834  0.00  0.00    +0.000 C 
ATOM      6  C   UNL     1       6.030   4.866  18.565  0.00  0.00    +0.000 C 
ATOM      7  C   UNL     1       7.469   5.236  18.745  0.00  0.00    +0.000 C 
ATOM      8  C   UNL     1       7.948   6.516  18.070  0.00  0.00    +0.000 C 
ATOM      9  C   UNL     1       6.943   7.332  17.274  0.00  0.00    +0.000 C 
ATOM     10  C   UNL     1       5.562   6.762  17.082  0.00  0.00    +0.000 C 
ATOM     11  O   UNL     1       4.767   7.315  16.321  0.00  0.00    +0.000 OA
ATOM     12  N   UNL     1       5.608   3.766  19.280  0.00  0.00    +0.000 N 
ATOM     13  H   UNL     1       6.229   3.338  19.961  0.00  0.00    +0.000 HD
ENDROOT
BRANCH   4  14
ATOM     14  C   UNL     1       2.841   6.077  18.670  0.00  0.00    +0.000 A 
ATOM     15  C   UNL     1       2.430   5.681  19.954  0.00  0.00    +0.000 A 
ATOM     16  C   UNL     1       1.702   6.550  20.770  0.00  0.00    +0.000 A 
ATOM     17  C   UNL     1       1.379   7.816  20.312  0.00  0.00    +0.000 A 
ATOM     18  F   UNL     1       0.685   8.636  21.120  0.00  0.00    +0.000 F 
ATOM     19  C   UNL     1       1.771   8.233  19.043  0.00  0.00    +0.000 A 
ATOM     20 BR   UNL     1       1.342   9.966  18.422  0.00  0.00    +0.000 Br
ATOM     21  C   UNL     1       2.501   7.368  18.224  0.00  0.00    +0.000 A 
ENDBRANCH   4  14
TORSDOF 1
ENDMDL
MODEL 5
REMARK VINA RESULT:      -7.4      3.836      5.870
REMARK  Name = 
REMARK  1 active torsions:
REMARK  status: ('A' for Active; 'I' for Inactive)
REMARK    1  A    between atoms: C_4  and  C_5
REMARK                            x       y       z     vdW  Elec       q    Type
REMARK                         _______ _______ _______ _____ _____    ______ ____
ROOT
ATOM      1  O   UNL     1       2.251   3.945  20.742  0.00  0.00    +0.000 OA
ATOM      2  C   UNL     1       2.908   4.428  19.824  0.00  0.00    +0.000 C 
ATOM      3  C   UNL     1       2.314   4.776  18.482  0.00  0.00    +0.000 C 
ATOM      4  C   UNL     1       3.000   5.983  17.834  0.00  0.00    +0.000 C 
ATOM      5  C   UNL     1       4.498   5.948  18.031  0.00  0.00    +0.000 C 
ATOM      6  C   UNL     1       5.065   5.283  19.046  0.00  0.00    +0.000 C 
ATOM      7  C   UNL     1       6.528   5.273  19.358  0.00  0.00    +0.000 C 
ATOM      8  C   UNL     1       7.435   6.115  18.469  0.00  0.00    +0.000 C 
ATOM      9  C   UNL     1       6.802   6.911  17.340  0.00  0.00    +0.000 C 
ATOM     10  C   UNL     1       5.331   6.718  17.076  0.00  0.00    +0.000 C 
ATOM     11  O   UNL     1       4.811   7.225  16.081  0.00  0.00    +0.000 OA
ATOM     12  N   UNL     1       4.265   4.601  19.938  0.00  0.00    +0.000 N 
ATOM     13  H   UNL     1       4.665   4.234  20.796  0.00  0.00    +0.000 HD
ENDROOT
BRANCH   4  14
ATOM     14  C   UNL     1       2.417   7.310  18.322  0.00  0.00    +0.000 A 
ATOM     15  C   UNL     1       2.141   8.371  17.441  0.00  0.00    +0.000 A 
ATOM     16  C   UNL     1       1.564   9.554  17.907  0.00  0.00    +0.000 A 
ATOM     17  C   UNL     1       1.261   9.690  19.252  0.00  0.00    +0.000 A 
ATOM     18  F   UNL     1       0.699  10.836  19.673  0.00  0.00    +0.000 F 
ATOM     19  C   UNL     1       1.526   8.656  20.146  0.00  0.00    +0.000 A 
ATOM     20 BR   UNL     1       1.100   8.835  21.980  0.00  0.00    +0.000 Br
ATOM     21  C   UNL     1       2.101   7.470  19.684  0.00  0.00    +0.000 A 
ENDBRANCH   4  14
TORSDOF 1
ENDMDL
MODEL 6
REMARK VINA RESULT:      -7.2      1.748      1.822
REMARK  Name = 
REMARK  1 active torsions:
REMARK  status: ('A' for Active; 'I' for Inactive)
REMARK    1  A    between atoms: C_4  and  C_5
REMARK                            x       y       z     vdW  Elec       q    Type
REMARK                         _______ _______ _______ _____ _____    ______ ____
ROOT
ATOM      1  O   UNL     1       1.915   8.086  20.729  0.00  0.00    +0.000 OA
ATOM      2  C   UNL     1       1.934   7.123  19.968  0.00  0.00    +0.000 C 
ATOM      3  C   UNL     1       2.360   7.223  18.525  0.00  0.00    +0.000 C 
ATOM      4  C   UNL     1       3.034   5.941  18.023  0.00  0.00    +0.000 C 
ATOM      5  C   UNL     1       2.336   4.703  18.540  0.00  0.00    +0.000 C 
ATOM      6  C   UNL     1       1.606   4.717  19.663  0.00  0.00    +0.000 C 
ATOM      7  C   UNL     1       0.959   3.519  20.284  0.00  0.00    +0.000 C 
ATOM      8  C   UNL     1       1.182   2.175  19.600  0.00  0.00    +0.000 C 
ATOM      9  C   UNL     1       2.046   2.136  18.350  0.00  0.00    +0.000 C 
ATOM     10  C   UNL     1       2.522   3.445  17.777  0.00  0.00    +0.000 C 
ATOM     11  O   UNL     1       3.095   3.470  16.688  0.00  0.00    +0.000 OA
ATOM     12  N   UNL     1       1.475   5.893  20.370  0.00  0.00    +0.000 N 
ATOM     13  H   UNL     1       1.065   5.880  21.299  0.00  0.00    +0.000 HD
ENDROOT
BRANCH   4  14
ATOM     14  C   UNL     1       4.526   5.904  18.356  0.00  0.00    +0.000 A 
ATOM     15  C   UNL     1       5.092   4.871  19.123  0.00  0.00    +0.000 A 
ATOM     16  C   UNL     1       6.466   4.836  19.372  0.00  0.00    +0.000 A 
ATOM     17  C   UNL     1       7.284   5.830  18.860  0.00  0.00    +0.000 A 
ATOM     18  F   UNL     1       8.603   5.769  19.106  0.00  0.00    +0.000 F 
ATOM     19  C   UNL     1       6.749   6.866  18.099  0.00  0.00    +0.000 A 
ATOM     20 BR   UNL     1       7.866   8.216  17.388  0.00  0.00    +0.000 Br
ATOM     21  C   UNL     1       5.376   6.904  17.846  0.00  0.00    +0.000 A 
ENDBRANCH   4  14
TORSDOF 1
ENDMDL
MODEL 7
REMARK VINA RESULT:      -7.2      1.642      1.934
REMARK  Name = 
REMARK  1 active torsions:
REMARK  status: ('A' for Active; 'I' for Inactive)
REMARK    1  A    between atoms: C_4  and  C_5
REMARK                            x       y       z     vdW  Elec       q    Type
REMARK                         _______ _______ _______ _____ _____    ______ ____
ROOT
ATOM      1  O   UNL     1       2.099   8.398  20.651  0.00  0.00    +0.000 OA
ATOM      2  C   UNL     1       1.962   7.326  20.070  0.00  0.00    +0.000 C 
ATOM      3  C   UNL     1       1.759   7.219  18.579  0.00  0.00    +0.000 C 
ATOM      4  C   UNL     1       2.366   5.938  17.996  0.00  0.00    +0.000 C 
ATOM      5  C   UNL     1       2.130   4.747  18.897  0.00  0.00    +0.000 C 
ATOM      6  C   UNL     1       1.913   4.883  20.212  0.00  0.00    +0.000 C 
ATOM      7  C   UNL     1       1.758   3.754  21.180  0.00  0.00    +0.000 C 
ATOM      8  C   UNL     1       1.894   2.340  20.628  0.00  0.00    +0.000 C 
ATOM      9  C   UNL     1       2.185   2.169  19.146  0.00  0.00    +0.000 C 
ATOM     10  C   UNL     1       2.188   3.400  18.279  0.00  0.00    +0.000 C 
ATOM     11  O   UNL     1       2.269   3.292  17.055  0.00  0.00    +0.000 OA
ATOM     12  N   UNL     1       1.895   6.145  20.767  0.00  0.00    +0.000 N 
ATOM     13  H   UNL     1       1.895   6.252  21.777  0.00  0.00    +0.000 HD
ENDROOT
BRANCH   4  14
ATOM     14  C   UNL     1       3.854   6.095  17.680  0.00  0.00    +0.000 A 
ATOM     15  C   UNL     1       4.304   6.654  16.471  0.00  0.00    +0.000 A 
ATOM     16  C   UNL     1       5.668   6.830  16.229  0.00  0.00    +0.000 A 
ATOM     17  C   UNL     1       6.592   6.449  17.188  0.00  0.00    +0.000 A 
ATOM     18  F   UNL     1       7.898   6.636  16.933  0.00  0.00    +0.000 F 
ATOM     19  C   UNL     1       6.174   5.890  18.393  0.00  0.00    +0.000 A 
ATOM     20 BR   UNL     1       7.435   5.382  19.707  0.00  0.00    +0.000 Br
ATOM     21  C   UNL     1       4.811   5.714  18.640  0.00  0.00    +0.000 A 
ENDBRANCH   4  14
TORSDOF 1
ENDMDL
MODEL 8
REMARK VINA RESULT:      -7.1      4.033      5.819
REMARK  Name = 
REMARK  1 active torsions:
REMARK  status: ('A' for Active; 'I' for Inactive)
REMARK    1  A    between atoms: C_4  and  C_5
REMARK                            x       y       z     vdW  Elec       q    Type
REMARK                         _______ _______ _______ _____ _____    ______ ____
ROOT
ATOM      1  O   UNL     1       8.336   7.641  18.493  0.00  0.00    +0.000 OA
ATOM      2  C   UNL     1       7.694   6.682  18.074  0.00  0.00    +0.000 C 
ATOM      3  C   UNL     1       6.899   5.769  18.974  0.00  0.00    +0.000 C 
ATOM      4  C   UNL     1       5.653   5.207  18.282  0.00  0.00    +0.000 C 
ATOM      5  C   UNL     1       5.933   4.827  16.847  0.00  0.00    +0.000 C 
ATOM      6  C   UNL     1       6.931   5.383  16.146  0.00  0.00    +0.000 C 
ATOM      7  C   UNL     1       7.216   5.124  14.701  0.00  0.00    +0.000 C 
ATOM      8  C   UNL     1       6.274   4.180  13.963  0.00  0.00    +0.000 C 
ATOM      9  C   UNL     1       5.110   3.576  14.732  0.00  0.00    +0.000 C 
ATOM     10  C   UNL     1       5.031   3.834  16.214  0.00  0.00    +0.000 C 
ATOM     11  O   UNL     1       4.194   3.244  16.899  0.00  0.00    +0.000 OA
ATOM     12  N   UNL     1       7.736   6.326  16.749  0.00  0.00    +0.000 N 
ATOM     13  H   UNL     1       8.384   6.869  16.187  0.00  0.00    +0.000 HD
ENDROOT
BRANCH   4  14
ATOM     14  C   UNL     1       4.462   6.164  18.369  0.00  0.00    +0.000 A 
ATOM     15  C   UNL     1       4.210   7.131  17.381  0.00  0.00    +0.000 A 
ATOM     16  C   UNL     1       3.089   7.959  17.462  0.00  0.00    +0.000 A 
ATOM     17  C   UNL     1       2.213   7.831  18.526  0.00  0.00    +0.000 A 
ATOM     18  F   UNL     1       1.137   8.634  18.576  0.00  0.00    +0.000 F 
ATOM     19  C   UNL     1       2.439   6.882  19.521  0.00  0.00    +0.000 A 
ATOM     20 BR   UNL     1       1.236   6.696  20.967  0.00  0.00    +0.000 Br
ATOM     21  C   UNL     1       3.558   6.050  19.443  0.00  0.00    +0.000 A 
ENDBRANCH   4  14
TORSDOF 1
ENDMDL
MODEL 9
REMARK VINA RESULT:      -6.8      3.433      5.410
REMARK  Name = 
REMARK  1 active torsions:
REMARK  status: ('A' for Active; 'I' for Inactive)
REMARK    1  A    between atoms: C_4  and  C_5
REMARK                            x       y       z     vdW  Elec       q    Type
REMARK                         _______ _______ _______ _____ _____    ______ ____
ROOT
ATOM      1  O   UNL     1       2.000   8.621  17.391  0.00  0.00    +0.000 OA
ATOM      2  C   UNL     1       2.957   7.882  17.608  0.00  0.00    +0.000 C 
ATOM      3  C   UNL     1       3.342   7.420  18.991  0.00  0.00    +0.000 C 
ATOM      4  C   UNL     1       3.965   6.020  18.988  0.00  0.00    +0.000 C 
ATOM      5  C   UNL     1       4.903   5.828  17.819  0.00  0.00    +0.000 C 
ATOM      6  C   UNL     1       4.793   6.548  16.694  0.00  0.00    +0.000 C 
ATOM      7  C   UNL     1       5.625   6.357  15.466  0.00  0.00    +0.000 C 
ATOM      8  C   UNL     1       6.653   5.232  15.488  0.00  0.00    +0.000 C 
ATOM      9  C   UNL     1       6.760   4.378  16.741  0.00  0.00    +0.000 C 
ATOM     10  C   UNL     1       5.940   4.775  17.941  0.00  0.00    +0.000 C 
ATOM     11  O   UNL     1       6.108   4.204  19.019  0.00  0.00    +0.000 OA
ATOM     12  N   UNL     1       3.800   7.499  16.595  0.00  0.00    +0.000 N 
ATOM     13  H   UNL     1       3.604   7.932  15.698  0.00  0.00    +0.000 HD
ENDROOT
BRANCH   4  14
ATOM     14  C   UNL     1       2.907   4.916  19.024  0.00  0.00    +0.000 A 
ATOM     15  C   UNL     1       2.241   4.485  17.863  0.00  0.00    +0.000 A 
ATOM     16  C   UNL     1       1.314   3.442  17.916  0.00  0.00    +0.000 A 
ATOM     17  C   UNL     1       1.043   2.823  19.125  0.00  0.00    +0.000 A 
ATOM     18  F   UNL     1       0.153   1.817  19.148  0.00  0.00    +0.000 F 
ATOM     19  C   UNL     1       1.686   3.232  20.291  0.00  0.00    +0.000 A 
ATOM     20 BR   UNL     1       1.327   2.378  21.939  0.00  0.00    +0.000 Br
ATOM     21  C   UNL     1       2.615   4.273  20.242  0.00  0.00    +0.000 A 
ENDBRANCH   4  14
TORSDOF 1
ENDMDL
