MODEL 1
REMARK VINA RESULT:      -6.4      0.000      0.000
REMARK  Name = 
REMARK  6 active torsions:
REMARK  status: ('A' for Active; 'I' for Inactive)
REMARK    1  A    between atoms: C_1  and  C_2
REMARK    2  A    between atoms: C_2  and  O_3
REMARK    3  A    between atoms: O_3  and  C_4
REMARK    4  A    between atoms: C_4  and  C_6
REMARK    5  A    between atoms: C_11  and  C_12
REMARK    6  A    between atoms: C_15  and  C_16
REMARK                            x       y       z     vdW  Elec       q    Type
REMARK                         _______ _______ _______ _____ _____    ______ ____
ROOT
ATOM      1  C   UNL     1       4.830   3.828  18.899  0.00  0.00    +0.000 A 
ATOM      2  N   UNL     1       6.096   4.294  19.224  0.00  0.00    +0.000 NA
ATOM      3  N   UNL     1       6.938   4.607  18.338  0.00  0.00    +0.000 NA
ATOM      4  C   UNL     1       6.616   4.484  17.022  0.00  0.00    +0.000 A 
ATOM      5  C   UNL     1       7.312   4.724  15.860  0.00  0.00    +0.000 A 
ATOM      6  C   UNL     1       6.417   4.401  14.822  0.00  0.00    +0.000 A 
ATOM      7  C   UNL     1       6.646   4.466  13.359  0.00  0.00    +0.000 C 
ATOM      8  N   UNL     1       5.236   3.993  15.292  0.00  0.00    +0.000 NA
ATOM      9  N   UNL     1       5.360   4.029  16.645  0.00  0.00    +0.000 N 
ATOM     10  C   UNL     1       4.422   3.690  17.617  0.00  0.00    +0.000 A 
ATOM     11  C   UNL     1       3.057   3.252  17.170  0.00  0.00    +0.000 C 
ENDROOT
BRANCH   1  12
ATOM     12  C   UNL     1       3.882   3.530  20.015  0.00  0.00    +0.000 C 
ATOM     13  O   UNL     1       3.748   2.432  20.540  0.00  0.00    +0.000 OA
BRANCH  12  14
ATOM     14  O   UNL     1       3.116   4.620  20.271  0.00  0.00    +0.000 OA
BRANCH  14  16
ATOM     15  C   UNL     1       0.840   3.918  20.173  0.00  0.00    +0.000 C 
ATOM     16  C   UNL     1       1.967   4.364  21.088  0.00  0.00    +0.000 C 
ENDBRANCH  14  16
ENDBRANCH  12  14
ENDBRANCH   1  12
TORSDOF 3
ENDMDL
MODEL 2
REMARK VINA RESULT:      -6.4      2.707      5.367
REMARK  Name = 
REMARK  6 active torsions:
REMARK  status: ('A' for Active; 'I' for Inactive)
REMARK    1  A    between atoms: C_1  and  C_2
REMARK    2  A    between atoms: C_2  and  O_3
REMARK    3  A    between atoms: O_3  and  C_4
REMARK    4  A    between atoms: C_4  and  C_6
REMARK    5  A    between atoms: C_11  and  C_12
REMARK    6  A    between atoms: C_15  and  C_16
REMARK                            x       y       z     vdW  Elec       q    Type
REMARK                         _______ _______ _______ _____ _____    ______ ____
ROOT
ATOM      1  C   UNL     1       5.903   5.590  17.949  0.00  0.00    +0.000 A 
ATOM      2  N   UNL     1       6.396   4.448  18.564  0.00  0.00    +0.000 NA
ATOM      3  N   UNL     1       5.656   3.687  19.246  0.00  0.00    +0.000 NA
ATOM      4  C   UNL     1       4.336   3.981  19.398  0.00  0.00    +0.000 A 
ATOM      5  C   UNL     1       3.312   3.366  20.080  0.00  0.00    +0.000 A 
ATOM      6  C   UNL     1       2.179   4.169  19.842  0.00  0.00    +0.000 A 
ATOM      7  C   UNL     1       0.797   3.978  20.343  0.00  0.00    +0.000 C 
ATOM      8  N   UNL     1       2.464   5.213  19.060  0.00  0.00    +0.000 NA
ATOM      9  N   UNL     1       3.793   5.108  18.797  0.00  0.00    +0.000 N 
ATOM     10  C   UNL     1       4.601   5.948  18.036  0.00  0.00    +0.000 A 
ATOM     11  C   UNL     1       3.967   7.128  17.358  0.00  0.00    +0.000 C 
ENDROOT
BRANCH   1  12
ATOM     12  C   UNL     1       6.842   6.404  17.119  0.00  0.00    +0.000 C 
ATOM     13  O   UNL     1       7.627   7.230  17.566  0.00  0.00    +0.000 OA
BRANCH  12  14
ATOM     14  O   UNL     1       6.609   6.176  15.802  0.00  0.00    +0.000 OA
BRANCH  14  16
ATOM     15  C   UNL     1       5.967   4.341  14.423  0.00  0.00    +0.000 C 
ATOM     16  C   UNL     1       7.051   4.898  15.329  0.00  0.00    +0.000 C 
ENDBRANCH  14  16
ENDBRANCH  12  14
ENDBRANCH   1  12
TORSDOF 3
ENDMDL
MODEL 3
REMARK VINA RESULT:      -6.3      2.809      5.041
REMARK  Name = 
REMARK  6 active torsions:
REMARK  status: ('A' for Active; 'I' for Inactive)
REMARK    1  A    between atoms: C_1  and  C_2
REMARK    2  A    between atoms: C_2  and  O_3
REMARK    3  A    between atoms: O_3  and  C_4
REMARK    4  A    between atoms: C_4  and  C_6
REMARK    5  A    between atoms: C_11  and  C_12
REMARK    6  A    between atoms: C_15  and  C_16
REMARK                            x       y       z     vdW  Elec       q    Type
REMARK                         _______ _______ _______ _____ _____    ______ ____
ROOT
ATOM      1  C   UNL     1       6.078   4.519  17.942  0.00  0.00    +0.000 A 
ATOM      2  N   UNL     1       6.180   4.309  19.310  0.00  0.00    +0.000 NA
ATOM      3  N   UNL     1       5.234   3.808  19.978  0.00  0.00    +0.000 NA
ATOM      4  C   UNL     1       4.071   3.466  19.359  0.00  0.00    +0.000 A 
ATOM      5  C   UNL     1       2.889   2.931  19.815  0.00  0.00    +0.000 A 
ATOM      6  C   UNL     1       2.075   2.811  18.672  0.00  0.00    +0.000 A 
ATOM      7  C   UNL     1       0.688   2.298  18.582  0.00  0.00    +0.000 C 
ATOM      8  N   UNL     1       2.700   3.234  17.569  0.00  0.00    +0.000 NA
ATOM      9  N   UNL     1       3.922   3.651  17.991  0.00  0.00    +0.000 N 
ATOM     10  C   UNL     1       4.965   4.194  17.245  0.00  0.00    +0.000 A 
ATOM     11  C   UNL     1       4.786   4.329  15.760  0.00  0.00    +0.000 C 
ENDROOT
BRANCH   1  12
ATOM     12  C   UNL     1       7.267   5.070  17.224  0.00  0.00    +0.000 C 
ATOM     13  O   UNL     1       7.837   4.514  16.293  0.00  0.00    +0.000 OA
BRANCH  12  14
ATOM     14  O   UNL     1       7.687   6.207  17.833  0.00  0.00    +0.000 OA
BRANCH  14  16
ATOM     15  C   UNL     1       7.990   8.571  17.800  0.00  0.00    +0.000 C 
ATOM     16  C   UNL     1       7.159   7.415  17.271  0.00  0.00    +0.000 C 
ENDBRANCH  14  16
ENDBRANCH  12  14
ENDBRANCH   1  12
TORSDOF 3
ENDMDL
MODEL 4
REMARK VINA RESULT:      -6.3      3.198      5.520
REMARK  Name = 
REMARK  6 active torsions:
REMARK  status: ('A' for Active; 'I' for Inactive)
REMARK    1  A    between atoms: C_1  and  C_2
REMARK    2  A    between atoms: C_2  and  O_3
REMARK    3  A    between atoms: O_3  and  C_4
REMARK    4  A    between atoms: C_4  and  C_6
REMARK    5  A    between atoms: C_11  and  C_12
REMARK    6  A    between atoms: C_15  and  C_16
REMARK                            x       y       z     vdW  Elec       q    Type
REMARK                         _______ _______ _______ _____ _____    ______ ____
ROOT
ATOM      1  C   UNL     1       5.927   5.672  17.858  0.00  0.00    +0.000 A 
ATOM      2  N   UNL     1       6.459   4.571  18.513  0.00  0.00    +0.000 NA
ATOM      3  N   UNL     1       5.743   3.801  19.211  0.00  0.00    +0.000 NA
ATOM      4  C   UNL     1       4.411   4.047  19.342  0.00  0.00    +0.000 A 
ATOM      5  C   UNL     1       3.404   3.412  20.033  0.00  0.00    +0.000 A 
ATOM      6  C   UNL     1       2.243   4.160  19.759  0.00  0.00    +0.000 A 
ATOM      7  C   UNL     1       0.864   3.929  20.253  0.00  0.00    +0.000 C 
ATOM      8  N   UNL     1       2.494   5.190  18.947  0.00  0.00    +0.000 NA
ATOM      9  N   UNL     1       3.829   5.132  18.701  0.00  0.00    +0.000 N 
ATOM     10  C   UNL     1       4.611   5.980  17.921  0.00  0.00    +0.000 A 
ATOM     11  C   UNL     1       3.937   7.112  17.201  0.00  0.00    +0.000 C 
ENDROOT
BRANCH   1  12
ATOM     12  C   UNL     1       6.841   6.498  17.012  0.00  0.00    +0.000 C 
ATOM     13  O   UNL     1       7.456   6.080  16.039  0.00  0.00    +0.000 OA
BRANCH  12  14
ATOM     14  O   UNL     1       6.978   7.734  17.553  0.00  0.00    +0.000 OA
BRANCH  14  16
ATOM     15  C   UNL     1       8.490   9.454  18.215  0.00  0.00    +0.000 C 
ATOM     16  C   UNL     1       8.223   7.958  18.224  0.00  0.00    +0.000 C 
ENDBRANCH  14  16
ENDBRANCH  12  14
ENDBRANCH   1  12
TORSDOF 3
ENDMDL
MODEL 5
REMARK VINA RESULT:      -6.3      0.734      1.091
REMARK  Name = 
REMARK  6 active torsions:
REMARK  status: ('A' for Active; 'I' for Inactive)
REMARK    1  A    between atoms: C_1  and  C_2
REMARK    2  A    between atoms: C_2  and  O_3
REMARK    3  A    between atoms: O_3  and  C_4
REMARK    4  A    between atoms: C_4  and  C_6
REMARK    5  A    between atoms: C_11  and  C_12
REMARK    6  A    between atoms: C_15  and  C_16
REMARK                            x       y       z     vdW  Elec       q    Type
REMARK                         _______ _______ _______ _____ _____    ______ ____
ROOT
ATOM      1  C   UNL     1       4.421   4.344  19.013  0.00  0.00    +0.000 A 
ATOM      2  N   UNL     1       5.741   4.582  19.371  0.00  0.00    +0.000 NA
ATOM      3  N   UNL     1       6.663   4.640  18.512  0.00  0.00    +0.000 NA
ATOM      4  C   UNL     1       6.376   4.458  17.194  0.00  0.00    +0.000 A 
ATOM      5  C   UNL     1       7.152   4.446  16.058  0.00  0.00    +0.000 A 
ATOM      6  C   UNL     1       6.253   4.207  15.001  0.00  0.00    +0.000 A 
ATOM      7  C   UNL     1       6.549   4.087  13.554  0.00  0.00    +0.000 C 
ATOM      8  N   UNL     1       4.996   4.083  15.435  0.00  0.00    +0.000 NA
ATOM      9  N   UNL     1       5.070   4.223  16.785  0.00  0.00    +0.000 N 
ATOM     10  C   UNL     1       4.046   4.167  17.726  0.00  0.00    +0.000 A 
ATOM     11  C   UNL     1       2.639   3.964  17.240  0.00  0.00    +0.000 C 
ENDROOT
BRANCH   1  12
ATOM     12  C   UNL     1       3.389   4.344  20.094  0.00  0.00    +0.000 C 
ATOM     13  O   UNL     1       2.833   5.346  20.525  0.00  0.00    +0.000 OA
BRANCH  12  14
ATOM     14  O   UNL     1       3.252   3.093  20.600  0.00  0.00    +0.000 OA
BRANCH  14  16
ATOM     15  C   UNL     1       0.923   2.717  20.258  0.00  0.00    +0.000 C 
ATOM     16  C   UNL     1       2.021   2.862  21.297  0.00  0.00    +0.000 C 
ENDBRANCH  14  16
ENDBRANCH  12  14
ENDBRANCH   1  12
TORSDOF 3
ENDMDL
MODEL 6
REMARK VINA RESULT:      -6.2      3.018      5.530
REMARK  Name = 
REMARK  6 active torsions:
REMARK  status: ('A' for Active; 'I' for Inactive)
REMARK    1  A    between atoms: C_1  and  C_2
REMARK    2  A    between atoms: C_2  and  O_3
REMARK    3  A    between atoms: O_3  and  C_4
REMARK    4  A    between atoms: C_4  and  C_6
REMARK    5  A    between atoms: C_11  and  C_12
REMARK    6  A    between atoms: C_15  and  C_16
REMARK                            x       y       z     vdW  Elec       q    Type
REMARK                         _______ _______ _______ _____ _____    ______ ____
ROOT
ATOM      1  C   UNL     1       5.046   5.572  17.745  0.00  0.00    +0.000 A 
ATOM      2  N   UNL     1       5.884   4.495  17.997  0.00  0.00    +0.000 NA
ATOM      3  N   UNL     1       5.544   3.552  18.764  0.00  0.00    +0.000 NA
ATOM      4  C   UNL     1       4.330   3.580  19.376  0.00  0.00    +0.000 A 
ATOM      5  C   UNL     1       3.704   2.727  20.257  0.00  0.00    +0.000 A 
ATOM      6  C   UNL     1       2.453   3.319  20.516  0.00  0.00    +0.000 A 
ATOM      7  C   UNL     1       1.372   2.830  21.404  0.00  0.00    +0.000 C 
ATOM      8  N   UNL     1       2.294   4.462  19.842  0.00  0.00    +0.000 NA
ATOM      9  N   UNL     1       3.452   4.631  19.152  0.00  0.00    +0.000 N 
ATOM     10  C   UNL     1       3.816   5.671  18.299  0.00  0.00    +0.000 A 
ATOM     11  C   UNL     1       2.820   6.764  18.041  0.00  0.00    +0.000 C 
ENDROOT
BRANCH   1  12
ATOM     12  C   UNL     1       5.511   6.616  16.783  0.00  0.00    +0.000 C 
ATOM     13  O   UNL     1       5.419   6.531  15.565  0.00  0.00    +0.000 OA
BRANCH  12  14
ATOM     14  O   UNL     1       6.153   7.606  17.453  0.00  0.00    +0.000 OA
BRANCH  14  16
ATOM     15  C   UNL     1       8.152   8.818  17.920  0.00  0.00    +0.000 C 
ATOM     16  C   UNL     1       7.580   7.481  17.481  0.00  0.00    +0.000 C 
ENDBRANCH  14  16
ENDBRANCH  12  14
ENDBRANCH   1  12
TORSDOF 3
ENDMDL
MODEL 7
REMARK VINA RESULT:      -6.2      3.247      5.705
REMARK  Name = 
REMARK  6 active torsions:
REMARK  status: ('A' for Active; 'I' for Inactive)
REMARK    1  A    between atoms: C_1  and  C_2
REMARK    2  A    between atoms: C_2  and  O_3
REMARK    3  A    between atoms: O_3  and  C_4
REMARK    4  A    between atoms: C_4  and  C_6
REMARK    5  A    between atoms: C_11  and  C_12
REMARK    6  A    between atoms: C_15  and  C_16
REMARK                            x       y       z     vdW  Elec       q    Type
REMARK                         _______ _______ _______ _____ _____    ______ ____
ROOT
ATOM      1  C   UNL     1       4.232   6.374  17.470  0.00  0.00    +0.000 A 
ATOM      2  N   UNL     1       3.474   7.386  18.042  0.00  0.00    +0.000 NA
ATOM      3  N   UNL     1       2.648   7.157  18.968  0.00  0.00    +0.000 NA
ATOM      4  C   UNL     1       2.475   5.887  19.425  0.00  0.00    +0.000 A 
ATOM      5  C   UNL     1       1.656   5.340  20.386  0.00  0.00    +0.000 A 
ATOM      6  C   UNL     1       1.957   3.964  20.384  0.00  0.00    +0.000 A 
ATOM      7  C   UNL     1       1.363   2.894  21.220  0.00  0.00    +0.000 C 
ATOM      8  N   UNL     1       2.903   3.662  19.492  0.00  0.00    +0.000 NA
ATOM      9  N   UNL     1       3.213   4.841  18.890  0.00  0.00    +0.000 N 
ATOM     10  C   UNL     1       4.135   5.087  17.875  0.00  0.00    +0.000 A 
ATOM     11  C   UNL     1       4.952   3.938  17.358  0.00  0.00    +0.000 C 
ENDROOT
BRANCH   1  12
ATOM     12  C   UNL     1       5.222   6.746  16.415  0.00  0.00    +0.000 C 
ATOM     13  O   UNL     1       5.115   6.463  15.229  0.00  0.00    +0.000 OA
BRANCH  12  14
ATOM     14  O   UNL     1       6.304   7.333  16.986  0.00  0.00    +0.000 OA
BRANCH  14  16
ATOM     15  C   UNL     1       7.856   6.520  18.602  0.00  0.00    +0.000 C 
ATOM     16  C   UNL     1       7.438   6.471  17.143  0.00  0.00    +0.000 C 
ENDBRANCH  14  16
ENDBRANCH  12  14
ENDBRANCH   1  12
TORSDOF 3
ENDMDL
MODEL 8
REMARK VINA RESULT:      -6.2      2.447      2.928
REMARK  Name = 
REMARK  6 active torsions:
REMARK  status: ('A' for Active; 'I' for Inactive)
REMARK    1  A    between atoms: C_1  and  C_2
REMARK    2  A    between atoms: C_2  and  O_3
REMARK    3  A    between atoms: O_3  and  C_4
REMARK    4  A    between atoms: C_4  and  C_6
REMARK    5  A    between atoms: C_11  and  C_12
REMARK    6  A    between atoms: C_15  and  C_16
REMARK                            x       y       z     vdW  Elec       q    Type
REMARK                         _______ _______ _______ _____ _____    ______ ____
ROOT
ATOM      1  C   UNL     1       3.450   4.440  18.478  0.00  0.00    +0.000 A 
ATOM      2  N   UNL     1       4.425   3.530  18.863  0.00  0.00    +0.000 NA
ATOM      3  N   UNL     1       5.652   3.825  18.851  0.00  0.00    +0.000 NA
ATOM      4  C   UNL     1       6.049   5.062  18.446  0.00  0.00    +0.000 A 
ATOM      5  C   UNL     1       7.284   5.653  18.312  0.00  0.00    +0.000 A 
ATOM      6  C   UNL     1       7.020   6.956  17.849  0.00  0.00    +0.000 A 
ATOM      7  C   UNL     1       7.989   8.030  17.526  0.00  0.00    +0.000 C 
ATOM      8  N   UNL     1       5.710   7.178  17.705  0.00  0.00    +0.000 NA
ATOM      9  N   UNL     1       5.112   6.010  18.058  0.00  0.00    +0.000 N 
ATOM     10  C   UNL     1       3.756   5.695  18.077  0.00  0.00    +0.000 A 
ATOM     11  C   UNL     1       2.769   6.763  17.702  0.00  0.00    +0.000 C 
ENDROOT
BRANCH   1  12
ATOM     12  C   UNL     1       2.019   4.020  18.574  0.00  0.00    +0.000 C 
ATOM     13  O   UNL     1       1.350   3.610  17.634  0.00  0.00    +0.000 OA
BRANCH  12  14
ATOM     14  O   UNL     1       1.547   4.273  19.820  0.00  0.00    +0.000 OA
BRANCH  14  16
ATOM     15  C   UNL     1       2.022   2.742  21.585  0.00  0.00    +0.000 C 
ATOM     16  C   UNL     1       1.026   3.128  20.505  0.00  0.00    +0.000 C 
ENDBRANCH  14  16
ENDBRANCH  12  14
ENDBRANCH   1  12
TORSDOF 3
ENDMDL
MODEL 9
REMARK VINA RESULT:      -6.2      3.016      5.495
REMARK  Name = 
REMARK  6 active torsions:
REMARK  status: ('A' for Active; 'I' for Inactive)
REMARK    1  A    between atoms: C_1  and  C_2
REMARK    2  A    between atoms: C_2  and  O_3
REMARK    3  A    between atoms: O_3  and  C_4
REMARK    4  A    between atoms: C_4  and  C_6
REMARK    5  A    between atoms: C_11  and  C_12
REMARK    6  A    between atoms: C_15  and  C_16
REMARK                            x       y       z     vdW  Elec       q    Type
REMARK                         _______ _______ _______ _____ _____    ______ ____
ROOT
ATOM      1  C   UNL     1       4.846   5.244  16.812  0.00  0.00    +0.000 A 
ATOM      2  N   UNL     1       5.116   3.899  16.602  0.00  0.00    +0.000 NA
ATOM      3  N   UNL     1       4.476   2.991  17.200  0.00  0.00    +0.000 NA
ATOM      4  C   UNL     1       3.497   3.320  18.085  0.00  0.00    +0.000 A 
ATOM      5  C   UNL     1       2.662   2.570  18.880  0.00  0.00    +0.000 A 
ATOM      6  C   UNL     1       1.867   3.509  19.567  0.00  0.00    +0.000 A 
ATOM      7  C   UNL     1       0.801   3.255  20.564  0.00  0.00    +0.000 C 
ATOM      8  N   UNL     1       2.173   4.764  19.225  0.00  0.00    +0.000 NA
ATOM      9  N   UNL     1       3.184   4.651  18.325  0.00  0.00    +0.000 N 
ATOM     10  C   UNL     1       3.879   5.659  17.661  0.00  0.00    +0.000 A 
ATOM     11  C   UNL     1       3.477   7.085  17.907  0.00  0.00    +0.000 C 
ENDROOT
BRANCH   1  12
ATOM     12  C   UNL     1       5.619   6.249  16.021  0.00  0.00    +0.000 C 
ATOM     13  O   UNL     1       5.143   6.962  15.146  0.00  0.00    +0.000 OA
BRANCH  12  14
ATOM     14  O   UNL     1       6.937   6.165  16.332  0.00  0.00    +0.000 OA
BRANCH  14  16
ATOM     15  C   UNL     1       7.710   8.066  17.545  0.00  0.00    +0.000 C 
ATOM     16  C   UNL     1       7.269   6.616  17.651  0.00  0.00    +0.000 C 
ENDBRANCH  14  16
ENDBRANCH  12  14
ENDBRANCH   1  12
TORSDOF 3
ENDMDL
