MODEL 1
REMARK VINA RESULT:      -7.2      0.000      0.000
REMARK  Name = 
REMARK  5 active torsions:
REMARK  status: ('A' for Active; 'I' for Inactive)
REMARK    1  A    between atoms: C_1  and  O_2
REMARK    2  A    between atoms: O_2  and  C_3
REMARK    3  A    between atoms: C_9  and  C_10
REMARK    4  A    between atoms: C_10  and  C_11
REMARK    5  A    between atoms: N_13  and  O_14
REMARK                            x       y       z     vdW  Elec       q    Type
REMARK                         _______ _______ _______ _____ _____    ______ ____
ROOT
ATOM      1  C   UNL     1       3.229   3.293  19.753  0.00  0.00    +0.000 C 
ATOM      2  C   UNL     1       2.735   2.470  18.543  0.00  0.00    +0.000 C 
ATOM      3  C   UNL     1       2.694   3.338  17.276  0.00  0.00    +0.000 C 
ATOM      4  C   UNL     1       1.768   4.539  17.494  0.00  0.00    +0.000 C 
ATOM      5  C   UNL     1       2.282   5.381  18.670  0.00  0.00    +0.000 C 
ATOM      6  C   UNL     1       3.714   5.873  18.367  0.00  0.00    +0.000 C 
ATOM      7  C   UNL     1       4.675   4.665  18.161  0.00  0.00    +0.000 C 
ATOM      8  C   UNL     1       4.114   3.839  16.973  0.00  0.00    +0.000 C 
ATOM      9  C   UNL     1       4.641   3.834  19.469  0.00  0.00    +0.000 C 
ATOM     10  C   UNL     1       2.289   4.507  19.933  0.00  0.00    +0.000 C 
ENDROOT
BRANCH   1  12
ATOM     11  C   UNL     1       1.975   2.656  21.732  0.00  0.00    +0.000 C 
ATOM     12  O   UNL     1       3.172   2.550  20.976  0.00  0.00    +0.000 OA
ENDBRANCH   1  12
BRANCH   7  13
ATOM     13  C   UNL     1       6.113   5.160  17.870  0.00  0.00    +0.000 C 
BRANCH  13  14
ATOM     14  C   UNL     1       6.368   5.596  16.428  0.00  0.00    +0.000 C 
ATOM     15  O   UNL     1       5.802   6.517  15.844  0.00  0.00    +0.000 OA
ATOM     16  N   UNL     1       7.320   4.846  15.774  0.00  0.00    +0.000 N 
ATOM     17  H   UNL     1       8.074   4.385  16.270  0.00  0.00    +0.000 HD
BRANCH  16  18
ATOM     18  O   UNL     1       7.629   5.321  14.471  0.00  0.00    +0.000 OA
ATOM     19  H   UNL     1       8.530   4.956  14.325  0.00  0.00    +0.000 HD
ENDBRANCH  16  18
ENDBRANCH  13  14
ENDBRANCH   7  13
TORSDOF 4
ENDMDL
MODEL 2
REMARK VINA RESULT:      -7.2      1.806      1.900
REMARK  Name = 
REMARK  5 active torsions:
REMARK  status: ('A' for Active; 'I' for Inactive)
REMARK    1  A    between atoms: C_1  and  O_2
REMARK    2  A    between atoms: O_2  and  C_3
REMARK    3  A    between atoms: C_9  and  C_10
REMARK    4  A    between atoms: C_10  and  C_11
REMARK    5  A    between atoms: N_13  and  O_14
REMARK                            x       y       z     vdW  Elec       q    Type
REMARK                         _______ _______ _______ _____ _____    ______ ____
ROOT
ATOM      1  C   UNL     1       3.121   3.317  19.867  0.00  0.00    +0.000 C 
ATOM      2  C   UNL     1       2.366   2.722  18.659  0.00  0.00    +0.000 C 
ATOM      3  C   UNL     1       2.466   3.654  17.442  0.00  0.00    +0.000 C 
ATOM      4  C   UNL     1       1.885   5.029  17.788  0.00  0.00    +0.000 C 
ATOM      5  C   UNL     1       2.663   5.640  18.961  0.00  0.00    +0.000 C 
ATOM      6  C   UNL     1       4.151   5.783  18.577  0.00  0.00    +0.000 C 
ATOM      7  C   UNL     1       4.765   4.393  18.241  0.00  0.00    +0.000 C 
ATOM      8  C   UNL     1       3.945   3.810  17.059  0.00  0.00    +0.000 C 
ATOM      9  C   UNL     1       4.604   3.511  19.505  0.00  0.00    +0.000 C 
ATOM     10  C   UNL     1       2.528   4.710  20.176  0.00  0.00    +0.000 C 
ENDROOT
BRANCH   1  12
ATOM     11  C   UNL     1       1.698   2.622  21.708  0.00  0.00    +0.000 C 
ATOM     12  O   UNL     1       2.955   2.532  21.054  0.00  0.00    +0.000 OA
ENDBRANCH   1  12
BRANCH   7  13
ATOM     13  C   UNL     1       6.261   4.536  17.867  0.00  0.00    +0.000 C 
BRANCH  13  14
ATOM     14  C   UNL     1       7.065   5.481  18.760  0.00  0.00    +0.000 C 
ATOM     15  O   UNL     1       7.222   5.363  19.972  0.00  0.00    +0.000 OA
ATOM     16  N   UNL     1       7.631   6.543  18.090  0.00  0.00    +0.000 N 
ATOM     17  H   UNL     1       7.885   6.485  17.111  0.00  0.00    +0.000 HD
BRANCH  16  18
ATOM     18  O   UNL     1       8.462   7.358  18.905  0.00  0.00    +0.000 OA
ATOM     19  H   UNL     1       8.077   7.218  19.799  0.00  0.00    +0.000 HD
ENDBRANCH  16  18
ENDBRANCH  13  14
ENDBRANCH   7  13
TORSDOF 4
ENDMDL
MODEL 3
REMARK VINA RESULT:      -7.2      2.275      5.199
REMARK  Name = 
REMARK  5 active torsions:
REMARK  status: ('A' for Active; 'I' for Inactive)
REMARK    1  A    between atoms: C_1  and  O_2
REMARK    2  A    between atoms: O_2  and  C_3
REMARK    3  A    between atoms: C_9  and  C_10
REMARK    4  A    between atoms: C_10  and  C_11
REMARK    5  A    between atoms: N_13  and  O_14
REMARK                            x       y       z     vdW  Elec       q    Type
REMARK                         _______ _______ _______ _____ _____    ______ ____
ROOT
ATOM      1  C   UNL     1       6.118   4.456  16.005  0.00  0.00    +0.000 C 
ATOM      2  C   UNL     1       7.368   4.890  16.801  0.00  0.00    +0.000 C 
ATOM      3  C   UNL     1       6.991   5.891  17.902  0.00  0.00    +0.000 C 
ATOM      4  C   UNL     1       6.321   7.122  17.283  0.00  0.00    +0.000 C 
ATOM      5  C   UNL     1       5.055   6.698  16.528  0.00  0.00    +0.000 C 
ATOM      6  C   UNL     1       4.078   6.006  17.504  0.00  0.00    +0.000 C 
ATOM      7  C   UNL     1       4.734   4.741  18.130  0.00  0.00    +0.000 C 
ATOM      8  C   UNL     1       6.012   5.215  18.872  0.00  0.00    +0.000 C 
ATOM      9  C   UNL     1       5.103   3.797  16.956  0.00  0.00    +0.000 C 
ATOM     10  C   UNL     1       5.453   5.720  15.413  0.00  0.00    +0.000 C 
ENDROOT
BRANCH   1  12
ATOM     11  C   UNL     1       5.903   3.976  13.634  0.00  0.00    +0.000 C 
ATOM     12  O   UNL     1       6.443   3.610  14.896  0.00  0.00    +0.000 OA
ENDBRANCH   1  12
BRANCH   7  13
ATOM     13  C   UNL     1       3.750   4.042  19.099  0.00  0.00    +0.000 C 
BRANCH  13  14
ATOM     14  C   UNL     1       3.971   2.540  19.276  0.00  0.00    +0.000 C 
ATOM     15  O   UNL     1       3.279   1.649  18.791  0.00  0.00    +0.000 OA
ATOM     16  N   UNL     1       5.051   2.220  20.068  0.00  0.00    +0.000 N 
ATOM     17  H   UNL     1       5.856   2.830  20.150  0.00  0.00    +0.000 HD
BRANCH  16  18
ATOM     18  O   UNL     1       5.315   0.826  20.144  0.00  0.00    +0.000 OA
ATOM     19  H   UNL     1       6.160   0.748  19.648  0.00  0.00    +0.000 HD
ENDBRANCH  16  18
ENDBRANCH  13  14
ENDBRANCH   7  13
TORSDOF 4
ENDMDL
MODEL 4
REMARK VINA RESULT:      -7.1      1.997      2.135
REMARK  Name = 
REMARK  5 active torsions:
REMARK  status: ('A' for Active; 'I' for Inactive)
REMARK    1  A    between atoms: C_1  and  O_2
REMARK    2  A    between atoms: O_2  and  C_3
REMARK    3  A    between atoms: C_9  and  C_10
REMARK    4  A    between atoms: C_10  and  C_11
REMARK    5  A    between atoms: N_13  and  O_14
REMARK                            x       y       z     vdW  Elec       q    Type
REMARK                         _______ _______ _______ _____ _____    ______ ____
ROOT
ATOM      1  C   UNL     1       3.250   3.349  19.774  0.00  0.00    +0.000 C 
ATOM      2  C   UNL     1       3.361   2.260  18.686  0.00  0.00    +0.000 C 
ATOM      3  C   UNL     1       3.382   2.889  17.285  0.00  0.00    +0.000 C 
ATOM      4  C   UNL     1       2.109   3.711  17.062  0.00  0.00    +0.000 C 
ATOM      5  C   UNL     1       2.019   4.822  18.117  0.00  0.00    +0.000 C 
ATOM      6  C   UNL     1       3.257   5.738  18.011  0.00  0.00    +0.000 C 
ATOM      7  C   UNL     1       4.562   4.924  18.254  0.00  0.00    +0.000 C 
ATOM      8  C   UNL     1       4.607   3.810  17.174  0.00  0.00    +0.000 C 
ATOM      9  C   UNL     1       4.451   4.306  19.671  0.00  0.00    +0.000 C 
ATOM     10  C   UNL     1       1.970   4.175  19.509  0.00  0.00    +0.000 C 
ENDROOT
BRANCH   1  12
ATOM     11  C   UNL     1       1.804   2.779  21.639  0.00  0.00    +0.000 C 
ATOM     12  O   UNL     1       3.113   2.797  21.088  0.00  0.00    +0.000 OA
ENDBRANCH   1  12
BRANCH   7  13
ATOM     13  C   UNL     1       5.803   5.845  18.159  0.00  0.00    +0.000 C 
BRANCH  13  14
ATOM     14  C   UNL     1       7.107   5.229  18.663  0.00  0.00    +0.000 C 
ATOM     15  O   UNL     1       7.793   4.406  18.062  0.00  0.00    +0.000 OA
ATOM     16  N   UNL     1       7.491   5.668  19.911  0.00  0.00    +0.000 N 
ATOM     17  H   UNL     1       7.233   6.583  20.261  0.00  0.00    +0.000 HD
BRANCH  16  18
ATOM     18  O   UNL     1       8.756   5.173  20.329  0.00  0.00    +0.000 OA
ATOM     19  H   UNL     1       8.759   4.266  19.951  0.00  0.00    +0.000 HD
ENDBRANCH  16  18
ENDBRANCH  13  14
ENDBRANCH   7  13
TORSDOF 4
ENDMDL
MODEL 5
REMARK VINA RESULT:      -7.0      1.643      2.507
REMARK  Name = 
REMARK  5 active torsions:
REMARK  status: ('A' for Active; 'I' for Inactive)
REMARK    1  A    between atoms: C_1  and  O_2
REMARK    2  A    between atoms: O_2  and  C_3
REMARK    3  A    between atoms: C_9  and  C_10
REMARK    4  A    between atoms: C_10  and  C_11
REMARK    5  A    between atoms: N_13  and  O_14
REMARK                            x       y       z     vdW  Elec       q    Type
REMARK                         _______ _______ _______ _____ _____    ______ ____
ROOT
ATOM      1  C   UNL     1       2.407   4.033  18.020  0.00  0.00    +0.000 C 
ATOM      2  C   UNL     1       2.283   5.567  17.896  0.00  0.00    +0.000 C 
ATOM      3  C   UNL     1       3.662   6.235  18.000  0.00  0.00    +0.000 C 
ATOM      4  C   UNL     1       4.317   5.877  19.338  0.00  0.00    +0.000 C 
ATOM      5  C   UNL     1       4.481   4.355  19.444  0.00  0.00    +0.000 C 
ATOM      6  C   UNL     1       5.358   3.847  18.280  0.00  0.00    +0.000 C 
ATOM      7  C   UNL     1       4.699   4.184  16.910  0.00  0.00    +0.000 C 
ATOM      8  C   UNL     1       4.545   5.727  16.851  0.00  0.00    +0.000 C 
ATOM      9  C   UNL     1       3.311   3.496  16.897  0.00  0.00    +0.000 C 
ATOM     10  C   UNL     1       3.091   3.706  19.368  0.00  0.00    +0.000 C 
ENDROOT
BRANCH   1  12
ATOM     11  C   UNL     1       0.780   2.708  19.243  0.00  0.00    +0.000 C 
ATOM     12  O   UNL     1       1.132   3.382  18.043  0.00  0.00    +0.000 OA
ENDBRANCH   1  12
BRANCH   7  13
ATOM     13  C   UNL     1       5.574   3.663  15.744  0.00  0.00    +0.000 C 
BRANCH  13  14
ATOM     14  C   UNL     1       6.883   4.422  15.527  0.00  0.00    +0.000 C 
ATOM     15  O   UNL     1       7.814   4.492  16.325  0.00  0.00    +0.000 OA
ATOM     16  N   UNL     1       6.962   5.072  14.316  0.00  0.00    +0.000 N 
ATOM     17  H   UNL     1       6.463   4.744  13.497  0.00  0.00    +0.000 HD
BRANCH  16  18
ATOM     18  O   UNL     1       8.220   5.688  14.075  0.00  0.00    +0.000 OA
ATOM     19  H   UNL     1       8.056   6.614  14.363  0.00  0.00    +0.000 HD
ENDBRANCH  16  18
ENDBRANCH  13  14
ENDBRANCH   7  13
TORSDOF 4
ENDMDL
MODEL 6
REMARK VINA RESULT:      -7.0      2.407      5.211
REMARK  Name = 
REMARK  5 active torsions:
REMARK  status: ('A' for Active; 'I' for Inactive)
REMARK    1  A    between atoms: C_1  and  O_2
REMARK    2  A    between atoms: O_2  and  C_3
REMARK    3  A    between atoms: C_9  and  C_10
REMARK    4  A    between atoms: C_10  and  C_11
REMARK    5  A    between atoms: N_13  and  O_14
REMARK                            x       y       z     vdW  Elec       q    Type
REMARK                         _______ _______ _______ _____ _____    ______ ____
ROOT
ATOM      1  C   UNL     1       5.937   4.386  16.245  0.00  0.00    +0.000 C 
ATOM      2  C   UNL     1       7.268   4.597  17.000  0.00  0.00    +0.000 C 
ATOM      3  C   UNL     1       7.124   5.702  18.056  0.00  0.00    +0.000 C 
ATOM      4  C   UNL     1       6.698   7.012  17.387  0.00  0.00    +0.000 C 
ATOM      5  C   UNL     1       5.354   6.816  16.673  0.00  0.00    +0.000 C 
ATOM      6  C   UNL     1       4.284   6.379  17.696  0.00  0.00    +0.000 C 
ATOM      7  C   UNL     1       4.690   5.037  18.373  0.00  0.00    +0.000 C 
ATOM      8  C   UNL     1       6.054   5.279  19.073  0.00  0.00    +0.000 C 
ATOM      9  C   UNL     1       4.835   3.987  17.242  0.00  0.00    +0.000 C 
ATOM     10  C   UNL     1       5.523   5.729  15.601  0.00  0.00    +0.000 C 
ENDROOT
BRANCH   1  12
ATOM     11  C   UNL     1       6.277   3.976  13.876  0.00  0.00    +0.000 C 
ATOM     12  O   UNL     1       6.061   3.443  15.174  0.00  0.00    +0.000 OA
ENDBRANCH   1  12
BRANCH   7  13
ATOM     13  C   UNL     1       3.610   4.593  19.390  0.00  0.00    +0.000 C 
BRANCH  13  14
ATOM     14  C   UNL     1       2.463   3.773  18.801  0.00  0.00    +0.000 C 
ATOM     15  O   UNL     1       1.569   4.204  18.077  0.00  0.00    +0.000 OA
ATOM     16  N   UNL     1       2.481   2.443  19.156  0.00  0.00    +0.000 N 
ATOM     17  H   UNL     1       3.343   1.960  19.379  0.00  0.00    +0.000 HD
BRANCH  16  18
ATOM     18  O   UNL     1       1.475   1.665  18.522  0.00  0.00    +0.000 OA
ATOM     19  H   UNL     1       0.926   1.376  19.285  0.00  0.00    +0.000 HD
ENDBRANCH  16  18
ENDBRANCH  13  14
ENDBRANCH   7  13
TORSDOF 4
ENDMDL
MODEL 7
REMARK VINA RESULT:      -7.0      1.248      1.252
REMARK  Name = 
REMARK  5 active torsions:
REMARK  status: ('A' for Active; 'I' for Inactive)
REMARK    1  A    between atoms: C_1  and  O_2
REMARK    2  A    between atoms: O_2  and  C_3
REMARK    3  A    between atoms: C_9  and  C_10
REMARK    4  A    between atoms: C_10  and  C_11
REMARK    5  A    between atoms: N_13  and  O_14
REMARK                            x       y       z     vdW  Elec       q    Type
REMARK                         _______ _______ _______ _____ _____    ______ ____
ROOT
ATOM      1  C   UNL     1       3.308   3.396  19.651  0.00  0.00    +0.000 C 
ATOM      2  C   UNL     1       3.167   2.460  18.431  0.00  0.00    +0.000 C 
ATOM      3  C   UNL     1       2.901   3.269  17.153  0.00  0.00    +0.000 C 
ATOM      4  C   UNL     1       1.623   4.098  17.316  0.00  0.00    +0.000 C 
ATOM      5  C   UNL     1       1.778   5.059  18.502  0.00  0.00    +0.000 C 
ATOM      6  C   UNL     1       2.981   5.995  18.256  0.00  0.00    +0.000 C 
ATOM      7  C   UNL     1       4.293   5.171  18.107  0.00  0.00    +0.000 C 
ATOM      8  C   UNL     1       4.089   4.210  16.906  0.00  0.00    +0.000 C 
ATOM      9  C   UNL     1       4.475   4.371  19.422  0.00  0.00    +0.000 C 
ATOM     10  C   UNL     1       2.014   4.234  19.775  0.00  0.00    +0.000 C 
ENDROOT
BRANCH   1  12
ATOM     11  C   UNL     1       2.334   2.708  21.767  0.00  0.00    +0.000 C 
ATOM     12  O   UNL     1       3.443   2.674  20.881  0.00  0.00    +0.000 OA
ENDBRANCH   1  12
BRANCH   7  13
ATOM     13  C   UNL     1       5.501   6.112  17.872  0.00  0.00    +0.000 C 
BRANCH  13  14
ATOM     14  C   UNL     1       6.750   5.434  17.311  0.00  0.00    +0.000 C 
ATOM     15  O   UNL     1       7.268   5.670  16.222  0.00  0.00    +0.000 OA
ATOM     16  N   UNL     1       7.292   4.477  18.140  0.00  0.00    +0.000 N 
ATOM     17  H   UNL     1       7.188   4.519  19.146  0.00  0.00    +0.000 HD
BRANCH  16  18
ATOM     18  O   UNL     1       8.511   3.927  17.660  0.00  0.00    +0.000 OA
ATOM     19  H   UNL     1       8.774   4.575  16.970  0.00  0.00    +0.000 HD
ENDBRANCH  16  18
ENDBRANCH  13  14
ENDBRANCH   7  13
TORSDOF 4
ENDMDL
MODEL 8
REMARK VINA RESULT:      -7.0      2.256      5.270
REMARK  Name = 
REMARK  5 active torsions:
REMARK  status: ('A' for Active; 'I' for Inactive)
REMARK    1  A    between atoms: C_1  and  O_2
REMARK    2  A    between atoms: O_2  and  C_3
REMARK    3  A    between atoms: C_9  and  C_10
REMARK    4  A    between atoms: C_10  and  C_11
REMARK    5  A    between atoms: N_13  and  O_14
REMARK                            x       y       z     vdW  Elec       q    Type
REMARK                         _______ _______ _______ _____ _____    ______ ____
ROOT
ATOM      1  C   UNL     1       5.580   4.764  15.513  0.00  0.00    +0.000 C 
ATOM      2  C   UNL     1       7.046   4.629  15.979  0.00  0.00    +0.000 C 
ATOM      3  C   UNL     1       7.251   5.315  17.338  0.00  0.00    +0.000 C 
ATOM      4  C   UNL     1       6.877   6.797  17.236  0.00  0.00    +0.000 C 
ATOM      5  C   UNL     1       5.408   6.933  16.815  0.00  0.00    +0.000 C 
ATOM      6  C   UNL     1       4.505   6.237  17.856  0.00  0.00    +0.000 C 
ATOM      7  C   UNL     1       4.856   4.724  17.959  0.00  0.00    +0.000 C 
ATOM      8  C   UNL     1       6.348   4.634  18.377  0.00  0.00    +0.000 C 
ATOM      9  C   UNL     1       4.646   4.114  16.550  0.00  0.00    +0.000 C 
ATOM     10  C   UNL     1       5.227   6.268  15.443  0.00  0.00    +0.000 C 
ENDROOT
BRANCH   1  12
ATOM     11  C   UNL     1       6.533   4.033  13.403  0.00  0.00    +0.000 C 
ATOM     12  O   UNL     1       5.374   4.236  14.198  0.00  0.00    +0.000 OA
ENDBRANCH   1  12
BRANCH   7  13
ATOM     13  C   UNL     1       3.942   4.024  18.995  0.00  0.00    +0.000 C 
BRANCH  13  14
ATOM     14  C   UNL     1       4.338   2.590  19.344  0.00  0.00    +0.000 C 
ATOM     15  O   UNL     1       4.866   2.225  20.392  0.00  0.00    +0.000 OA
ATOM     16  N   UNL     1       4.062   1.673  18.355  0.00  0.00    +0.000 N 
ATOM     17  H   UNL     1       3.306   1.808  17.694  0.00  0.00    +0.000 HD
BRANCH  16  18
ATOM     18  O   UNL     1       4.335   0.329  18.726  0.00  0.00    +0.000 OA
ATOM     19  H   UNL     1       4.611   0.425  19.664  0.00  0.00    +0.000 HD
ENDBRANCH  16  18
ENDBRANCH  13  14
ENDBRANCH   7  13
TORSDOF 4
ENDMDL
MODEL 9
REMARK VINA RESULT:      -6.9      1.097      1.262
REMARK  Name = 
REMARK  5 active torsions:
REMARK  status: ('A' for Active; 'I' for Inactive)
REMARK    1  A    between atoms: C_1  and  O_2
REMARK    2  A    between atoms: O_2  and  C_3
REMARK    3  A    between atoms: C_9  and  C_10
REMARK    4  A    between atoms: C_10  and  C_11
REMARK    5  A    between atoms: N_13  and  O_14
REMARK                            x       y       z     vdW  Elec       q    Type
REMARK                         _______ _______ _______ _____ _____    ______ ____
ROOT
ATOM      1  C   UNL     1       3.762   3.294  19.583  0.00  0.00    +0.000 C 
ATOM      2  C   UNL     1       3.395   2.503  18.309  0.00  0.00    +0.000 C 
ATOM      3  C   UNL     1       3.051   3.458  17.156  0.00  0.00    +0.000 C 
ATOM      4  C   UNL     1       1.880   4.362  17.557  0.00  0.00    +0.000 C 
ATOM      5  C   UNL     1       2.260   5.180  18.799  0.00  0.00    +0.000 C 
ATOM      6  C   UNL     1       3.504   6.042  18.490  0.00  0.00    +0.000 C 
ATOM      7  C   UNL     1       4.710   5.139  18.099  0.00  0.00    +0.000 C 
ATOM      8  C   UNL     1       4.280   4.326  16.849  0.00  0.00    +0.000 C 
ATOM      9  C   UNL     1       4.976   4.196  19.299  0.00  0.00    +0.000 C 
ATOM     10  C   UNL     1       2.572   4.211  19.949  0.00  0.00    +0.000 C 
ENDROOT
BRANCH   1  12
ATOM     11  C   UNL     1       4.981   1.443  20.576  0.00  0.00    +0.000 C 
ATOM     12  O   UNL     1       3.978   2.440  20.712  0.00  0.00    +0.000 OA
ENDBRANCH   1  12
BRANCH   7  13
ATOM     13  C   UNL     1       5.960   6.004  17.801  0.00  0.00    +0.000 C 
BRANCH  13  14
ATOM     14  C   UNL     1       6.973   5.371  16.848  0.00  0.00    +0.000 C 
ATOM     15  O   UNL     1       7.736   4.447  17.119  0.00  0.00    +0.000 OA
ATOM     16  N   UNL     1       6.993   5.936  15.592  0.00  0.00    +0.000 N 
ATOM     17  H   UNL     1       6.175   6.376  15.189  0.00  0.00    +0.000 HD
BRANCH  16  18
ATOM     18  O   UNL     1       7.861   5.277  14.680  0.00  0.00    +0.000 OA
ATOM     19  H   UNL     1       8.268   4.584  15.246  0.00  0.00    +0.000 HD
ENDBRANCH  16  18
ENDBRANCH  13  14
ENDBRANCH   7  13
TORSDOF 4
ENDMDL
