MODEL 1
REMARK VINA RESULT:      -6.3      0.000      0.000
REMARK  Name = 
REMARK  3 active torsions:
REMARK  status: ('A' for Active; 'I' for Inactive)
REMARK    1  A    between atoms: C_2  and  C_3
REMARK    2  A    between atoms: C_2  and  C_9
REMARK    3  A    between atoms: C_3  and  N_4
REMARK                            x       y       z     vdW  Elec       q    Type
REMARK                         _______ _______ _______ _____ _____    ______ ____
ROOT
ATOM      1  O   UNL     1       3.015   7.374  17.807  0.00  0.00    +0.000 OA
ATOM      2  C   UNL     1       3.363   6.204  17.870  0.00  0.00    +0.000 C 
ENDROOT
BRANCH   2   3
ATOM      3  C   UNL     1       2.486   5.214  18.568  0.00  0.00    +0.000 A 
ATOM      4  C   UNL     1       2.021   4.074  17.880  0.00  0.00    +0.000 A 
ATOM      5  C   UNL     1       1.202   3.140  18.522  0.00  0.00    +0.000 A 
ATOM      6  C   UNL     1       0.828   3.332  19.853  0.00  0.00    +0.000 A 
ATOM      7  C   UNL     1       1.282   4.452  20.549  0.00  0.00    +0.000 A 
ATOM      8  C   UNL     1       2.111   5.383  19.918  0.00  0.00    +0.000 A 
ENDBRANCH   2   3
BRANCH   2   9
ATOM      9  C   UNL     1       4.647   5.805  17.175  0.00  0.00    +0.000 C 
BRANCH   9  10
ATOM     10  N   UNL     1       5.822   5.805  18.055  0.00  0.00    +0.000 N 
ATOM     11  C   UNL     1       6.966   6.461  17.801  0.00  0.00    +0.000 A 
ATOM     12  C   UNL     1       7.837   6.221  18.839  0.00  0.00    +0.000 A 
ATOM     13  N   UNL     1       7.237   5.422  19.747  0.00  0.00    +0.000 NA
ATOM     14  C   UNL     1       6.009   5.188  19.244  0.00  0.00    +0.000 A 
ENDBRANCH   9  10
ENDBRANCH   2   9
TORSDOF 3
ENDMDL
MODEL 2
REMARK VINA RESULT:      -6.2      1.754      2.664
REMARK  Name = 
REMARK  3 active torsions:
REMARK  status: ('A' for Active; 'I' for Inactive)
REMARK    1  A    between atoms: C_2  and  C_3
REMARK    2  A    between atoms: C_2  and  C_9
REMARK    3  A    between atoms: C_3  and  N_4
REMARK                            x       y       z     vdW  Elec       q    Type
REMARK                         _______ _______ _______ _____ _____    ______ ____
ROOT
ATOM      1  O   UNL     1       3.733   6.242  17.479  0.00  0.00    +0.000 OA
ATOM      2  C   UNL     1       3.949   5.197  18.074  0.00  0.00    +0.000 C 
ENDROOT
BRANCH   2   3
ATOM      3  C   UNL     1       2.807   4.459  18.698  0.00  0.00    +0.000 A 
ATOM      4  C   UNL     1       2.334   4.837  19.972  0.00  0.00    +0.000 A 
ATOM      5  C   UNL     1       1.267   4.155  20.566  0.00  0.00    +0.000 A 
ATOM      6  C   UNL     1       0.663   3.085  19.904  0.00  0.00    +0.000 A 
ATOM      7  C   UNL     1       1.116   2.700  18.643  0.00  0.00    +0.000 A 
ATOM      8  C   UNL     1       2.174   3.384  18.039  0.00  0.00    +0.000 A 
ENDBRANCH   2   3
BRANCH   2   9
ATOM      9  C   UNL     1       5.367   4.668  18.094  0.00  0.00    +0.000 C 
BRANCH   9  10
ATOM     10  N   UNL     1       6.041   4.734  16.791  0.00  0.00    +0.000 N 
ATOM     11  C   UNL     1       5.712   3.989  15.723  0.00  0.00    +0.000 A 
ATOM     12  C   UNL     1       6.565   4.316  14.694  0.00  0.00    +0.000 A 
ATOM     13  N   UNL     1       7.422   5.271  15.114  0.00  0.00    +0.000 NA
ATOM     14  C   UNL     1       7.076   5.507  16.394  0.00  0.00    +0.000 A 
ENDBRANCH   9  10
ENDBRANCH   2   9
TORSDOF 3
ENDMDL
MODEL 3
REMARK VINA RESULT:      -6.1      1.204      1.250
REMARK  Name = 
REMARK  3 active torsions:
REMARK  status: ('A' for Active; 'I' for Inactive)
REMARK    1  A    between atoms: C_2  and  C_3
REMARK    2  A    between atoms: C_2  and  C_9
REMARK    3  A    between atoms: C_3  and  N_4
REMARK                            x       y       z     vdW  Elec       q    Type
REMARK                         _______ _______ _______ _____ _____    ______ ____
ROOT
ATOM      1  O   UNL     1       4.075   3.885  16.461  0.00  0.00    +0.000 OA
ATOM      2  C   UNL     1       3.726   4.629  17.366  0.00  0.00    +0.000 C 
ENDROOT
BRANCH   2   3
ATOM      3  C   UNL     1       2.667   4.175  18.321  0.00  0.00    +0.000 A 
ATOM      4  C   UNL     1       1.963   2.978  18.078  0.00  0.00    +0.000 A 
ATOM      5  C   UNL     1       0.972   2.543  18.963  0.00  0.00    +0.000 A 
ATOM      6  C   UNL     1       0.664   3.297  20.096  0.00  0.00    +0.000 A 
ATOM      7  C   UNL     1       1.352   4.482  20.353  0.00  0.00    +0.000 A 
ATOM      8  C   UNL     1       2.352   4.916  19.479  0.00  0.00    +0.000 A 
ENDBRANCH   2   3
BRANCH   2   9
ATOM      9  C   UNL     1       4.436   5.957  17.510  0.00  0.00    +0.000 C 
BRANCH   9  10
ATOM     10  N   UNL     1       5.705   5.873  18.244  0.00  0.00    +0.000 N 
ATOM     11  C   UNL     1       6.845   6.477  17.870  0.00  0.00    +0.000 A 
ATOM     12  C   UNL     1       7.818   6.163  18.790  0.00  0.00    +0.000 A 
ATOM     13  N   UNL     1       7.288   5.370  19.745  0.00  0.00    +0.000 NA
ATOM     14  C   UNL     1       5.999   5.213  19.387  0.00  0.00    +0.000 A 
ENDBRANCH   9  10
ENDBRANCH   2   9
TORSDOF 3
ENDMDL
MODEL 4
REMARK VINA RESULT:      -6.1      1.660      2.078
REMARK  Name = 
REMARK  3 active torsions:
REMARK  status: ('A' for Active; 'I' for Inactive)
REMARK    1  A    between atoms: C_2  and  C_3
REMARK    2  A    between atoms: C_2  and  C_9
REMARK    3  A    between atoms: C_3  and  N_4
REMARK                            x       y       z     vdW  Elec       q    Type
REMARK                         _______ _______ _______ _____ _____    ______ ____
ROOT
ATOM      1  O   UNL     1       4.966   4.033  15.700  0.00  0.00    +0.000 OA
ATOM      2  C   UNL     1       4.430   4.532  16.678  0.00  0.00    +0.000 C 
ENDROOT
BRANCH   2   3
ATOM      3  C   UNL     1       3.389   3.755  17.421  0.00  0.00    +0.000 A 
ATOM      4  C   UNL     1       2.132   4.336  17.687  0.00  0.00    +0.000 A 
ATOM      5  C   UNL     1       1.149   3.620  18.379  0.00  0.00    +0.000 A 
ATOM      6  C   UNL     1       1.409   2.323  18.823  0.00  0.00    +0.000 A 
ATOM      7  C   UNL     1       2.646   1.733  18.567  0.00  0.00    +0.000 A 
ATOM      8  C   UNL     1       3.628   2.438  17.865  0.00  0.00    +0.000 A 
ENDBRANCH   2   3
BRANCH   2   9
ATOM      9  C   UNL     1       4.899   5.899  17.127  0.00  0.00    +0.000 C 
BRANCH   9  10
ATOM     10  N   UNL     1       6.016   5.858  18.079  0.00  0.00    +0.000 N 
ATOM     11  C   UNL     1       7.212   6.435  17.876  0.00  0.00    +0.000 A 
ATOM     12  C   UNL     1       8.003   6.178  18.973  0.00  0.00    +0.000 A 
ATOM     13  N   UNL     1       7.301   5.448  19.866  0.00  0.00    +0.000 NA
ATOM     14  C   UNL     1       6.093   5.272  19.295  0.00  0.00    +0.000 A 
ENDBRANCH   9  10
ENDBRANCH   2   9
TORSDOF 3
ENDMDL
MODEL 5
REMARK VINA RESULT:      -6.1      2.263      2.845
REMARK  Name = 
REMARK  3 active torsions:
REMARK  status: ('A' for Active; 'I' for Inactive)
REMARK    1  A    between atoms: C_2  and  C_3
REMARK    2  A    between atoms: C_2  and  C_9
REMARK    3  A    between atoms: C_3  and  N_4
REMARK                            x       y       z     vdW  Elec       q    Type
REMARK                         _______ _______ _______ _____ _____    ______ ____
ROOT
ATOM      1  O   UNL     1       5.826   4.017  19.290  0.00  0.00    +0.000 OA
ATOM      2  C   UNL     1       4.743   4.477  18.959  0.00  0.00    +0.000 C 
ENDROOT
BRANCH   2   3
ATOM      3  C   UNL     1       3.510   4.050  19.690  0.00  0.00    +0.000 A 
ATOM      4  C   UNL     1       3.514   2.859  20.444  0.00  0.00    +0.000 A 
ATOM      5  C   UNL     1       2.367   2.449  21.133  0.00  0.00    +0.000 A 
ATOM      6  C   UNL     1       1.202   3.214  21.073  0.00  0.00    +0.000 A 
ATOM      7  C   UNL     1       1.182   4.397  20.334  0.00  0.00    +0.000 A 
ATOM      8  C   UNL     1       2.327   4.818  19.653  0.00  0.00    +0.000 A 
ENDBRANCH   2   3
BRANCH   2   9
ATOM      9  C   UNL     1       4.717   5.514  17.857  0.00  0.00    +0.000 C 
BRANCH   9  10
ATOM     10  N   UNL     1       5.659   5.240  16.764  0.00  0.00    +0.000 N 
ATOM     11  C   UNL     1       5.457   4.336  15.792  0.00  0.00    +0.000 A 
ATOM     12  C   UNL     1       6.552   4.351  14.959  0.00  0.00    +0.000 A 
ATOM     13  N   UNL     1       7.436   5.270  15.404  0.00  0.00    +0.000 NA
ATOM     14  C   UNL     1       6.863   5.797  16.503  0.00  0.00    +0.000 A 
ENDBRANCH   9  10
ENDBRANCH   2   9
TORSDOF 3
ENDMDL
MODEL 6
REMARK VINA RESULT:      -6.0      2.113      2.634
REMARK  Name = 
REMARK  3 active torsions:
REMARK  status: ('A' for Active; 'I' for Inactive)
REMARK    1  A    between atoms: C_2  and  C_3
REMARK    2  A    between atoms: C_2  and  C_9
REMARK    3  A    between atoms: C_3  and  N_4
REMARK                            x       y       z     vdW  Elec       q    Type
REMARK                         _______ _______ _______ _____ _____    ______ ____
ROOT
ATOM      1  O   UNL     1       3.632   5.423  17.451  0.00  0.00    +0.000 OA
ATOM      2  C   UNL     1       4.049   4.619  18.271  0.00  0.00    +0.000 C 
ENDROOT
BRANCH   2   3
ATOM      3  C   UNL     1       3.109   4.054  19.289  0.00  0.00    +0.000 A 
ATOM      4  C   UNL     1       1.749   4.425  19.276  0.00  0.00    +0.000 A 
ATOM      5  C   UNL     1       0.860   3.904  20.222  0.00  0.00    +0.000 A 
ATOM      6  C   UNL     1       1.315   3.015  21.197  0.00  0.00    +0.000 A 
ATOM      7  C   UNL     1       2.657   2.636  21.222  0.00  0.00    +0.000 A 
ATOM      8  C   UNL     1       3.548   3.143  20.273  0.00  0.00    +0.000 A 
ENDBRANCH   2   3
BRANCH   2   9
ATOM      9  C   UNL     1       5.495   4.184  18.170  0.00  0.00    +0.000 C 
BRANCH   9  10
ATOM     10  N   UNL     1       6.140   4.563  16.906  0.00  0.00    +0.000 N 
ATOM     11  C   UNL     1       5.990   3.904  15.745  0.00  0.00    +0.000 A 
ATOM     12  C   UNL     1       6.749   4.541  14.790  0.00  0.00    +0.000 A 
ATOM     13  N   UNL     1       7.368   5.602  15.350  0.00  0.00    +0.000 NA
ATOM     14  C   UNL     1       6.975   5.591  16.639  0.00  0.00    +0.000 A 
ENDBRANCH   9  10
ENDBRANCH   2   9
TORSDOF 3
ENDMDL
MODEL 7
REMARK VINA RESULT:      -6.0      1.134      1.200
REMARK  Name = 
REMARK  3 active torsions:
REMARK  status: ('A' for Active; 'I' for Inactive)
REMARK    1  A    between atoms: C_2  and  C_3
REMARK    2  A    between atoms: C_2  and  C_9
REMARK    3  A    between atoms: C_3  and  N_4
REMARK                            x       y       z     vdW  Elec       q    Type
REMARK                         _______ _______ _______ _____ _____    ______ ____
ROOT
ATOM      1  O   UNL     1       2.440   7.454  19.560  0.00  0.00    +0.000 OA
ATOM      2  C   UNL     1       2.774   6.476  18.907  0.00  0.00    +0.000 C 
ENDROOT
BRANCH   2   3
ATOM      3  C   UNL     1       2.100   5.164  19.152  0.00  0.00    +0.000 A 
ATOM      4  C   UNL     1       1.802   4.311  18.069  0.00  0.00    +0.000 A 
ATOM      5  C   UNL     1       1.172   3.081  18.284  0.00  0.00    +0.000 A 
ATOM      6  C   UNL     1       0.824   2.688  19.578  0.00  0.00    +0.000 A 
ATOM      7  C   UNL     1       1.115   3.518  20.660  0.00  0.00    +0.000 A 
ATOM      8  C   UNL     1       1.754   4.743  20.453  0.00  0.00    +0.000 A 
ENDBRANCH   2   3
BRANCH   2   9
ATOM      9  C   UNL     1       3.821   6.664  17.829  0.00  0.00    +0.000 C 
BRANCH   9  10
ATOM     10  N   UNL     1       5.023   5.844  18.023  0.00  0.00    +0.000 N 
ATOM     11  C   UNL     1       5.812   5.401  17.030  0.00  0.00    +0.000 A 
ATOM     12  C   UNL     1       6.829   4.661  17.589  0.00  0.00    +0.000 A 
ATOM     13  N   UNL     1       6.682   4.648  18.932  0.00  0.00    +0.000 NA
ATOM     14  C   UNL     1       5.576   5.380  19.166  0.00  0.00    +0.000 A 
ENDBRANCH   9  10
ENDBRANCH   2   9
TORSDOF 3
ENDMDL
MODEL 8
REMARK VINA RESULT:      -6.0      0.950      1.587
REMARK  Name = 
REMARK  3 active torsions:
REMARK  status: ('A' for Active; 'I' for Inactive)
REMARK    1  A    between atoms: C_2  and  C_3
REMARK    2  A    between atoms: C_2  and  C_9
REMARK    3  A    between atoms: C_3  and  N_4
REMARK                            x       y       z     vdW  Elec       q    Type
REMARK                         _______ _______ _______ _____ _____    ______ ____
ROOT
ATOM      1  O   UNL     1       2.437   7.701  18.956  0.00  0.00    +0.000 OA
ATOM      2  C   UNL     1       2.864   6.647  18.510  0.00  0.00    +0.000 C 
ENDROOT
BRANCH   2   3
ATOM      3  C   UNL     1       2.192   5.364  18.887  0.00  0.00    +0.000 A 
ATOM      4  C   UNL     1       1.870   5.106  20.235  0.00  0.00    +0.000 A 
ATOM      5  C   UNL     1       1.240   3.911  20.600  0.00  0.00    +0.000 A 
ATOM      6  C   UNL     1       0.932   2.956  19.630  0.00  0.00    +0.000 A 
ATOM      7  C   UNL     1       1.241   3.197  18.292  0.00  0.00    +0.000 A 
ATOM      8  C   UNL     1       1.859   4.394  17.919  0.00  0.00    +0.000 A 
ENDBRANCH   2   3
BRANCH   2   9
ATOM      9  C   UNL     1       4.024   6.702  17.539  0.00  0.00    +0.000 C 
BRANCH   9  10
ATOM     10  N   UNL     1       5.180   5.898  17.953  0.00  0.00    +0.000 N 
ATOM     11  C   UNL     1       6.169   5.506  17.133  0.00  0.00    +0.000 A 
ATOM     12  C   UNL     1       7.067   4.765  17.867  0.00  0.00    +0.000 A 
ATOM     13  N   UNL     1       6.645   4.699  19.148  0.00  0.00    +0.000 NA
ATOM     14  C   UNL     1       5.495   5.401  19.170  0.00  0.00    +0.000 A 
ENDBRANCH   9  10
ENDBRANCH   2   9
TORSDOF 3
ENDMDL
MODEL 9
REMARK VINA RESULT:      -6.0      0.706      1.052
REMARK  Name = 
REMARK  3 active torsions:
REMARK  status: ('A' for Active; 'I' for Inactive)
REMARK    1  A    between atoms: C_2  and  C_3
REMARK    2  A    between atoms: C_2  and  C_9
REMARK    3  A    between atoms: C_3  and  N_4
REMARK                            x       y       z     vdW  Elec       q    Type
REMARK                         _______ _______ _______ _____ _____    ______ ____
ROOT
ATOM      1  O   UNL     1       3.133   7.158  17.881  0.00  0.00    +0.000 OA
ATOM      2  C   UNL     1       3.402   5.966  17.886  0.00  0.00    +0.000 C 
ENDROOT
BRANCH   2   3
ATOM      3  C   UNL     1       2.505   5.013  18.610  0.00  0.00    +0.000 A 
ATOM      4  C   UNL     1       1.939   3.918  17.925  0.00  0.00    +0.000 A 
ATOM      5  C   UNL     1       1.100   3.019  18.591  0.00  0.00    +0.000 A 
ATOM      6  C   UNL     1       0.806   3.203  19.943  0.00  0.00    +0.000 A 
ATOM      7  C   UNL     1       1.360   4.279  20.636  0.00  0.00    +0.000 A 
ATOM      8  C   UNL     1       2.209   5.174  19.980  0.00  0.00    +0.000 A 
ENDBRANCH   2   3
BRANCH   2   9
ATOM      9  C   UNL     1       4.608   5.506  17.095  0.00  0.00    +0.000 C 
BRANCH   9  10
ATOM     10  N   UNL     1       5.891   5.901  17.689  0.00  0.00    +0.000 N 
ATOM     11  C   UNL     1       6.494   5.256  18.702  0.00  0.00    +0.000 A 
ATOM     12  C   UNL     1       7.664   5.918  18.995  0.00  0.00    +0.000 A 
ATOM     13  N   UNL     1       7.800   6.971  18.161  0.00  0.00    +0.000 NA
ATOM     14  C   UNL     1       6.706   6.933  17.375  0.00  0.00    +0.000 A 
ENDBRANCH   9  10
ENDBRANCH   2   9
TORSDOF 3
ENDMDL
