MODEL 1
REMARK VINA RESULT:      -7.9      0.000      0.000
REMARK  Name = 
REMARK  7 active torsions:
REMARK  status: ('A' for Active; 'I' for Inactive)
REMARK    1  A    between atoms: N_6  and  C_7
REMARK    2  A    between atoms: C_7  and  C_8
REMARK    3  A    between atoms: C_8  and  C_9
REMARK    4  A    between atoms: C_15  and  C_16
REMARK    5  A    between atoms: C_15  and  C_18
REMARK    6  A    between atoms: C_16  and  O_17
REMARK    7  A    between atoms: C_18  and  C_19
REMARK                            x       y       z     vdW  Elec       q    Type
REMARK                         _______ _______ _______ _____ _____    ______ ____
ROOT
ATOM      1  C   UNL     1       3.969   2.759  18.010  0.00  0.00    +0.000 C 
ATOM      2  O   UNL     1       4.110   1.551  17.817  0.00  0.00    +0.000 OA
ATOM      3  N   UNL     1       3.821   3.287  19.287  0.00  0.00    +0.000 N 
ATOM      4  C   UNL     1       3.973   2.416  20.449  0.00  0.00    +0.000 C 
ATOM      5  C   UNL     1       2.710   2.457  21.304  0.00  0.00    +0.000 C 
ATOM      6  C   UNL     1       2.334   3.894  21.675  0.00  0.00    +0.000 C 
ATOM      7  C   UNL     1       2.298   4.876  20.466  0.00  0.00    +0.000 C 
ATOM      8  C   UNL     1       3.580   4.692  19.611  0.00  0.00    +0.000 C 
ENDROOT
BRANCH   1   9
ATOM      9  C   UNL     1       3.933   3.741  16.851  0.00  0.00    +0.000 C 
BRANCH   9  10
ATOM     10  C   UNL     1       5.317   3.916  16.239  0.00  0.00    +0.000 C 
BRANCH  10  16
ATOM     11  O   UNL     1       5.299   6.832  15.824  0.00  0.00    +0.000 OA
ATOM     12  C   UNL     1       6.044   6.293  16.618  0.00  0.00    +0.000 C 
ATOM     13  C   UNL     1       7.131   6.984  17.410  0.00  0.00    +0.000 C 
ATOM     14  C   UNL     1       7.539   5.932  18.436  0.00  0.00    +0.000 C 
ATOM     15  C   UNL     1       7.242   4.617  17.742  0.00  0.00    +0.000 C 
ATOM     16  N   UNL     1       6.110   4.938  16.912  0.00  0.00    +0.000 N 
ENDBRANCH  10  16
ENDBRANCH   9  10
ENDBRANCH   1   9
BRANCH   7  17
ATOM     17  C   UNL     1       1.067   4.590  19.557  0.00  0.00    +0.000 C 
BRANCH  17  18
ATOM     18  O   UNL     1       0.234   3.559  20.076  0.00  0.00    +0.000 OA
ATOM     19  H   UNL     1      -0.283   3.182  19.345  0.00  0.00    +0.000 HD
ENDBRANCH  17  18
ENDBRANCH   7  17
BRANCH   7  20
ATOM     20  C   UNL     1       2.182   6.356  20.952  0.00  0.00    +0.000 C 
BRANCH  20  21
ATOM     21  C   UNL     1       2.042   7.422  19.884  0.00  0.00    +0.000 A 
ATOM     22  C   UNL     1       2.686   7.286  18.646  0.00  0.00    +0.000 A 
ATOM     23  C   UNL     1       2.560   8.275  17.668  0.00  0.00    +0.000 A 
ATOM     24  C   UNL     1       1.777   9.401  17.909  0.00  0.00    +0.000 A 
ATOM     25  C   UNL     1       1.127   9.544  19.132  0.00  0.00    +0.000 A 
ATOM     26  C   UNL     1       1.259   8.561  20.114  0.00  0.00    +0.000 A 
ENDBRANCH  20  21
ENDBRANCH   7  20
TORSDOF 7
ENDMDL
MODEL 2
REMARK VINA RESULT:      -7.7      2.118      5.565
REMARK  Name = 
REMARK  7 active torsions:
REMARK  status: ('A' for Active; 'I' for Inactive)
REMARK    1  A    between atoms: N_6  and  C_7
REMARK    2  A    between atoms: C_7  and  C_8
REMARK    3  A    between atoms: C_8  and  C_9
REMARK    4  A    between atoms: C_15  and  C_16
REMARK    5  A    between atoms: C_15  and  C_18
REMARK    6  A    between atoms: C_16  and  O_17
REMARK    7  A    between atoms: C_18  and  C_19
REMARK                            x       y       z     vdW  Elec       q    Type
REMARK                         _______ _______ _______ _____ _____    ______ ____
ROOT
ATOM      1  C   UNL     1       1.540   5.129  19.962  0.00  0.00    +0.000 C 
ATOM      2  O   UNL     1       0.542   4.721  20.558  0.00  0.00    +0.000 OA
ATOM      3  N   UNL     1       2.034   4.489  18.832  0.00  0.00    +0.000 N 
ATOM      4  C   UNL     1       1.283   3.384  18.244  0.00  0.00    +0.000 C 
ATOM      5  C   UNL     1       2.153   2.132  18.182  0.00  0.00    +0.000 C 
ATOM      6  C   UNL     1       3.478   2.408  17.465  0.00  0.00    +0.000 C 
ATOM      7  C   UNL     1       4.234   3.666  17.987  0.00  0.00    +0.000 C 
ATOM      8  C   UNL     1       3.245   4.856  18.100  0.00  0.00    +0.000 C 
ENDROOT
BRANCH   1   9
ATOM      9  C   UNL     1       2.297   6.354  20.445  0.00  0.00    +0.000 C 
BRANCH   9  10
ATOM     10  C   UNL     1       1.340   7.494  20.775  0.00  0.00    +0.000 C 
BRANCH  10  16
ATOM     11  O   UNL     1      -0.153  10.034  20.762  0.00  0.00    +0.000 OA
ATOM     12  C   UNL     1       0.599   9.716  19.861  0.00  0.00    +0.000 C 
ATOM     13  C   UNL     1       0.796  10.482  18.572  0.00  0.00    +0.000 C 
ATOM     14  C   UNL     1       2.028   9.824  17.960  0.00  0.00    +0.000 C 
ATOM     15  C   UNL     1       1.981   8.404  18.492  0.00  0.00    +0.000 C 
ATOM     16  N   UNL     1       1.369   8.564  19.785  0.00  0.00    +0.000 N 
ENDBRANCH  10  16
ENDBRANCH   9  10
ENDBRANCH   1   9
BRANCH   7  17
ATOM     17  C   UNL     1       4.837   3.404  19.398  0.00  0.00    +0.000 C 
BRANCH  17  18
ATOM     18  O   UNL     1       5.140   2.030  19.615  0.00  0.00    +0.000 OA
ATOM     19  H   UNL     1       5.498   1.931  20.513  0.00  0.00    +0.000 HD
ENDBRANCH  17  18
ENDBRANCH   7  17
BRANCH   7  20
ATOM     20  C   UNL     1       5.418   4.038  17.037  0.00  0.00    +0.000 C 
BRANCH  20  21
ATOM     21  C   UNL     1       6.293   5.203  17.454  0.00  0.00    +0.000 A 
ATOM     22  C   UNL     1       6.125   6.470  16.877  0.00  0.00    +0.000 A 
ATOM     23  C   UNL     1       6.940   7.538  17.259  0.00  0.00    +0.000 A 
ATOM     24  C   UNL     1       7.919   7.357  18.233  0.00  0.00    +0.000 A 
ATOM     25  C   UNL     1       8.091   6.105  18.818  0.00  0.00    +0.000 A 
ATOM     26  C   UNL     1       7.284   5.034  18.431  0.00  0.00    +0.000 A 
ENDBRANCH  20  21
ENDBRANCH   7  20
TORSDOF 7
ENDMDL
MODEL 3
REMARK VINA RESULT:      -7.6      0.916      1.201
REMARK  Name = 
REMARK  7 active torsions:
REMARK  status: ('A' for Active; 'I' for Inactive)
REMARK    1  A    between atoms: N_6  and  C_7
REMARK    2  A    between atoms: C_7  and  C_8
REMARK    3  A    between atoms: C_8  and  C_9
REMARK    4  A    between atoms: C_15  and  C_16
REMARK    5  A    between atoms: C_15  and  C_18
REMARK    6  A    between atoms: C_16  and  O_17
REMARK    7  A    between atoms: C_18  and  C_19
REMARK                            x       y       z     vdW  Elec       q    Type
REMARK                         _______ _______ _______ _____ _____    ______ ____
ROOT
ATOM      1  C   UNL     1       4.164   2.989  17.955  0.00  0.00    +0.000 C 
ATOM      2  O   UNL     1       4.377   1.798  17.721  0.00  0.00    +0.000 OA
ATOM      3  N   UNL     1       3.943   3.456  19.245  0.00  0.00    +0.000 N 
ATOM      4  C   UNL     1       4.100   2.548  20.377  0.00  0.00    +0.000 C 
ATOM      5  C   UNL     1       2.809   2.488  21.185  0.00  0.00    +0.000 C 
ATOM      6  C   UNL     1       2.342   3.888  21.597  0.00  0.00    +0.000 C 
ATOM      7  C   UNL     1       2.297   4.914  20.426  0.00  0.00    +0.000 C 
ATOM      8  C   UNL     1       3.616   4.832  19.613  0.00  0.00    +0.000 C 
ENDROOT
BRANCH   1   9
ATOM      9  C   UNL     1       4.116   4.013  16.834  0.00  0.00    +0.000 C 
BRANCH   9  10
ATOM     10  C   UNL     1       5.499   4.227  16.229  0.00  0.00    +0.000 C 
BRANCH  10  16
ATOM     11  O   UNL     1       7.909   4.095  17.918  0.00  0.00    +0.000 OA
ATOM     12  C   UNL     1       7.348   5.143  17.665  0.00  0.00    +0.000 C 
ATOM     13  C   UNL     1       7.704   6.492  18.250  0.00  0.00    +0.000 C 
ATOM     14  C   UNL     1       6.906   7.467  17.390  0.00  0.00    +0.000 C 
ATOM     15  C   UNL     1       5.705   6.656  16.943  0.00  0.00    +0.000 C 
ATOM     16  N   UNL     1       6.232   5.318  16.859  0.00  0.00    +0.000 N 
ENDBRANCH  10  16
ENDBRANCH   9  10
ENDBRANCH   1   9
BRANCH   7  17
ATOM     17  C   UNL     1       1.115   4.601  19.462  0.00  0.00    +0.000 C 
BRANCH  17  18
ATOM     18  O   UNL     1       0.210   3.645  20.001  0.00  0.00    +0.000 OA
ATOM     19  H   UNL     1      -0.131   3.097  19.274  0.00  0.00    +0.000 HD
ENDBRANCH  17  18
ENDBRANCH   7  17
BRANCH   7  20
ATOM     20  C   UNL     1       2.085   6.366  20.965  0.00  0.00    +0.000 C 
BRANCH  20  21
ATOM     21  C   UNL     1       1.944   7.467  19.934  0.00  0.00    +0.000 A 
ATOM     22  C   UNL     1       2.534   7.346  18.667  0.00  0.00    +0.000 A 
ATOM     23  C   UNL     1       2.409   8.367  17.724  0.00  0.00    +0.000 A 
ATOM     24  C   UNL     1       1.679   9.514  18.029  0.00  0.00    +0.000 A 
ATOM     25  C   UNL     1       1.083   9.644  19.281  0.00  0.00    +0.000 A 
ATOM     26  C   UNL     1       1.215   8.628  20.228  0.00  0.00    +0.000 A 
ENDBRANCH  20  21
ENDBRANCH   7  20
TORSDOF 7
ENDMDL
MODEL 4
REMARK VINA RESULT:      -7.5      3.160      5.437
REMARK  Name = 
REMARK  7 active torsions:
REMARK  status: ('A' for Active; 'I' for Inactive)
REMARK    1  A    between atoms: N_6  and  C_7
REMARK    2  A    between atoms: C_7  and  C_8
REMARK    3  A    between atoms: C_8  and  C_9
REMARK    4  A    between atoms: C_15  and  C_16
REMARK    5  A    between atoms: C_15  and  C_18
REMARK    6  A    between atoms: C_16  and  O_17
REMARK    7  A    between atoms: C_18  and  C_19
REMARK                            x       y       z     vdW  Elec       q    Type
REMARK                         _______ _______ _______ _____ _____    ______ ____
ROOT
ATOM      1  C   UNL     1       6.933   5.007  15.128  0.00  0.00    +0.000 C 
ATOM      2  O   UNL     1       8.151   4.880  14.999  0.00  0.00    +0.000 OA
ATOM      3  N   UNL     1       6.372   5.630  16.237  0.00  0.00    +0.000 N 
ATOM      4  C   UNL     1       7.242   6.278  17.215  0.00  0.00    +0.000 C 
ATOM      5  C   UNL     1       7.004   5.686  18.601  0.00  0.00    +0.000 C 
ATOM      6  C   UNL     1       5.522   5.739  18.984  0.00  0.00    +0.000 C 
ATOM      7  C   UNL     1       4.562   5.176  17.894  0.00  0.00    +0.000 C 
ATOM      8  C   UNL     1       4.943   5.767  16.511  0.00  0.00    +0.000 C 
ENDROOT
BRANCH   1   9
ATOM      9  C   UNL     1       5.972   4.470  14.081  0.00  0.00    +0.000 C 
BRANCH   9  10
ATOM     10  C   UNL     1       6.594   4.519  12.691  0.00  0.00    +0.000 C 
BRANCH  10  16
ATOM     11  O   UNL     1       4.138   3.127  11.846  0.00  0.00    +0.000 OA
ATOM     12  C   UNL     1       5.247   2.675  11.639  0.00  0.00    +0.000 C 
ATOM     13  C   UNL     1       5.543   1.315  11.046  0.00  0.00    +0.000 C 
ATOM     14  C   UNL     1       7.035   1.385  10.740  0.00  0.00    +0.000 C 
ATOM     15  C   UNL     1       7.570   2.363  11.768  0.00  0.00    +0.000 C 
ATOM     16  N   UNL     1       6.462   3.261  11.966  0.00  0.00    +0.000 N 
ENDBRANCH  10  16
ENDBRANCH   9  10
ENDBRANCH   1   9
BRANCH   7  17
ATOM     17  C   UNL     1       4.675   3.626  17.805  0.00  0.00    +0.000 C 
BRANCH  17  18
ATOM     18  O   UNL     1       5.287   3.056  18.956  0.00  0.00    +0.000 OA
ATOM     19  H   UNL     1       6.105   3.545  19.146  0.00  0.00    +0.000 HD
ENDBRANCH  17  18
ENDBRANCH   7  17
BRANCH   7  20
ATOM     20  C   UNL     1       3.075   5.514  18.234  0.00  0.00    +0.000 C 
BRANCH  20  21
ATOM     21  C   UNL     1       2.362   4.587  19.198  0.00  0.00    +0.000 A 
ATOM     22  C   UNL     1       1.430   3.647  18.735  0.00  0.00    +0.000 A 
ATOM     23  C   UNL     1       0.771   2.801  19.628  0.00  0.00    +0.000 A 
ATOM     24  C   UNL     1       1.047   2.872  20.991  0.00  0.00    +0.000 A 
ATOM     25  C   UNL     1       1.976   3.796  21.463  0.00  0.00    +0.000 A 
ATOM     26  C   UNL     1       2.629   4.649  20.572  0.00  0.00    +0.000 A 
ENDBRANCH  20  21
ENDBRANCH   7  20
TORSDOF 7
ENDMDL
MODEL 5
REMARK VINA RESULT:      -7.5      2.263      5.781
REMARK  Name = 
REMARK  7 active torsions:
REMARK  status: ('A' for Active; 'I' for Inactive)
REMARK    1  A    between atoms: N_6  and  C_7
REMARK    2  A    between atoms: C_7  and  C_8
REMARK    3  A    between atoms: C_8  and  C_9
REMARK    4  A    between atoms: C_15  and  C_16
REMARK    5  A    between atoms: C_15  and  C_18
REMARK    6  A    between atoms: C_16  and  O_17
REMARK    7  A    between atoms: C_18  and  C_19
REMARK                            x       y       z     vdW  Elec       q    Type
REMARK                         _______ _______ _______ _____ _____    ______ ____
ROOT
ATOM      1  C   UNL     1       1.562   5.192  19.940  0.00  0.00    +0.000 C 
ATOM      2  O   UNL     1       0.545   4.808  20.519  0.00  0.00    +0.000 OA
ATOM      3  N   UNL     1       2.067   4.533  18.825  0.00  0.00    +0.000 N 
ATOM      4  C   UNL     1       1.307   3.437  18.231  0.00  0.00    +0.000 C 
ATOM      5  C   UNL     1       2.154   2.170  18.197  0.00  0.00    +0.000 C 
ATOM      6  C   UNL     1       3.499   2.415  17.506  0.00  0.00    +0.000 C 
ATOM      7  C   UNL     1       4.268   3.663  18.032  0.00  0.00    +0.000 C 
ATOM      8  C   UNL     1       3.298   4.872  18.115  0.00  0.00    +0.000 C 
ENDROOT
BRANCH   1   9
ATOM      9  C   UNL     1       2.331   6.408  20.428  0.00  0.00    +0.000 C 
BRANCH   9  10
ATOM     10  C   UNL     1       1.928   7.657  19.655  0.00  0.00    +0.000 C 
BRANCH  10  16
ATOM     11  O   UNL     1       0.488  10.080  18.796  0.00  0.00    +0.000 OA
ATOM     12  C   UNL     1       0.555   9.742  19.962  0.00  0.00    +0.000 C 
ATOM     13  C   UNL     1       0.036  10.539  21.138  0.00  0.00    +0.000 C 
ATOM     14  C   UNL     1       0.107   9.544  22.292  0.00  0.00    +0.000 C 
ATOM     15  C   UNL     1       1.247   8.622  21.905  0.00  0.00    +0.000 C 
ATOM     16  N   UNL     1       1.177   8.609  20.467  0.00  0.00    +0.000 N 
ENDBRANCH  10  16
ENDBRANCH   9  10
ENDBRANCH   1   9
BRANCH   7  17
ATOM     17  C   UNL     1       4.837   3.402  19.457  0.00  0.00    +0.000 C 
BRANCH  17  18
ATOM     18  O   UNL     1       5.189   2.038  19.662  0.00  0.00    +0.000 OA
ATOM     19  H   UNL     1       4.768   1.502  18.970  0.00  0.00    +0.000 HD
ENDBRANCH  17  18
ENDBRANCH   7  17
BRANCH   7  20
ATOM     20  C   UNL     1       5.477   4.004  17.104  0.00  0.00    +0.000 C 
BRANCH  20  21
ATOM     21  C   UNL     1       6.332   5.192  17.499  0.00  0.00    +0.000 A 
ATOM     22  C   UNL     1       6.211   6.419  16.830  0.00  0.00    +0.000 A 
ATOM     23  C   UNL     1       7.007   7.506  17.193  0.00  0.00    +0.000 A 
ATOM     24  C   UNL     1       7.920   7.387  18.237  0.00  0.00    +0.000 A 
ATOM     25  C   UNL     1       8.046   6.176  18.913  0.00  0.00    +0.000 A 
ATOM     26  C   UNL     1       7.257   5.085  18.546  0.00  0.00    +0.000 A 
ENDBRANCH  20  21
ENDBRANCH   7  20
TORSDOF 7
ENDMDL
MODEL 6
REMARK VINA RESULT:      -7.4      2.297      5.809
REMARK  Name = 
REMARK  7 active torsions:
REMARK  status: ('A' for Active; 'I' for Inactive)
REMARK    1  A    between atoms: N_6  and  C_7
REMARK    2  A    between atoms: C_7  and  C_8
REMARK    3  A    between atoms: C_8  and  C_9
REMARK    4  A    between atoms: C_15  and  C_16
REMARK    5  A    between atoms: C_15  and  C_18
REMARK    6  A    between atoms: C_16  and  O_17
REMARK    7  A    between atoms: C_18  and  C_19
REMARK                            x       y       z     vdW  Elec       q    Type
REMARK                         _______ _______ _______ _____ _____    ______ ____
ROOT
ATOM      1  C   UNL     1       1.503   5.338  19.898  0.00  0.00    +0.000 C 
ATOM      2  O   UNL     1       0.515   4.934  20.513  0.00  0.00    +0.000 OA
ATOM      3  N   UNL     1       2.019   4.653  18.804  0.00  0.00    +0.000 N 
ATOM      4  C   UNL     1       1.301   3.498  18.274  0.00  0.00    +0.000 C 
ATOM      5  C   UNL     1       2.206   2.270  18.280  0.00  0.00    +0.000 C 
ATOM      6  C   UNL     1       3.526   2.545  17.553  0.00  0.00    +0.000 C 
ATOM      7  C   UNL     1       4.245   3.850  18.009  0.00  0.00    +0.000 C 
ATOM      8  C   UNL     1       3.222   5.016  18.057  0.00  0.00    +0.000 C 
ENDROOT
BRANCH   1   9
ATOM      9  C   UNL     1       2.224   6.608  20.317  0.00  0.00    +0.000 C 
BRANCH   9  10
ATOM     10  C   UNL     1       1.286   7.548  21.066  0.00  0.00    +0.000 C 
BRANCH  10  16
ATOM     11  O   UNL     1       0.725  10.137  22.354  0.00  0.00    +0.000 OA
ATOM     12  C   UNL     1       0.902  10.031  21.156  0.00  0.00    +0.000 C 
ATOM     13  C   UNL     1       0.750  11.145  20.144  0.00  0.00    +0.000 C 
ATOM     14  C   UNL     1       1.364  10.555  18.880  0.00  0.00    +0.000 C 
ATOM     15  C   UNL     1       1.140   9.062  19.032  0.00  0.00    +0.000 C 
ATOM     16  N   UNL     1       1.202   8.870  20.457  0.00  0.00    +0.000 N 
ENDBRANCH  10  16
ENDBRANCH   9  10
ENDBRANCH   1   9
BRANCH   7  17
ATOM     17  C   UNL     1       4.849   3.679  19.433  0.00  0.00    +0.000 C 
BRANCH  17  18
ATOM     18  O   UNL     1       5.263   2.343  19.694  0.00  0.00    +0.000 OA
ATOM     19  H   UNL     1       4.654   1.736  19.241  0.00  0.00    +0.000 HD
ENDBRANCH  17  18
ENDBRANCH   7  17
BRANCH   7  20
ATOM     20  C   UNL     1       5.421   4.203  17.044  0.00  0.00    +0.000 C 
BRANCH  20  21
ATOM     21  C   UNL     1       6.323   5.351  17.453  0.00  0.00    +0.000 A 
ATOM     22  C   UNL     1       7.297   5.180  18.447  0.00  0.00    +0.000 A 
ATOM     23  C   UNL     1       8.119   6.243  18.826  0.00  0.00    +0.000 A 
ATOM     24  C   UNL     1       7.990   7.483  18.203  0.00  0.00    +0.000 A 
ATOM     25  C   UNL     1       7.032   7.663  17.209  0.00  0.00    +0.000 A 
ATOM     26  C   UNL     1       6.203   6.604  16.836  0.00  0.00    +0.000 A 
ENDBRANCH  20  21
ENDBRANCH   7  20
TORSDOF 7
ENDMDL
MODEL 7
REMARK VINA RESULT:      -7.3      3.156      5.423
REMARK  Name = 
REMARK  7 active torsions:
REMARK  status: ('A' for Active; 'I' for Inactive)
REMARK    1  A    between atoms: N_6  and  C_7
REMARK    2  A    between atoms: C_7  and  C_8
REMARK    3  A    between atoms: C_8  and  C_9
REMARK    4  A    between atoms: C_15  and  C_16
REMARK    5  A    between atoms: C_15  and  C_18
REMARK    6  A    between atoms: C_16  and  O_17
REMARK    7  A    between atoms: C_18  and  C_19
REMARK                            x       y       z     vdW  Elec       q    Type
REMARK                         _______ _______ _______ _____ _____    ______ ____
ROOT
ATOM      1  C   UNL     1       6.812   4.947  15.216  0.00  0.00    +0.000 C 
ATOM      2  O   UNL     1       8.018   4.774  15.035  0.00  0.00    +0.000 OA
ATOM      3  N   UNL     1       6.324   5.622  16.329  0.00  0.00    +0.000 N 
ATOM      4  C   UNL     1       7.259   6.268  17.246  0.00  0.00    +0.000 C 
ATOM      5  C   UNL     1       7.067   5.727  18.658  0.00  0.00    +0.000 C 
ATOM      6  C   UNL     1       5.607   5.843  19.107  0.00  0.00    +0.000 C 
ATOM      7  C   UNL     1       4.579   5.281  18.080  0.00  0.00    +0.000 C 
ATOM      8  C   UNL     1       4.915   5.817  16.663  0.00  0.00    +0.000 C 
ENDROOT
BRANCH   1   9
ATOM      9  C   UNL     1       5.786   4.413  14.231  0.00  0.00    +0.000 C 
BRANCH   9  10
ATOM     10  C   UNL     1       6.255   4.605  12.794  0.00  0.00    +0.000 C 
BRANCH  10  16
ATOM     11  O   UNL     1       4.013   3.051  11.680  0.00  0.00    +0.000 OA
ATOM     12  C   UNL     1       5.169   2.690  11.581  0.00  0.00    +0.000 C 
ATOM     13  C   UNL     1       5.629   1.371  10.998  0.00  0.00    +0.000 C 
ATOM     14  C   UNL     1       7.134   1.562  10.848  0.00  0.00    +0.000 C 
ATOM     15  C   UNL     1       7.484   2.553  11.941  0.00  0.00    +0.000 C 
ATOM     16  N   UNL     1       6.295   3.359  12.039  0.00  0.00    +0.000 N 
ENDBRANCH  10  16
ENDBRANCH   9  10
ENDBRANCH   1   9
BRANCH   7  17
ATOM     17  C   UNL     1       4.636   3.726  18.034  0.00  0.00    +0.000 C 
BRANCH  17  18
ATOM     18  O   UNL     1       5.267   3.170  19.182  0.00  0.00    +0.000 OA
ATOM     19  H   UNL     1       5.650   2.311  18.939  0.00  0.00    +0.000 HD
ENDBRANCH  17  18
ENDBRANCH   7  17
BRANCH   7  20
ATOM     20  C   UNL     1       3.121   5.681  18.476  0.00  0.00    +0.000 C 
BRANCH  20  21
ATOM     21  C   UNL     1       2.261   4.604  19.106  0.00  0.00    +0.000 A 
ATOM     22  C   UNL     1       2.193   4.462  20.499  0.00  0.00    +0.000 A 
ATOM     23  C   UNL     1       1.406   3.462  21.074  0.00  0.00    +0.000 A 
ATOM     24  C   UNL     1       0.664   2.605  20.265  0.00  0.00    +0.000 A 
ATOM     25  C   UNL     1       0.717   2.740  18.880  0.00  0.00    +0.000 A 
ATOM     26  C   UNL     1       1.511   3.733  18.303  0.00  0.00    +0.000 A 
ENDBRANCH  20  21
ENDBRANCH   7  20
TORSDOF 7
ENDMDL
MODEL 8
REMARK VINA RESULT:      -7.3      0.971      1.569
REMARK  Name = 
REMARK  7 active torsions:
REMARK  status: ('A' for Active; 'I' for Inactive)
REMARK    1  A    between atoms: N_6  and  C_7
REMARK    2  A    between atoms: C_7  and  C_8
REMARK    3  A    between atoms: C_8  and  C_9
REMARK    4  A    between atoms: C_15  and  C_16
REMARK    5  A    between atoms: C_15  and  C_18
REMARK    6  A    between atoms: C_16  and  O_17
REMARK    7  A    between atoms: C_18  and  C_19
REMARK                            x       y       z     vdW  Elec       q    Type
REMARK                         _______ _______ _______ _____ _____    ______ ____
ROOT
ATOM      1  C   UNL     1       4.267   3.276  17.745  0.00  0.00    +0.000 C 
ATOM      2  O   UNL     1       4.539   2.112  17.449  0.00  0.00    +0.000 OA
ATOM      3  N   UNL     1       4.061   3.671  19.062  0.00  0.00    +0.000 N 
ATOM      4  C   UNL     1       4.306   2.723  20.145  0.00  0.00    +0.000 C 
ATOM      5  C   UNL     1       3.045   2.552  20.987  0.00  0.00    +0.000 C 
ATOM      6  C   UNL     1       2.514   3.902  21.477  0.00  0.00    +0.000 C 
ATOM      7  C   UNL     1       2.373   4.976  20.358  0.00  0.00    +0.000 C 
ATOM      8  C   UNL     1       3.668   5.008  19.504  0.00  0.00    +0.000 C 
ENDROOT
BRANCH   1   9
ATOM      9  C   UNL     1       4.126   4.346  16.676  0.00  0.00    +0.000 C 
BRANCH   9  10
ATOM     10  C   UNL     1       5.466   4.636  16.012  0.00  0.00    +0.000 C 
BRANCH  10  16
ATOM     11  O   UNL     1       7.941   4.295  17.574  0.00  0.00    +0.000 OA
ATOM     12  C   UNL     1       7.389   5.371  17.456  0.00  0.00    +0.000 C 
ATOM     13  C   UNL     1       7.792   6.646  18.163  0.00  0.00    +0.000 C 
ATOM     14  C   UNL     1       6.978   7.717  17.445  0.00  0.00    +0.000 C 
ATOM     15  C   UNL     1       5.746   6.974  16.967  0.00  0.00    +0.000 C 
ATOM     16  N   UNL     1       6.244   5.645  16.721  0.00  0.00    +0.000 N 
ENDBRANCH  10  16
ENDBRANCH   9  10
ENDBRANCH   1   9
BRANCH   7  17
ATOM     17  C   UNL     1       1.181   4.639  19.415  0.00  0.00    +0.000 C 
BRANCH  17  18
ATOM     18  O   UNL     1       0.171   3.876  20.065  0.00  0.00    +0.000 OA
ATOM     19  H   UNL     1      -0.086   3.143  19.481  0.00  0.00    +0.000 HD
ENDBRANCH  17  18
ENDBRANCH   7  17
BRANCH   7  20
ATOM     20  C   UNL     1       2.096   6.387  20.971  0.00  0.00    +0.000 C 
BRANCH  20  21
ATOM     21  C   UNL     1       1.890   7.530  19.997  0.00  0.00    +0.000 A 
ATOM     22  C   UNL     1       1.119   8.646  20.353  0.00  0.00    +0.000 A 
ATOM     23  C   UNL     1       0.924   9.692  19.449  0.00  0.00    +0.000 A 
ATOM     24  C   UNL     1       1.512   9.643  18.187  0.00  0.00    +0.000 A 
ATOM     25  C   UNL     1       2.285   8.544  17.824  0.00  0.00    +0.000 A 
ATOM     26  C   UNL     1       2.473   7.493  18.723  0.00  0.00    +0.000 A 
ENDBRANCH  20  21
ENDBRANCH   7  20
TORSDOF 7
ENDMDL
MODEL 9
REMARK VINA RESULT:      -7.2      3.216      5.583
REMARK  Name = 
REMARK  7 active torsions:
REMARK  status: ('A' for Active; 'I' for Inactive)
REMARK    1  A    between atoms: N_6  and  C_7
REMARK    2  A    between atoms: C_7  and  C_8
REMARK    3  A    between atoms: C_8  and  C_9
REMARK    4  A    between atoms: C_15  and  C_16
REMARK    5  A    between atoms: C_15  and  C_18
REMARK    6  A    between atoms: C_16  and  O_17
REMARK    7  A    between atoms: C_18  and  C_19
REMARK                            x       y       z     vdW  Elec       q    Type
REMARK                         _______ _______ _______ _____ _____    ______ ____
ROOT
ATOM      1  C   UNL     1       6.734   4.890  15.193  0.00  0.00    +0.000 C 
ATOM      2  O   UNL     1       7.932   4.708  14.972  0.00  0.00    +0.000 OA
ATOM      3  N   UNL     1       6.290   5.569  16.322  0.00  0.00    +0.000 N 
ATOM      4  C   UNL     1       7.260   6.208  17.206  0.00  0.00    +0.000 C 
ATOM      5  C   UNL     1       7.112   5.669  18.625  0.00  0.00    +0.000 C 
ATOM      6  C   UNL     1       5.669   5.795  19.123  0.00  0.00    +0.000 C 
ATOM      7  C   UNL     1       4.603   5.240  18.132  0.00  0.00    +0.000 C 
ATOM      8  C   UNL     1       4.894   5.773  16.704  0.00  0.00    +0.000 C 
ENDROOT
BRANCH   1   9
ATOM      9  C   UNL     1       5.671   4.363  14.244  0.00  0.00    +0.000 C 
BRANCH   9  10
ATOM     10  C   UNL     1       6.303   3.751  13.000  0.00  0.00    +0.000 C 
BRANCH  10  16
ATOM     11  O   UNL     1       6.298   1.242  11.455  0.00  0.00    +0.000 OA
ATOM     12  C   UNL     1       5.425   2.080  11.340  0.00  0.00    +0.000 C 
ATOM     13  C   UNL     1       4.296   2.036  10.334  0.00  0.00    +0.000 C 
ATOM     14  C   UNL     1       3.358   3.139  10.815  0.00  0.00    +0.000 C 
ATOM     15  C   UNL     1       4.281   4.122  11.509  0.00  0.00    +0.000 C 
ATOM     16  N   UNL     1       5.316   3.273  12.039  0.00  0.00    +0.000 N 
ENDBRANCH  10  16
ENDBRANCH   9  10
ENDBRANCH   1   9
BRANCH   7  17
ATOM     17  C   UNL     1       4.648   3.685  18.085  0.00  0.00    +0.000 C 
BRANCH  17  18
ATOM     18  O   UNL     1       5.312   3.124  19.211  0.00  0.00    +0.000 OA
ATOM     19  H   UNL     1       4.832   3.384  20.015  0.00  0.00    +0.000 HD
ENDBRANCH  17  18
ENDBRANCH   7  17
BRANCH   7  20
ATOM     20  C   UNL     1       3.162   5.650  18.577  0.00  0.00    +0.000 C 
BRANCH  20  21
ATOM     21  C   UNL     1       2.387   4.645  19.406  0.00  0.00    +0.000 A 
ATOM     22  C   UNL     1       2.553   4.581  20.797  0.00  0.00    +0.000 A 
ATOM     23  C   UNL     1       1.843   3.647  21.554  0.00  0.00    +0.000 A 
ATOM     24  C   UNL     1       0.947   2.780  20.933  0.00  0.00    +0.000 A 
ATOM     25  C   UNL     1       0.768   2.838  19.554  0.00  0.00    +0.000 A 
ATOM     26  C   UNL     1       1.484   3.765  18.794  0.00  0.00    +0.000 A 
ENDBRANCH  20  21
ENDBRANCH   7  20
TORSDOF 7
ENDMDL
