MODEL 1
REMARK VINA RESULT:      -8.3      0.000      0.000
REMARK  Name = 
REMARK  4 active torsions:
REMARK  status: ('A' for Active; 'I' for Inactive)
REMARK    1  A    between atoms: C_1  and  C_2
REMARK    2  A    between atoms: C_5  and  C_6
REMARK    3  A    between atoms: C_7  and  C_8
REMARK    4  A    between atoms: C_8  and  N_9
REMARK                            x       y       z     vdW  Elec       q    Type
REMARK                         _______ _______ _______ _____ _____    ______ ____
ROOT
ATOM      1  N   UNL     1       4.182   5.093  17.891  0.00  0.00    +0.000 NA
ATOM      2  C   UNL     1       3.277   4.018  17.473  0.00  0.00    +0.000 C 
ATOM      3  C   UNL     1       1.786   4.144  17.810  0.00  0.00    +0.000 C 
ATOM      4  C   UNL     1       1.374   5.057  18.963  0.00  0.00    +0.000 C 
ATOM      5  C   UNL     1       2.343   6.189  19.365  0.00  0.00    +0.000 C 
ATOM      6  C   UNL     1       1.998   6.551  20.843  0.00  0.00    +0.000 C 
ATOM      7  C   UNL     1       1.519   7.995  20.881  0.00  0.00    +0.000 C 
ATOM      8  N   UNL     1       1.379   8.426  19.514  0.00  0.00    +0.000 N 
ATOM      9  C   UNL     1       0.728   9.538  19.011  0.00  0.00    +0.000 C 
ATOM     10  O   UNL     1       0.635   9.701  17.789  0.00  0.00    +0.000 OA
ATOM     11  N   UNL     1       0.116  10.436  19.886  0.00  0.00    +0.000 N 
ATOM     12  C   UNL     1      -0.783  11.438  19.281  0.00  0.00    +0.000 C 
ATOM     13  C   UNL     1      -1.762  12.016  20.313  0.00  0.00    +0.000 C 
ATOM     14  O   UNL     1      -1.080  12.538  21.466  0.00  0.00    +0.000 OA
ATOM     15  C   UNL     1      -0.275  11.517  22.069  0.00  0.00    +0.000 C 
ATOM     16  C   UNL     1       0.765  10.990  21.079  0.00  0.00    +0.000 C 
ATOM     17  C   UNL     1       2.148   7.545  18.637  0.00  0.00    +0.000 C 
ATOM     18  C   UNL     1       3.793   5.653  19.202  0.00  0.00    +0.000 C 
ENDROOT
BRANCH   1  19
ATOM     19  C   UNL     1       4.488   6.085  16.856  0.00  0.00    +0.000 C 
BRANCH  19  26
ATOM     20  C   UNL     1       5.512   4.102  14.219  0.00  0.00    +0.000 C 
ATOM     21  C   UNL     1       6.210   5.135  14.995  0.00  0.00    +0.000 A 
ATOM     22  N   UNL     1       7.497   5.384  14.675  0.00  0.00    +0.000 NA
ATOM     23  O   UNL     1       8.019   6.080  15.733  0.00  0.00    +0.000 OA
ATOM     24  C   UNL     1       7.046   6.283  16.645  0.00  0.00    +0.000 A 
ATOM     25  C   UNL     1       7.533   6.706  17.978  0.00  0.00    +0.000 C 
ATOM     26  C   UNL     1       5.810   5.899  16.145  0.00  0.00    +0.000 A 
ENDBRANCH  19  26
ENDBRANCH   1  19
TORSDOF 2
ENDMDL
MODEL 2
REMARK VINA RESULT:      -8.2      1.189      1.911
REMARK  Name = 
REMARK  4 active torsions:
REMARK  status: ('A' for Active; 'I' for Inactive)
REMARK    1  A    between atoms: C_1  and  C_2
REMARK    2  A    between atoms: C_5  and  C_6
REMARK    3  A    between atoms: C_7  and  C_8
REMARK    4  A    between atoms: C_8  and  N_9
REMARK                            x       y       z     vdW  Elec       q    Type
REMARK                         _______ _______ _______ _____ _____    ______ ____
ROOT
ATOM      1  N   UNL     1       4.065   4.381  18.675  0.00  0.00    +0.000 NA
ATOM      2  C   UNL     1       3.084   3.431  18.144  0.00  0.00    +0.000 C 
ATOM      3  C   UNL     1       1.602   3.827  18.148  0.00  0.00    +0.000 C 
ATOM      4  C   UNL     1       1.139   4.903  19.128  0.00  0.00    +0.000 C 
ATOM      5  C   UNL     1       2.195   5.898  19.653  0.00  0.00    +0.000 C 
ATOM      6  C   UNL     1       1.633   6.456  20.999  0.00  0.00    +0.000 C 
ATOM      7  C   UNL     1       1.420   7.954  20.844  0.00  0.00    +0.000 C 
ATOM      8  N   UNL     1       1.632   8.265  19.453  0.00  0.00    +0.000 N 
ATOM      9  C   UNL     1       1.302   9.412  18.755  0.00  0.00    +0.000 C 
ATOM     10  O   UNL     1       1.484   9.467  17.534  0.00  0.00    +0.000 OA
ATOM     11  N   UNL     1       0.699  10.479  19.422  0.00  0.00    +0.000 N 
ATOM     12  C   UNL     1       0.130  11.548  18.578  0.00  0.00    +0.000 C 
ATOM     13  C   UNL     1      -0.916  12.375  19.341  0.00  0.00    +0.000 C 
ATOM     14  O   UNL     1      -0.395  12.890  20.577  0.00  0.00    +0.000 OA
ATOM     15  C   UNL     1       0.081  11.819  21.399  0.00  0.00    +0.000 C 
ATOM     16  C   UNL     1       1.186  11.036  20.688  0.00  0.00    +0.000 C 
ATOM     17  C   UNL     1       2.392   7.190  18.817  0.00  0.00    +0.000 C 
ATOM     18  C   UNL     1       3.530   5.123  19.836  0.00  0.00    +0.000 C 
ENDROOT
BRANCH   1  19
ATOM     19  C   UNL     1       4.741   5.205  17.669  0.00  0.00    +0.000 C 
BRANCH  19  26
ATOM     20  C   UNL     1       7.727   5.688  19.337  0.00  0.00    +0.000 C 
ATOM     21  C   UNL     1       7.401   4.954  18.107  0.00  0.00    +0.000 A 
ATOM     22  N   UNL     1       8.420   4.355  17.456  0.00  0.00    +0.000 NA
ATOM     23  O   UNL     1       7.950   4.072  16.202  0.00  0.00    +0.000 OA
ATOM     24  C   UNL     1       6.657   4.453  16.124  0.00  0.00    +0.000 A 
ATOM     25  C   UNL     1       6.124   4.532  14.744  0.00  0.00    +0.000 C 
ATOM     26  C   UNL     1       6.174   4.824  17.370  0.00  0.00    +0.000 A 
ENDBRANCH  19  26
ENDBRANCH   1  19
TORSDOF 2
ENDMDL
MODEL 3
REMARK VINA RESULT:      -7.9      2.891      8.796
REMARK  Name = 
REMARK  4 active torsions:
REMARK  status: ('A' for Active; 'I' for Inactive)
REMARK    1  A    between atoms: C_1  and  C_2
REMARK    2  A    between atoms: C_5  and  C_6
REMARK    3  A    between atoms: C_7  and  C_8
REMARK    4  A    between atoms: C_8  and  N_9
REMARK                            x       y       z     vdW  Elec       q    Type
REMARK                         _______ _______ _______ _____ _____    ______ ____
ROOT
ATOM      1  N   UNL     1       0.658  12.133  19.755  0.00  0.00    +0.000 NA
ATOM      2  C   UNL     1      -0.744  12.118  19.327  0.00  0.00    +0.000 C 
ATOM      3  C   UNL     1      -1.312  10.827  18.725  0.00  0.00    +0.000 C 
ATOM      4  C   UNL     1      -0.341   9.815  18.121  0.00  0.00    +0.000 C 
ATOM      5  C   UNL     1       1.124   9.848  18.607  0.00  0.00    +0.000 C 
ATOM      6  C   UNL     1       1.971   9.182  17.477  0.00  0.00    +0.000 C 
ATOM      7  C   UNL     1       2.620   7.928  18.043  0.00  0.00    +0.000 C 
ATOM      8  N   UNL     1       2.055   7.719  19.352  0.00  0.00    +0.000 N 
ATOM      9  C   UNL     1       2.106   6.593  20.154  0.00  0.00    +0.000 C 
ATOM     10  O   UNL     1       1.482   6.565  21.221  0.00  0.00    +0.000 OA
ATOM     11  N   UNL     1       2.804   5.465  19.721  0.00  0.00    +0.000 N 
ATOM     12  C   UNL     1       2.590   4.223  20.488  0.00  0.00    +0.000 C 
ATOM     13  C   UNL     1       2.971   2.980  19.670  0.00  0.00    +0.000 C 
ATOM     14  O   UNL     1       4.310   3.066  19.156  0.00  0.00    +0.000 OA
ATOM     15  C   UNL     1       4.459   4.246  18.357  0.00  0.00    +0.000 C 
ATOM     16  C   UNL     1       4.167   5.501  19.181  0.00  0.00    +0.000 C 
ATOM     17  C   UNL     1       1.456   8.961  19.835  0.00  0.00    +0.000 C 
ATOM     18  C   UNL     1       1.511  11.334  18.851  0.00  0.00    +0.000 C 
ENDROOT
BRANCH   1  19
ATOM     19  C   UNL     1       0.874  11.897  21.185  0.00  0.00    +0.000 C 
BRANCH  19  26
ATOM     20  C   UNL     1      -0.715  14.520  22.773  0.00  0.00    +0.000 C 
ATOM     21  C   UNL     1      -1.062  13.099  22.645  0.00  0.00    +0.000 A 
ATOM     22  N   UNL     1      -2.189  12.681  23.258  0.00  0.00    +0.000 NA
ATOM     23  O   UNL     1      -2.103  11.316  23.313  0.00  0.00    +0.000 OA
ATOM     24  C   UNL     1      -0.965  10.926  22.700  0.00  0.00    +0.000 A 
ATOM     25  C   UNL     1      -0.566   9.528  22.982  0.00  0.00    +0.000 C 
ATOM     26  C   UNL     1      -0.358  11.994  22.056  0.00  0.00    +0.000 A 
ENDBRANCH  19  26
ENDBRANCH   1  19
TORSDOF 2
ENDMDL
MODEL 4
REMARK VINA RESULT:      -7.9      1.160      1.310
REMARK  Name = 
REMARK  4 active torsions:
REMARK  status: ('A' for Active; 'I' for Inactive)
REMARK    1  A    between atoms: C_1  and  C_2
REMARK    2  A    between atoms: C_5  and  C_6
REMARK    3  A    between atoms: C_7  and  C_8
REMARK    4  A    between atoms: C_8  and  N_9
REMARK                            x       y       z     vdW  Elec       q    Type
REMARK                         _______ _______ _______ _____ _____    ______ ____
ROOT
ATOM      1  N   UNL     1       4.190   4.463  17.500  0.00  0.00    +0.000 NA
ATOM      2  C   UNL     1       3.200   3.622  16.822  0.00  0.00    +0.000 C 
ATOM      3  C   UNL     1       1.728   3.743  17.238  0.00  0.00    +0.000 C 
ATOM      4  C   UNL     1       1.406   4.301  18.622  0.00  0.00    +0.000 C 
ATOM      5  C   UNL     1       2.464   5.198  19.299  0.00  0.00    +0.000 C 
ATOM      6  C   UNL     1       2.172   5.132  20.831  0.00  0.00    +0.000 C 
ATOM      7  C   UNL     1       1.803   6.529  21.307  0.00  0.00    +0.000 C 
ATOM      8  N   UNL     1       1.673   7.351  20.132  0.00  0.00    +0.000 N 
ATOM      9  C   UNL     1       1.099   8.603  20.002  0.00  0.00    +0.000 C 
ATOM     10  O   UNL     1       0.998   9.124  18.885  0.00  0.00    +0.000 OA
ATOM     11  N   UNL     1       0.571   9.243  21.123  0.00  0.00    +0.000 N 
ATOM     12  C   UNL     1      -0.260  10.436  20.872  0.00  0.00    +0.000 C 
ATOM     13  C   UNL     1      -1.176  10.749  22.065  0.00  0.00    +0.000 C 
ATOM     14  O   UNL     1      -0.437  10.862  23.293  0.00  0.00    +0.000 OA
ATOM     15  C   UNL     1       0.299   9.658  23.540  0.00  0.00    +0.000 C 
ATOM     16  C   UNL     1       1.280   9.377  22.400  0.00  0.00    +0.000 C 
ATOM     17  C   UNL     1       2.359   6.717  19.008  0.00  0.00    +0.000 C 
ATOM     18  C   UNL     1       3.867   4.638  18.931  0.00  0.00    +0.000 C 
ENDROOT
BRANCH   1  19
ATOM     19  C   UNL     1       4.553   5.693  16.790  0.00  0.00    +0.000 C 
BRANCH  19  26
ATOM     20  C   UNL     1       5.740   4.000  14.023  0.00  0.00    +0.000 C 
ATOM     21  C   UNL     1       6.351   5.025  14.879  0.00  0.00    +0.000 A 
ATOM     22  N   UNL     1       7.614   5.399  14.590  0.00  0.00    +0.000 NA
ATOM     23  O   UNL     1       8.076   6.054  15.701  0.00  0.00    +0.000 OA
ATOM     24  C   UNL     1       7.086   6.110  16.616  0.00  0.00    +0.000 A 
ATOM     25  C   UNL     1       7.534   6.471  17.981  0.00  0.00    +0.000 C 
ATOM     26  C   UNL     1       5.887   5.667  16.078  0.00  0.00    +0.000 A 
ENDBRANCH  19  26
ENDBRANCH   1  19
TORSDOF 2
ENDMDL
MODEL 5
REMARK VINA RESULT:      -7.6      1.565      2.180
REMARK  Name = 
REMARK  4 active torsions:
REMARK  status: ('A' for Active; 'I' for Inactive)
REMARK    1  A    between atoms: C_1  and  C_2
REMARK    2  A    between atoms: C_5  and  C_6
REMARK    3  A    between atoms: C_7  and  C_8
REMARK    4  A    between atoms: C_8  and  N_9
REMARK                            x       y       z     vdW  Elec       q    Type
REMARK                         _______ _______ _______ _____ _____    ______ ____
ROOT
ATOM      1  N   UNL     1       3.933   3.562  18.130  0.00  0.00    +0.000 NA
ATOM      2  C   UNL     1       2.906   2.801  17.414  0.00  0.00    +0.000 C 
ATOM      3  C   UNL     1       1.440   3.228  17.565  0.00  0.00    +0.000 C 
ATOM      4  C   UNL     1       1.041   4.042  18.793  0.00  0.00    +0.000 C 
ATOM      5  C   UNL     1       2.145   4.845  19.511  0.00  0.00    +0.000 C 
ATOM      6  C   UNL     1       1.638   5.070  20.971  0.00  0.00    +0.000 C 
ATOM      7  C   UNL     1       1.476   6.566  21.195  0.00  0.00    +0.000 C 
ATOM      8  N   UNL     1       1.665   7.204  19.917  0.00  0.00    +0.000 N 
ATOM      9  C   UNL     1       1.361   8.497  19.533  0.00  0.00    +0.000 C 
ATOM     10  O   UNL     1       1.514   8.846  18.357  0.00  0.00    +0.000 OA
ATOM     11  N   UNL     1       0.813   9.384  20.461  0.00  0.00    +0.000 N 
ATOM     12  C   UNL     1       0.263  10.644  19.924  0.00  0.00    +0.000 C 
ATOM     13  C   UNL     1      -0.732  11.288  20.900  0.00  0.00    +0.000 C 
ATOM     14  O   UNL     1      -0.162  11.468  22.207  0.00  0.00    +0.000 OA
ATOM     15  C   UNL     1       0.294  10.213  22.726  0.00  0.00    +0.000 C 
ATOM     16  C   UNL     1       1.352   9.597  21.808  0.00  0.00    +0.000 C 
ATOM     17  C   UNL     1       2.369   6.297  19.012  0.00  0.00    +0.000 C 
ATOM     18  C   UNL     1       3.455   4.010  19.454  0.00  0.00    +0.000 C 
ENDROOT
BRANCH   1  19
ATOM     19  C   UNL     1       4.614   4.587  17.334  0.00  0.00    +0.000 C 
BRANCH  19  26
ATOM     20  C   UNL     1       7.150   5.472  19.506  0.00  0.00    +0.000 C 
ATOM     21  C   UNL     1       7.167   4.767  18.218  0.00  0.00    +0.000 A 
ATOM     22  N   UNL     1       8.369   4.390  17.736  0.00  0.00    +0.000 NA
ATOM     23  O   UNL     1       8.170   4.105  16.411  0.00  0.00    +0.000 OA
ATOM     24  C   UNL     1       6.862   4.265  16.123  0.00  0.00    +0.000 A 
ATOM     25  C   UNL     1       6.558   4.333  14.675  0.00  0.00    +0.000 C 
ATOM     26  C   UNL     1       6.121   4.474  17.277  0.00  0.00    +0.000 A 
ENDBRANCH  19  26
ENDBRANCH   1  19
TORSDOF 2
ENDMDL
MODEL 6
REMARK VINA RESULT:      -7.5      2.840      8.887
REMARK  Name = 
REMARK  4 active torsions:
REMARK  status: ('A' for Active; 'I' for Inactive)
REMARK    1  A    between atoms: C_1  and  C_2
REMARK    2  A    between atoms: C_5  and  C_6
REMARK    3  A    between atoms: C_7  and  C_8
REMARK    4  A    between atoms: C_8  and  N_9
REMARK                            x       y       z     vdW  Elec       q    Type
REMARK                         _______ _______ _______ _____ _____    ______ ____
ROOT
ATOM      1  N   UNL     1       0.193  11.828  19.706  0.00  0.00    +0.000 NA
ATOM      2  C   UNL     1      -1.124  11.692  19.077  0.00  0.00    +0.000 C 
ATOM      3  C   UNL     1      -1.455  10.386  18.344  0.00  0.00    +0.000 C 
ATOM      4  C   UNL     1      -0.302   9.516  17.849  0.00  0.00    +0.000 C 
ATOM      5  C   UNL     1       1.066   9.672  18.546  0.00  0.00    +0.000 C 
ATOM      6  C   UNL     1       2.133   9.163  17.527  0.00  0.00    +0.000 C 
ATOM      7  C   UNL     1       2.830   7.952  18.130  0.00  0.00    +0.000 C 
ATOM      8  N   UNL     1       2.112   7.612  19.331  0.00  0.00    +0.000 N 
ATOM      9  C   UNL     1       2.173   6.454  20.085  0.00  0.00    +0.000 C 
ATOM     10  O   UNL     1       1.410   6.301  21.046  0.00  0.00    +0.000 OA
ATOM     11  N   UNL     1       3.045   5.430  19.714  0.00  0.00    +0.000 N 
ATOM     12  C   UNL     1       2.863   4.130  20.389  0.00  0.00    +0.000 C 
ATOM     13  C   UNL     1       3.492   2.982  19.585  0.00  0.00    +0.000 C 
ATOM     14  O   UNL     1       4.872   3.236  19.277  0.00  0.00    +0.000 OA
ATOM     15  C   UNL     1       5.001   4.468  18.558  0.00  0.00    +0.000 C 
ATOM     16  C   UNL     1       4.458   5.638  19.382  0.00  0.00    +0.000 C 
ATOM     17  C   UNL     1       1.316   8.756  19.772  0.00  0.00    +0.000 C 
ATOM     18  C   UNL     1       1.248  11.173  18.905  0.00  0.00    +0.000 C 
ENDROOT
BRANCH   1  19
ATOM     19  C   UNL     1       0.229  11.535  21.141  0.00  0.00    +0.000 C 
BRANCH  19  26
ATOM     20  C   UNL     1      -2.573  12.051  23.095  0.00  0.00    +0.000 C 
ATOM     21  C   UNL     1      -1.341  12.833  22.924  0.00  0.00    +0.000 A 
ATOM     22  N   UNL     1      -1.240  13.985  23.619  0.00  0.00    +0.000 NA
ATOM     23  O   UNL     1      -0.222  14.689  23.033  0.00  0.00    +0.000 OA
ATOM     24  C   UNL     1       0.304  13.946  22.036  0.00  0.00    +0.000 A 
ATOM     25  C   UNL     1       1.166  14.703  21.098  0.00  0.00    +0.000 C 
ATOM     26  C   UNL     1      -0.215  12.660  22.049  0.00  0.00    +0.000 A 
ENDBRANCH  19  26
ENDBRANCH   1  19
TORSDOF 2
ENDMDL
MODEL 7
REMARK VINA RESULT:      -7.5      2.700      8.775
REMARK  Name = 
REMARK  4 active torsions:
REMARK  status: ('A' for Active; 'I' for Inactive)
REMARK    1  A    between atoms: C_1  and  C_2
REMARK    2  A    between atoms: C_5  and  C_6
REMARK    3  A    between atoms: C_7  and  C_8
REMARK    4  A    between atoms: C_8  and  N_9
REMARK                            x       y       z     vdW  Elec       q    Type
REMARK                         _______ _______ _______ _____ _____    ______ ____
ROOT
ATOM      1  N   UNL     1      -1.380  11.917  19.578  0.00  0.00    +0.000 NA
ATOM      2  C   UNL     1      -0.591  13.105  19.915  0.00  0.00    +0.000 C 
ATOM      3  C   UNL     1       0.899  12.928  20.235  0.00  0.00    +0.000 C 
ATOM      4  C   UNL     1       1.387  11.556  20.695  0.00  0.00    +0.000 C 
ATOM      5  C   UNL     1       0.541  10.325  20.307  0.00  0.00    +0.000 C 
ATOM      6  C   UNL     1       0.897   9.211  21.340  0.00  0.00    +0.000 C 
ATOM      7  C   UNL     1       1.531   8.049  20.590  0.00  0.00    +0.000 C 
ATOM      8  N   UNL     1       1.742   8.491  19.235  0.00  0.00    +0.000 N 
ATOM      9  C   UNL     1       2.520   7.922  18.243  0.00  0.00    +0.000 C 
ATOM     10  O   UNL     1       2.653   8.496  17.156  0.00  0.00    +0.000 OA
ATOM     11  N   UNL     1       3.211   6.738  18.498  0.00  0.00    +0.000 N 
ATOM     12  C   UNL     1       4.225   6.337  17.503  0.00  0.00    +0.000 C 
ATOM     13  C   UNL     1       5.243   5.353  18.098  0.00  0.00    +0.000 C 
ATOM     14  O   UNL     1       4.602   4.214  18.694  0.00  0.00    +0.000 OA
ATOM     15  C   UNL     1       3.679   4.637  19.705  0.00  0.00    +0.000 C 
ATOM     16  C   UNL     1       2.605   5.551  19.112  0.00  0.00    +0.000 C 
ATOM     17  C   UNL     1       0.897   9.650  18.957  0.00  0.00    +0.000 C 
ATOM     18  C   UNL     1      -0.956  10.740  20.365  0.00  0.00    +0.000 C 
ENDROOT
BRANCH   1  19
ATOM     19  C   UNL     1      -1.557  11.675  18.143  0.00  0.00    +0.000 C 
BRANCH  19  26
ATOM     20  C   UNL     1      -4.604  12.304  19.644  0.00  0.00    +0.000 C 
ATOM     21  C   UNL     1      -4.249  11.929  18.269  0.00  0.00    +0.000 A 
ATOM     22  N   UNL     1      -5.262  11.767  17.392  0.00  0.00    +0.000 NA
ATOM     23  O   UNL     1      -4.733  11.082  16.330  0.00  0.00    +0.000 OA
ATOM     24  C   UNL     1      -3.417  10.882  16.551  0.00  0.00    +0.000 A 
ATOM     25  C   UNL     1      -2.795   9.866  15.671  0.00  0.00    +0.000 C 
ATOM     26  C   UNL     1      -2.989  11.586  17.668  0.00  0.00    +0.000 A 
ENDBRANCH  19  26
ENDBRANCH   1  19
TORSDOF 2
ENDMDL
MODEL 8
REMARK VINA RESULT:      -7.4      0.497      1.582
REMARK  Name = 
REMARK  4 active torsions:
REMARK  status: ('A' for Active; 'I' for Inactive)
REMARK    1  A    between atoms: C_1  and  C_2
REMARK    2  A    between atoms: C_5  and  C_6
REMARK    3  A    between atoms: C_7  and  C_8
REMARK    4  A    between atoms: C_8  and  N_9
REMARK                            x       y       z     vdW  Elec       q    Type
REMARK                         _______ _______ _______ _____ _____    ______ ____
ROOT
ATOM      1  N   UNL     1       4.126   4.874  18.106  0.00  0.00    +0.000 NA
ATOM      2  C   UNL     1       3.206   3.815  17.682  0.00  0.00    +0.000 C 
ATOM      3  C   UNL     1       1.709   3.984  17.974  0.00  0.00    +0.000 C 
ATOM      4  C   UNL     1       1.289   4.927  19.099  0.00  0.00    +0.000 C 
ATOM      5  C   UNL     1       2.275   6.042  19.507  0.00  0.00    +0.000 C 
ATOM      6  C   UNL     1       1.898   6.440  20.969  0.00  0.00    +0.000 C 
ATOM      7  C   UNL     1       1.454   7.896  20.968  0.00  0.00    +0.000 C 
ATOM      8  N   UNL     1       1.363   8.304  19.589  0.00  0.00    +0.000 N 
ATOM      9  C   UNL     1       0.755   9.423  19.049  0.00  0.00    +0.000 C 
ATOM     10  O   UNL     1       0.700   9.566  17.823  0.00  0.00    +0.000 OA
ATOM     11  N   UNL     1       0.142  10.352  19.890  0.00  0.00    +0.000 N 
ATOM     12  C   UNL     1      -0.714  11.365  19.243  0.00  0.00    +0.000 C 
ATOM     13  C   UNL     1      -1.707  11.986  20.237  0.00  0.00    +0.000 C 
ATOM     14  O   UNL     1      -1.044  12.511  21.399  0.00  0.00    +0.000 OA
ATOM     15  C   UNL     1      -0.282  11.483  22.042  0.00  0.00    +0.000 C 
ATOM     16  C   UNL     1       0.772  10.912  21.091  0.00  0.00    +0.000 C 
ATOM     17  C   UNL     1       2.135   7.389  18.751  0.00  0.00    +0.000 C 
ATOM     18  C   UNL     1       3.715   5.468  19.395  0.00  0.00    +0.000 C 
ENDROOT
BRANCH   1  19
ATOM     19  C   UNL     1       4.485   5.838  17.063  0.00  0.00    +0.000 C 
BRANCH  19  26
ATOM     20  C   UNL     1       7.457   7.555  17.450  0.00  0.00    +0.000 C 
ATOM     21  C   UNL     1       7.121   6.340  16.699  0.00  0.00    +0.000 A 
ATOM     22  N   UNL     1       8.112   5.754  15.995  0.00  0.00    +0.000 NA
ATOM     23  O   UNL     1       7.497   4.900  15.119  0.00  0.00    +0.000 OA
ATOM     24  C   UNL     1       6.165   4.943  15.331  0.00  0.00    +0.000 A 
ATOM     25  C   UNL     1       5.352   4.349  14.244  0.00  0.00    +0.000 C 
ATOM     26  C   UNL     1       5.867   5.675  16.471  0.00  0.00    +0.000 A 
ENDBRANCH  19  26
ENDBRANCH   1  19
TORSDOF 2
ENDMDL
MODEL 9
REMARK VINA RESULT:      -7.2      1.597      1.826
REMARK  Name = 
REMARK  4 active torsions:
REMARK  status: ('A' for Active; 'I' for Inactive)
REMARK    1  A    between atoms: C_1  and  C_2
REMARK    2  A    between atoms: C_5  and  C_6
REMARK    3  A    between atoms: C_7  and  C_8
REMARK    4  A    between atoms: C_8  and  N_9
REMARK                            x       y       z     vdW  Elec       q    Type
REMARK                         _______ _______ _______ _____ _____    ______ ____
ROOT
ATOM      1  N   UNL     1       4.708   3.596  18.573  0.00  0.00    +0.000 NA
ATOM      2  C   UNL     1       4.013   3.029  17.415  0.00  0.00    +0.000 C 
ATOM      3  C   UNL     1       2.589   3.509  17.106  0.00  0.00    +0.000 C 
ATOM      4  C   UNL     1       1.768   4.127  18.235  0.00  0.00    +0.000 C 
ATOM      5  C   UNL     1       2.533   4.731  19.432  0.00  0.00    +0.000 C 
ATOM      6  C   UNL     1       1.530   4.736  20.629  0.00  0.00    +0.000 C 
ATOM      7  C   UNL     1       1.289   6.179  21.044  0.00  0.00    +0.000 C 
ATOM      8  N   UNL     1       1.923   7.011  20.053  0.00  0.00    +0.000 N 
ATOM      9  C   UNL     1       1.770   8.366  19.824  0.00  0.00    +0.000 C 
ATOM     10  O   UNL     1       2.335   8.899  18.862  0.00  0.00    +0.000 OA
ATOM     11  N   UNL     1       0.918   9.114  20.637  0.00  0.00    +0.000 N 
ATOM     12  C   UNL     1       0.591  10.477  20.174  0.00  0.00    +0.000 C 
ATOM     13  C   UNL     1      -0.694  11.004  20.829  0.00  0.00    +0.000 C 
ATOM     14  O   UNL     1      -0.636  10.927  22.263  0.00  0.00    +0.000 OA
ATOM     15  C   UNL     1      -0.390   9.578  22.677  0.00  0.00    +0.000 C 
ATOM     16  C   UNL     1       0.932   9.065  22.103  0.00  0.00    +0.000 C 
ATOM     17  C   UNL     1       2.912   6.230  19.312  0.00  0.00    +0.000 C 
ATOM     18  C   UNL     1       3.780   3.842  19.697  0.00  0.00    +0.000 C 
ENDROOT
BRANCH   1  19
ATOM     19  C   UNL     1       5.623   4.700  18.270  0.00  0.00    +0.000 C 
BRANCH  19  26
ATOM     20  C   UNL     1       6.511   3.547  15.137  0.00  0.00    +0.000 C 
ATOM     21  C   UNL     1       5.804   4.760  15.570  0.00  0.00    +0.000 A 
ATOM     22  N   UNL     1       5.426   5.629  14.610  0.00  0.00    +0.000 NA
ATOM     23  O   UNL     1       5.139   6.802  15.257  0.00  0.00    +0.000 OA
ATOM     24  C   UNL     1       5.299   6.617  16.585  0.00  0.00    +0.000 A 
ATOM     25  C   UNL     1       5.365   7.869  17.373  0.00  0.00    +0.000 C 
ATOM     26  C   UNL     1       5.510   5.278  16.877  0.00  0.00    +0.000 A 
ENDBRANCH  19  26
ENDBRANCH   1  19
TORSDOF 2
ENDMDL
