MODEL 1
REMARK VINA RESULT:      -8.5      0.000      0.000
REMARK  Name = 
REMARK  8 active torsions:
REMARK  status: ('A' for Active; 'I' for Inactive)
REMARK    1  A    between atoms: O_1  and  C_2
REMARK    2  A    between atoms: C_5  and  O_6
REMARK    3  A    between atoms: O_6  and  C_7
REMARK    4  A    between atoms: C_7  and  N_9
REMARK    5  A    between atoms: N_9  and  C_10
REMARK    6  A    between atoms: C_13  and  N_14
REMARK    7  A    between atoms: N_14  and  C_15
REMARK    8  A    between atoms: C_18  and  C_19
REMARK                            x       y       z     vdW  Elec       q    Type
REMARK                         _______ _______ _______ _____ _____    ______ ____
ROOT
ATOM      1  C   UNL     1       2.438   7.081  19.709  0.00  0.00    +0.000 A 
ATOM      2  C   UNL     1       2.601   7.443  18.368  0.00  0.00    +0.000 A 
ATOM      3  C   UNL     1       1.954   8.574  17.859  0.00  0.00    +0.000 A 
ATOM      4  C   UNL     1       1.154   9.364  18.685  0.00  0.00    +0.000 A 
ATOM      5  C   UNL     1       1.013   9.001  20.032  0.00  0.00    +0.000 A 
ATOM      6  C   UNL     1       1.634   7.857  20.537  0.00  0.00    +0.000 A 
ENDROOT
BRANCH   1   7
ATOM      7  N   UNL     1       2.980   5.896  20.230  0.00  0.00    +0.000 N 
ATOM      8  H   UNL     1       3.652   5.980  20.984  0.00  0.00    +0.000 HD
BRANCH   7   9
ATOM      9  C   UNL     1       2.657   4.616  19.870  0.00  0.00    +0.000 C 
ATOM     10  S   UNL     1       1.189   3.945  20.272  0.00  0.00    +0.000 S 
BRANCH   9  11
ATOM     11  O   UNL     1       3.679   3.928  19.203  0.00  0.00    +0.000 OA
BRANCH  11  15
ATOM     12  C   UNL     1       6.572   5.108  16.420  0.00  0.00    +0.000 A 
ATOM     13  C   UNL     1       6.885   5.032  17.778  0.00  0.00    +0.000 A 
ATOM     14  C   UNL     1       5.899   4.646  18.685  0.00  0.00    +0.000 A 
ATOM     15  C   UNL     1       4.617   4.349  18.216  0.00  0.00    +0.000 A 
ATOM     16  C   UNL     1       4.325   4.363  16.857  0.00  0.00    +0.000 A 
ATOM     17  C   UNL     1       5.307   4.769  15.955  0.00  0.00    +0.000 A 
BRANCH  12  18
ATOM     18  O   UNL     1       7.500   5.500  15.500  0.00  0.00    +0.000 OA
ATOM     19  H   UNL     1       8.271   5.854  15.968  0.00  0.00    +0.000 HD
ENDBRANCH  12  18
ENDBRANCH  11  15
ENDBRANCH   9  11
ENDBRANCH   7   9
ENDBRANCH   1   7
BRANCH   4  20
ATOM     20  N   UNL     1       0.468  10.475  18.159  0.00  0.00    +0.000 N 
ATOM     21  H   UNL     1       0.950  10.941  17.396  0.00  0.00    +0.000 HD
BRANCH  20  22
ATOM     22  C   UNL     1      -0.923  10.698  18.126  0.00  0.00    +0.000 A 
ATOM     23  C   UNL     1      -1.464  11.723  18.908  0.00  0.00    +0.000 A 
ATOM     24  C   UNL     1      -2.839  11.972  18.908  0.00  0.00    +0.000 A 
ATOM     25  C   UNL     1      -3.703  11.211  18.109  0.00  0.00    +0.000 A 
ATOM     26  C   UNL     1      -3.163  10.176  17.333  0.00  0.00    +0.000 A 
ATOM     27  C   UNL     1      -1.790   9.922  17.345  0.00  0.00    +0.000 A 
BRANCH  25  28
ATOM     28  C   UNL     1      -5.182  11.499  18.050  0.00  0.00    +0.000 C 
ATOM     29  F   UNL     1      -5.579  12.082  16.885  0.00  0.00    +0.000 F 
ATOM     30  F   UNL     1      -5.932  10.369  18.173  0.00  0.00    +0.000 F 
ATOM     31  F   UNL     1      -5.592  12.331  19.046  0.00  0.00    +0.000 F 
ENDBRANCH  25  28
ENDBRANCH  20  22
ENDBRANCH   4  20
TORSDOF 8
ENDMDL
MODEL 2
REMARK VINA RESULT:      -8.4      0.603      1.333
REMARK  Name = 
REMARK  8 active torsions:
REMARK  status: ('A' for Active; 'I' for Inactive)
REMARK    1  A    between atoms: O_1  and  C_2
REMARK    2  A    between atoms: C_5  and  O_6
REMARK    3  A    between atoms: O_6  and  C_7
REMARK    4  A    between atoms: C_7  and  N_9
REMARK    5  A    between atoms: N_9  and  C_10
REMARK    6  A    between atoms: C_13  and  N_14
REMARK    7  A    between atoms: N_14  and  C_15
REMARK    8  A    between atoms: C_18  and  C_19
REMARK                            x       y       z     vdW  Elec       q    Type
REMARK                         _______ _______ _______ _____ _____    ______ ____
ROOT
ATOM      1  C   UNL     1       2.414   7.022  19.668  0.00  0.00    +0.000 A 
ATOM      2  C   UNL     1       2.518   7.360  18.315  0.00  0.00    +0.000 A 
ATOM      3  C   UNL     1       1.896   8.514  17.827  0.00  0.00    +0.000 A 
ATOM      4  C   UNL     1       1.178   9.348  18.684  0.00  0.00    +0.000 A 
ATOM      5  C   UNL     1       1.095   9.007  20.042  0.00  0.00    +0.000 A 
ATOM      6  C   UNL     1       1.691   7.842  20.527  0.00  0.00    +0.000 A 
ENDROOT
BRANCH   1   7
ATOM      7  N   UNL     1       2.931   5.819  20.176  0.00  0.00    +0.000 N 
ATOM      8  H   UNL     1       3.020   5.735  21.181  0.00  0.00    +0.000 HD
BRANCH   7   9
ATOM      9  C   UNL     1       3.281   4.707  19.458  0.00  0.00    +0.000 C 
ATOM     10  S   UNL     1       2.162   3.542  19.062  0.00  0.00    +0.000 S 
BRANCH   9  11
ATOM     11  O   UNL     1       4.646   4.621  19.155  0.00  0.00    +0.000 OA
BRANCH  11  15
ATOM     12  C   UNL     1       6.877   5.101  15.648  0.00  0.00    +0.000 A 
ATOM     13  C   UNL     1       7.502   4.732  16.840  0.00  0.00    +0.000 A 
ATOM     14  C   UNL     1       6.736   4.589  17.996  0.00  0.00    +0.000 A 
ATOM     15  C   UNL     1       5.360   4.825  17.938  0.00  0.00    +0.000 A 
ATOM     16  C   UNL     1       4.730   5.129  16.737  0.00  0.00    +0.000 A 
ATOM     17  C   UNL     1       5.502   5.291  15.588  0.00  0.00    +0.000 A 
BRANCH  12  18
ATOM     18  O   UNL     1       7.590   5.272  14.497  0.00  0.00    +0.000 OA
ATOM     19  H   UNL     1       7.700   6.221  14.339  0.00  0.00    +0.000 HD
ENDBRANCH  12  18
ENDBRANCH  11  15
ENDBRANCH   9  11
ENDBRANCH   7   9
ENDBRANCH   1   7
BRANCH   4  20
ATOM     20  N   UNL     1       0.514  10.483  18.181  0.00  0.00    +0.000 N 
ATOM     21  H   UNL     1       0.996  10.944  17.415  0.00  0.00    +0.000 HD
BRANCH  20  22
ATOM     22  C   UNL     1      -0.871  10.744  18.173  0.00  0.00    +0.000 A 
ATOM     23  C   UNL     1      -1.687  10.044  17.280  0.00  0.00    +0.000 A 
ATOM     24  C   UNL     1      -3.064  10.278  17.236  0.00  0.00    +0.000 A 
ATOM     25  C   UNL     1      -3.658  11.207  18.102  0.00  0.00    +0.000 A 
ATOM     26  C   UNL     1      -2.839  11.917  18.990  0.00  0.00    +0.000 A 
ATOM     27  C   UNL     1      -1.461  11.689  19.022  0.00  0.00    +0.000 A 
BRANCH  25  28
ATOM     28  C   UNL     1      -5.149  11.435  18.111  0.00  0.00    +0.000 C 
ATOM     29  F   UNL     1      -5.866  10.337  18.480  0.00  0.00    +0.000 F 
ATOM     30  F   UNL     1      -5.514  12.423  18.973  0.00  0.00    +0.000 F 
ATOM     31  F   UNL     1      -5.629  11.804  16.893  0.00  0.00    +0.000 F 
ENDBRANCH  25  28
ENDBRANCH  20  22
ENDBRANCH   4  20
TORSDOF 8
ENDMDL
MODEL 3
REMARK VINA RESULT:      -8.4      0.418      1.628
REMARK  Name = 
REMARK  8 active torsions:
REMARK  status: ('A' for Active; 'I' for Inactive)
REMARK    1  A    between atoms: O_1  and  C_2
REMARK    2  A    between atoms: C_5  and  O_6
REMARK    3  A    between atoms: O_6  and  C_7
REMARK    4  A    between atoms: C_7  and  N_9
REMARK    5  A    between atoms: N_9  and  C_10
REMARK    6  A    between atoms: C_13  and  N_14
REMARK    7  A    between atoms: N_14  and  C_15
REMARK    8  A    between atoms: C_18  and  C_19
REMARK                            x       y       z     vdW  Elec       q    Type
REMARK                         _______ _______ _______ _____ _____    ______ ____
ROOT
ATOM      1  C   UNL     1       2.529   6.882  19.573  0.00  0.00    +0.000 A 
ATOM      2  C   UNL     1       1.850   7.688  20.493  0.00  0.00    +0.000 A 
ATOM      3  C   UNL     1       1.202   8.852  20.068  0.00  0.00    +0.000 A 
ATOM      4  C   UNL     1       1.210   9.216  18.721  0.00  0.00    +0.000 A 
ATOM      5  C   UNL     1       1.880   8.391  17.806  0.00  0.00    +0.000 A 
ATOM      6  C   UNL     1       2.551   7.244  18.231  0.00  0.00    +0.000 A 
ENDROOT
BRANCH   1   7
ATOM      7  N   UNL     1       3.282   5.768  19.975  0.00  0.00    +0.000 N 
ATOM      8  H   UNL     1       4.034   5.924  20.634  0.00  0.00    +0.000 HD
BRANCH   7   9
ATOM      9  C   UNL     1       3.076   4.464  19.614  0.00  0.00    +0.000 C 
ATOM     10  S   UNL     1       1.609   3.718  19.852  0.00  0.00    +0.000 S 
BRANCH   9  11
ATOM     11  O   UNL     1       4.209   3.821  19.098  0.00  0.00    +0.000 OA
BRANCH  11  15
ATOM     12  C   UNL     1       6.704   4.950  15.935  0.00  0.00    +0.000 A 
ATOM     13  C   UNL     1       5.351   4.692  15.712  0.00  0.00    +0.000 A 
ATOM     14  C   UNL     1       4.544   4.307  16.782  0.00  0.00    +0.000 A 
ATOM     15  C   UNL     1       5.109   4.183  18.054  0.00  0.00    +0.000 A 
ATOM     16  C   UNL     1       6.442   4.503  18.285  0.00  0.00    +0.000 A 
ATOM     17  C   UNL     1       7.250   4.867  17.210  0.00  0.00    +0.000 A 
BRANCH  12  18
ATOM     18  O   UNL     1       7.534   5.309  14.913  0.00  0.00    +0.000 OA
ATOM     19  H   UNL     1       7.747   4.519  14.394  0.00  0.00    +0.000 HD
ENDBRANCH  12  18
ENDBRANCH  11  15
ENDBRANCH   9  11
ENDBRANCH   7   9
ENDBRANCH   1   7
BRANCH   4  20
ATOM     20  N   UNL     1       0.596  10.412  18.304  0.00  0.00    +0.000 N 
ATOM     21  H   UNL     1       1.137  10.947  17.630  0.00  0.00    +0.000 HD
BRANCH  20  22
ATOM     22  C   UNL     1      -0.782  10.697  18.228  0.00  0.00    +0.000 A 
ATOM     23  C   UNL     1      -1.581   9.956  17.353  0.00  0.00    +0.000 A 
ATOM     24  C   UNL     1      -2.950  10.212  17.244  0.00  0.00    +0.000 A 
ATOM     25  C   UNL     1      -3.555  11.207  18.026  0.00  0.00    +0.000 A 
ATOM     26  C   UNL     1      -2.753  11.958  18.896  0.00  0.00    +0.000 A 
ATOM     27  C   UNL     1      -1.382  11.707  18.993  0.00  0.00    +0.000 A 
BRANCH  25  28
ATOM     28  C   UNL     1      -5.040  11.462  17.966  0.00  0.00    +0.000 C 
ATOM     29  F   UNL     1      -5.542  11.466  16.699  0.00  0.00    +0.000 F 
ATOM     30  F   UNL     1      -5.752  10.521  18.644  0.00  0.00    +0.000 F 
ATOM     31  F   UNL     1      -5.387  12.660  18.511  0.00  0.00    +0.000 F 
ENDBRANCH  25  28
ENDBRANCH  20  22
ENDBRANCH   4  20
TORSDOF 8
ENDMDL
MODEL 4
REMARK VINA RESULT:      -8.4      0.553      1.067
REMARK  Name = 
REMARK  8 active torsions:
REMARK  status: ('A' for Active; 'I' for Inactive)
REMARK    1  A    between atoms: O_1  and  C_2
REMARK    2  A    between atoms: C_5  and  O_6
REMARK    3  A    between atoms: O_6  and  C_7
REMARK    4  A    between atoms: C_7  and  N_9
REMARK    5  A    between atoms: N_9  and  C_10
REMARK    6  A    between atoms: C_13  and  N_14
REMARK    7  A    between atoms: N_14  and  C_15
REMARK    8  A    between atoms: C_18  and  C_19
REMARK                            x       y       z     vdW  Elec       q    Type
REMARK                         _______ _______ _______ _____ _____    ______ ____
ROOT
ATOM      1  C   UNL     1       2.528   7.056  19.502  0.00  0.00    +0.000 A 
ATOM      2  C   UNL     1       1.767   7.789  20.418  0.00  0.00    +0.000 A 
ATOM      3  C   UNL     1       1.071   8.930  20.005  0.00  0.00    +0.000 A 
ATOM      4  C   UNL     1       1.114   9.342  18.672  0.00  0.00    +0.000 A 
ATOM      5  C   UNL     1       1.867   8.589  17.760  0.00  0.00    +0.000 A 
ATOM      6  C   UNL     1       2.585   7.466  18.174  0.00  0.00    +0.000 A 
ENDROOT
BRANCH   1   7
ATOM      7  N   UNL     1       3.326   5.972  19.898  0.00  0.00    +0.000 N 
ATOM      8  H   UNL     1       4.083   6.159  20.545  0.00  0.00    +0.000 HD
BRANCH   7   9
ATOM      9  C   UNL     1       3.161   4.659  19.549  0.00  0.00    +0.000 C 
ATOM     10  S   UNL     1       1.728   3.862  19.822  0.00  0.00    +0.000 S 
BRANCH   9  11
ATOM     11  O   UNL     1       4.306   4.055  19.013  0.00  0.00    +0.000 OA
BRANCH  11  15
ATOM     12  C   UNL     1       6.817   4.968  15.793  0.00  0.00    +0.000 A 
ATOM     13  C   UNL     1       7.313   4.962  17.098  0.00  0.00    +0.000 A 
ATOM     14  C   UNL     1       6.451   4.665  18.153  0.00  0.00    +0.000 A 
ATOM     15  C   UNL     1       5.110   4.385  17.883  0.00  0.00    +0.000 A 
ATOM     16  C   UNL     1       4.633   4.328  16.578  0.00  0.00    +0.000 A 
ATOM     17  C   UNL     1       5.492   4.645  15.527  0.00  0.00    +0.000 A 
BRANCH  12  18
ATOM     18  O   UNL     1       7.619   5.273  14.732  0.00  0.00    +0.000 OA
ATOM     19  H   UNL     1       7.936   4.448  14.335  0.00  0.00    +0.000 HD
ENDBRANCH  12  18
ENDBRANCH  11  15
ENDBRANCH   9  11
ENDBRANCH   7   9
ENDBRANCH   1   7
BRANCH   4  20
ATOM     20  N   UNL     1       0.451  10.516  18.269  0.00  0.00    +0.000 N 
ATOM     21  H   UNL     1       0.939  11.048  17.554  0.00  0.00    +0.000 HD
BRANCH  20  22
ATOM     22  C   UNL     1      -0.935  10.771  18.268  0.00  0.00    +0.000 A 
ATOM     23  C   UNL     1      -1.444  11.752  19.124  0.00  0.00    +0.000 A 
ATOM     24  C   UNL     1      -2.813  12.030  19.158  0.00  0.00    +0.000 A 
ATOM     25  C   UNL     1      -3.703  11.343  18.320  0.00  0.00    +0.000 A 
ATOM     26  C   UNL     1      -3.195  10.352  17.470  0.00  0.00    +0.000 A 
ATOM     27  C   UNL     1      -1.828  10.068  17.448  0.00  0.00    +0.000 A 
BRANCH  25  28
ATOM     28  C   UNL     1      -5.176  11.666  18.301  0.00  0.00    +0.000 C 
ATOM     29  F   UNL     1      -5.449  12.944  17.915  0.00  0.00    +0.000 F 
ATOM     30  F   UNL     1      -5.867  10.864  17.445  0.00  0.00    +0.000 F 
ATOM     31  F   UNL     1      -5.762  11.508  19.518  0.00  0.00    +0.000 F 
ENDBRANCH  25  28
ENDBRANCH  20  22
ENDBRANCH   4  20
TORSDOF 8
ENDMDL
MODEL 5
REMARK VINA RESULT:      -8.2      0.549      1.457
REMARK  Name = 
REMARK  8 active torsions:
REMARK  status: ('A' for Active; 'I' for Inactive)
REMARK    1  A    between atoms: O_1  and  C_2
REMARK    2  A    between atoms: C_5  and  O_6
REMARK    3  A    between atoms: O_6  and  C_7
REMARK    4  A    between atoms: C_7  and  N_9
REMARK    5  A    between atoms: N_9  and  C_10
REMARK    6  A    between atoms: C_13  and  N_14
REMARK    7  A    between atoms: N_14  and  C_15
REMARK    8  A    between atoms: C_18  and  C_19
REMARK                            x       y       z     vdW  Elec       q    Type
REMARK                         _______ _______ _______ _____ _____    ______ ____
ROOT
ATOM      1  C   UNL     1       2.398   7.222  19.732  0.00  0.00    +0.000 A 
ATOM      2  C   UNL     1       2.545   7.534  18.377  0.00  0.00    +0.000 A 
ATOM      3  C   UNL     1       1.882   8.639  17.831  0.00  0.00    +0.000 A 
ATOM      4  C   UNL     1       1.081   9.452  18.634  0.00  0.00    +0.000 A 
ATOM      5  C   UNL     1       0.956   9.139  19.995  0.00  0.00    +0.000 A 
ATOM      6  C   UNL     1       1.593   8.021  20.537  0.00  0.00    +0.000 A 
ENDROOT
BRANCH   1   7
ATOM      7  N   UNL     1       2.956   6.063  20.293  0.00  0.00    +0.000 N 
ATOM      8  H   UNL     1       3.657   6.183  21.015  0.00  0.00    +0.000 HD
BRANCH   7   9
ATOM      9  C   UNL     1       2.616   4.768  20.011  0.00  0.00    +0.000 C 
ATOM     10  S   UNL     1       1.838   3.812  21.127  0.00  0.00    +0.000 S 
BRANCH   9  11
ATOM     11  O   UNL     1       3.033   4.322  18.750  0.00  0.00    +0.000 OA
BRANCH  11  15
ATOM     12  C   UNL     1       6.670   4.489  16.688  0.00  0.00    +0.000 A 
ATOM     13  C   UNL     1       5.481   4.225  16.006  0.00  0.00    +0.000 A 
ATOM     14  C   UNL     1       4.285   4.165  16.720  0.00  0.00    +0.000 A 
ATOM     15  C   UNL     1       4.302   4.364  18.102  0.00  0.00    +0.000 A 
ATOM     16  C   UNL     1       5.478   4.690  18.769  0.00  0.00    +0.000 A 
ATOM     17  C   UNL     1       6.674   4.729  18.057  0.00  0.00    +0.000 A 
BRANCH  12  18
ATOM     18  O   UNL     1       7.866   4.536  16.034  0.00  0.00    +0.000 OA
ATOM     19  H   UNL     1       8.050   3.662  15.659  0.00  0.00    +0.000 HD
ENDBRANCH  12  18
ENDBRANCH  11  15
ENDBRANCH   9  11
ENDBRANCH   7   9
ENDBRANCH   1   7
BRANCH   4  20
ATOM     20  N   UNL     1       0.379  10.535  18.073  0.00  0.00    +0.000 N 
ATOM     21  H   UNL     1       0.788  10.901  17.218  0.00  0.00    +0.000 HD
BRANCH  20  22
ATOM     22  C   UNL     1      -0.998  10.817  18.167  0.00  0.00    +0.000 A 
ATOM     23  C   UNL     1      -1.895  10.087  17.381  0.00  0.00    +0.000 A 
ATOM     24  C   UNL     1      -3.268  10.340  17.441  0.00  0.00    +0.000 A 
ATOM     25  C   UNL     1      -3.777  11.319  18.305  0.00  0.00    +0.000 A 
ATOM     26  C   UNL     1      -2.878  12.059  19.085  0.00  0.00    +0.000 A 
ATOM     27  C   UNL     1      -1.505  11.812  19.013  0.00  0.00    +0.000 A 
BRANCH  25  28
ATOM     28  C   UNL     1      -5.259  11.570  18.427  0.00  0.00    +0.000 C 
ATOM     29  F   UNL     1      -6.021  10.683  17.729  0.00  0.00    +0.000 F 
ATOM     30  F   UNL     1      -5.689  11.497  19.716  0.00  0.00    +0.000 F 
ATOM     31  F   UNL     1      -5.618  12.805  17.981  0.00  0.00    +0.000 F 
ENDBRANCH  25  28
ENDBRANCH  20  22
ENDBRANCH   4  20
TORSDOF 8
ENDMDL
MODEL 6
REMARK VINA RESULT:      -8.0      0.834      1.658
REMARK  Name = 
REMARK  8 active torsions:
REMARK  status: ('A' for Active; 'I' for Inactive)
REMARK    1  A    between atoms: O_1  and  C_2
REMARK    2  A    between atoms: C_5  and  O_6
REMARK    3  A    between atoms: O_6  and  C_7
REMARK    4  A    between atoms: C_7  and  N_9
REMARK    5  A    between atoms: N_9  and  C_10
REMARK    6  A    between atoms: C_13  and  N_14
REMARK    7  A    between atoms: N_14  and  C_15
REMARK    8  A    between atoms: C_18  and  C_19
REMARK                            x       y       z     vdW  Elec       q    Type
REMARK                         _______ _______ _______ _____ _____    ______ ____
ROOT
ATOM      1  C   UNL     1       2.217   7.280  19.813  0.00  0.00    +0.000 A 
ATOM      2  C   UNL     1       1.445   8.083  20.660  0.00  0.00    +0.000 A 
ATOM      3  C   UNL     1       0.791   9.213  20.157  0.00  0.00    +0.000 A 
ATOM      4  C   UNL     1       0.886   9.544  18.805  0.00  0.00    +0.000 A 
ATOM      5  C   UNL     1       1.648   8.721  17.964  0.00  0.00    +0.000 A 
ATOM      6  C   UNL     1       2.325   7.609  18.466  0.00  0.00    +0.000 A 
ENDROOT
BRANCH   1   7
ATOM      7  N   UNL     1       2.975   6.203  20.298  0.00  0.00    +0.000 N 
ATOM      8  H   UNL     1       3.141   6.159  21.296  0.00  0.00    +0.000 HD
BRANCH   7   9
ATOM      9  C   UNL     1       3.478   5.158  19.571  0.00  0.00    +0.000 C 
ATOM     10  S   UNL     1       2.544   3.835  19.193  0.00  0.00    +0.000 S 
BRANCH   9  11
ATOM     11  O   UNL     1       4.834   5.283  19.241  0.00  0.00    +0.000 OA
BRANCH  11  15
ATOM     12  C   UNL     1       6.900   5.192  15.603  0.00  0.00    +0.000 A 
ATOM     13  C   UNL     1       7.460   4.628  16.750  0.00  0.00    +0.000 A 
ATOM     14  C   UNL     1       6.754   4.682  17.952  0.00  0.00    +0.000 A 
ATOM     15  C   UNL     1       5.504   5.304  17.983  0.00  0.00    +0.000 A 
ATOM     16  C   UNL     1       4.920   5.808  16.826  0.00  0.00    +0.000 A 
ATOM     17  C   UNL     1       5.637   5.771  15.632  0.00  0.00    +0.000 A 
BRANCH  12  18
ATOM     18  O   UNL     1       7.564   5.181  14.412  0.00  0.00    +0.000 OA
ATOM     19  H   UNL     1       7.912   6.069  14.241  0.00  0.00    +0.000 HD
ENDBRANCH  12  18
ENDBRANCH  11  15
ENDBRANCH   9  11
ENDBRANCH   7   9
ENDBRANCH   1   7
BRANCH   4  20
ATOM     20  N   UNL     1       0.264  10.706  18.312  0.00  0.00    +0.000 N 
ATOM     21  H   UNL     1       0.770  11.164  17.559  0.00  0.00    +0.000 HD
BRANCH  20  22
ATOM     22  C   UNL     1      -1.112  11.010  18.292  0.00  0.00    +0.000 A 
ATOM     23  C   UNL     1      -1.914  10.454  17.290  0.00  0.00    +0.000 A 
ATOM     24  C   UNL     1      -3.281  10.736  17.231  0.00  0.00    +0.000 A 
ATOM     25  C   UNL     1      -3.881  11.567  18.188  0.00  0.00    +0.000 A 
ATOM     26  C   UNL     1      -3.077  12.133  19.186  0.00  0.00    +0.000 A 
ATOM     27  C   UNL     1      -1.708  11.859  19.234  0.00  0.00    +0.000 A 
BRANCH  25  28
ATOM     28  C   UNL     1      -5.365  11.839  18.177  0.00  0.00    +0.000 C 
ATOM     29  F   UNL     1      -5.715  12.980  18.833  0.00  0.00    +0.000 F 
ATOM     30  F   UNL     1      -5.854  11.972  16.913  0.00  0.00    +0.000 F 
ATOM     31  F   UNL     1      -6.084  10.838  18.754  0.00  0.00    +0.000 F 
ENDBRANCH  25  28
ENDBRANCH  20  22
ENDBRANCH   4  20
TORSDOF 8
ENDMDL
MODEL 7
REMARK VINA RESULT:      -8.0      5.728      9.353
REMARK  Name = 
REMARK  8 active torsions:
REMARK  status: ('A' for Active; 'I' for Inactive)
REMARK    1  A    between atoms: O_1  and  C_2
REMARK    2  A    between atoms: C_5  and  O_6
REMARK    3  A    between atoms: O_6  and  C_7
REMARK    4  A    between atoms: C_7  and  N_9
REMARK    5  A    between atoms: N_9  and  C_10
REMARK    6  A    between atoms: C_13  and  N_14
REMARK    7  A    between atoms: N_14  and  C_15
REMARK    8  A    between atoms: C_18  and  C_19
REMARK                            x       y       z     vdW  Elec       q    Type
REMARK                         _______ _______ _______ _____ _____    ______ ____
ROOT
ATOM      1  C   UNL     1       0.714   9.765  20.050  0.00  0.00    +0.000 A 
ATOM      2  C   UNL     1       1.313   9.467  18.821  0.00  0.00    +0.000 A 
ATOM      3  C   UNL     1       2.061   8.296  18.667  0.00  0.00    +0.000 A 
ATOM      4  C   UNL     1       2.206   7.403  19.729  0.00  0.00    +0.000 A 
ATOM      5  C   UNL     1       1.587   7.704  20.950  0.00  0.00    +0.000 A 
ATOM      6  C   UNL     1       0.863   8.886  21.116  0.00  0.00    +0.000 A 
ENDROOT
BRANCH   1   7
ATOM      7  N   UNL     1       0.048  10.980  20.277  0.00  0.00    +0.000 N 
ATOM      8  H   UNL     1       0.107  11.379  21.206  0.00  0.00    +0.000 HD
BRANCH   7   9
ATOM      9  C   UNL     1      -0.635  11.728  19.357  0.00  0.00    +0.000 C 
ATOM     10  S   UNL     1       0.007  13.125  18.725  0.00  0.00    +0.000 S 
BRANCH   9  11
ATOM     11  O   UNL     1      -1.916  11.246  19.058  0.00  0.00    +0.000 OA
BRANCH  11  15
ATOM     12  C   UNL     1      -3.732  10.306  15.407  0.00  0.00    +0.000 A 
ATOM     13  C   UNL     1      -2.541   9.686  15.786  0.00  0.00    +0.000 A 
ATOM     14  C   UNL     1      -1.952  10.026  17.003  0.00  0.00    +0.000 A 
ATOM     15  C   UNL     1      -2.563  10.984  17.815  0.00  0.00    +0.000 A 
ATOM     16  C   UNL     1      -3.783  11.553  17.465  0.00  0.00    +0.000 A 
ATOM     17  C   UNL     1      -4.358  11.226  16.239  0.00  0.00    +0.000 A 
BRANCH  12  18
ATOM     18  O   UNL     1      -4.332  10.020  14.216  0.00  0.00    +0.000 OA
ATOM     19  H   UNL     1      -5.283  10.192  14.298  0.00  0.00    +0.000 HD
ENDBRANCH  12  18
ENDBRANCH  11  15
ENDBRANCH   9  11
ENDBRANCH   7   9
ENDBRANCH   1   7
BRANCH   4  20
ATOM     20  N   UNL     1       2.998   6.248  19.584  0.00  0.00    +0.000 N 
ATOM     21  H   UNL     1       2.757   5.493  20.219  0.00  0.00    +0.000 HD
BRANCH  20  22
ATOM     22  C   UNL     1       3.642   5.780  18.421  0.00  0.00    +0.000 A 
ATOM     23  C   UNL     1       4.478   6.649  17.713  0.00  0.00    +0.000 A 
ATOM     24  C   UNL     1       5.130   6.226  16.552  0.00  0.00    +0.000 A 
ATOM     25  C   UNL     1       4.974   4.913  16.083  0.00  0.00    +0.000 A 
ATOM     26  C   UNL     1       4.128   4.045  16.786  0.00  0.00    +0.000 A 
ATOM     27  C   UNL     1       3.468   4.476  17.939  0.00  0.00    +0.000 A 
BRANCH  25  28
ATOM     28  C   UNL     1       5.712   4.419  14.864  0.00  0.00    +0.000 C 
ATOM     29  F   UNL     1       6.742   5.226  14.485  0.00  0.00    +0.000 F 
ATOM     30  F   UNL     1       6.259   3.187  15.059  0.00  0.00    +0.000 F 
ATOM     31  F   UNL     1       4.905   4.303  13.776  0.00  0.00    +0.000 F 
ENDBRANCH  25  28
ENDBRANCH  20  22
ENDBRANCH   4  20
TORSDOF 8
ENDMDL
MODEL 8
REMARK VINA RESULT:      -8.0      1.115      2.049
REMARK  Name = 
REMARK  8 active torsions:
REMARK  status: ('A' for Active; 'I' for Inactive)
REMARK    1  A    between atoms: O_1  and  C_2
REMARK    2  A    between atoms: C_5  and  O_6
REMARK    3  A    between atoms: O_6  and  C_7
REMARK    4  A    between atoms: C_7  and  N_9
REMARK    5  A    between atoms: N_9  and  C_10
REMARK    6  A    between atoms: C_13  and  N_14
REMARK    7  A    between atoms: N_14  and  C_15
REMARK    8  A    between atoms: C_18  and  C_19
REMARK                            x       y       z     vdW  Elec       q    Type
REMARK                         _______ _______ _______ _____ _____    ______ ____
ROOT
ATOM      1  C   UNL     1       2.596   6.906  19.502  0.00  0.00    +0.000 A 
ATOM      2  C   UNL     1       2.780   7.341  18.185  0.00  0.00    +0.000 A 
ATOM      3  C   UNL     1       2.199   8.536  17.749  0.00  0.00    +0.000 A 
ATOM      4  C   UNL     1       1.444   9.318  18.625  0.00  0.00    +0.000 A 
ATOM      5  C   UNL     1       1.281   8.880  19.947  0.00  0.00    +0.000 A 
ATOM      6  C   UNL     1       1.836   7.673  20.378  0.00  0.00    +0.000 A 
ENDROOT
BRANCH   1   7
ATOM      7  N   UNL     1       3.069   5.662  19.947  0.00  0.00    +0.000 N 
ATOM      8  H   UNL     1       3.469   5.618  20.876  0.00  0.00    +0.000 HD
BRANCH   7   9
ATOM      9  C   UNL     1       2.999   4.469  19.279  0.00  0.00    +0.000 C 
ATOM     10  S   UNL     1       1.544   3.715  18.998  0.00  0.00    +0.000 S 
BRANCH   9  11
ATOM     11  O   UNL     1       4.243   3.933  18.922  0.00  0.00    +0.000 OA
BRANCH  11  15
ATOM     12  C   UNL     1       6.795   4.985  15.777  0.00  0.00    +0.000 A 
ATOM     13  C   UNL     1       5.500   4.533  15.518  0.00  0.00    +0.000 A 
ATOM     14  C   UNL     1       4.675   4.179  16.584  0.00  0.00    +0.000 A 
ATOM     15  C   UNL     1       5.163   4.279  17.889  0.00  0.00    +0.000 A 
ATOM     16  C   UNL     1       6.429   4.791  18.148  0.00  0.00    +0.000 A 
ATOM     17  C   UNL     1       7.259   5.124  17.080  0.00  0.00    +0.000 A 
BRANCH  12  18
ATOM     18  O   UNL     1       7.643   5.323  14.764  0.00  0.00    +0.000 OA
ATOM     19  H   UNL     1       8.555   5.218  15.075  0.00  0.00    +0.000 HD
ENDBRANCH  12  18
ENDBRANCH  11  15
ENDBRANCH   9  11
ENDBRANCH   7   9
ENDBRANCH   1   7
BRANCH   4  20
ATOM     20  N   UNL     1       0.823  10.496  18.171  0.00  0.00    +0.000 N 
ATOM     21  H   UNL     1       0.980  10.701  17.188  0.00  0.00    +0.000 HD
BRANCH  20  22
ATOM     22  C   UNL     1      -0.355  11.097  18.657  0.00  0.00    +0.000 A 
ATOM     23  C   UNL     1      -1.583  10.737  18.093  0.00  0.00    +0.000 A 
ATOM     24  C   UNL     1      -2.773  11.314  18.544  0.00  0.00    +0.000 A 
ATOM     25  C   UNL     1      -2.762  12.253  19.585  0.00  0.00    +0.000 A 
ATOM     26  C   UNL     1      -1.532  12.623  20.143  0.00  0.00    +0.000 A 
ATOM     27  C   UNL     1      -0.343  12.053  19.682  0.00  0.00    +0.000 A 
BRANCH  25  28
ATOM     28  C   UNL     1      -4.040  12.847  20.124  0.00  0.00    +0.000 C 
ATOM     29  F   UNL     1      -4.480  12.248  21.266  0.00  0.00    +0.000 F 
ATOM     30  F   UNL     1      -3.906  14.168  20.426  0.00  0.00    +0.000 F 
ATOM     31  F   UNL     1      -5.069  12.767  19.237  0.00  0.00    +0.000 F 
ENDBRANCH  25  28
ENDBRANCH  20  22
ENDBRANCH   4  20
TORSDOF 8
ENDMDL
MODEL 9
REMARK VINA RESULT:      -7.9      2.933      3.835
REMARK  Name = 
REMARK  8 active torsions:
REMARK  status: ('A' for Active; 'I' for Inactive)
REMARK    1  A    between atoms: O_1  and  C_2
REMARK    2  A    between atoms: C_5  and  O_6
REMARK    3  A    between atoms: O_6  and  C_7
REMARK    4  A    between atoms: C_7  and  N_9
REMARK    5  A    between atoms: N_9  and  C_10
REMARK    6  A    between atoms: C_13  and  N_14
REMARK    7  A    between atoms: N_14  and  C_15
REMARK    8  A    between atoms: C_18  and  C_19
REMARK                            x       y       z     vdW  Elec       q    Type
REMARK                         _______ _______ _______ _____ _____    ______ ____
ROOT
ATOM      1  C   UNL     1       2.286   5.194  18.440  0.00  0.00    +0.000 A 
ATOM      2  C   UNL     1       1.794   4.785  19.684  0.00  0.00    +0.000 A 
ATOM      3  C   UNL     1       1.615   5.715  20.713  0.00  0.00    +0.000 A 
ATOM      4  C   UNL     1       1.908   7.064  20.508  0.00  0.00    +0.000 A 
ATOM      5  C   UNL     1       2.383   7.465  19.251  0.00  0.00    +0.000 A 
ATOM      6  C   UNL     1       2.590   6.535  18.231  0.00  0.00    +0.000 A 
ENDROOT
BRANCH   1   7
ATOM      7  N   UNL     1       2.583   4.278  17.420  0.00  0.00    +0.000 N 
ATOM      8  H   UNL     1       2.013   4.309  16.583  0.00  0.00    +0.000 HD
BRANCH   7   9
ATOM      9  C   UNL     1       3.607   3.370  17.403  0.00  0.00    +0.000 C 
ATOM     10  S   UNL     1       3.415   1.834  18.011  0.00  0.00    +0.000 S 
BRANCH   9  11
ATOM     11  O   UNL     1       4.813   3.869  16.895  0.00  0.00    +0.000 OA
BRANCH  11  15
ATOM     12  C   UNL     1       7.628   6.566  18.415  0.00  0.00    +0.000 A 
ATOM     13  C   UNL     1       7.220   6.644  17.082  0.00  0.00    +0.000 A 
ATOM     14  C   UNL     1       6.289   5.725  16.599  0.00  0.00    +0.000 A 
ATOM     15  C   UNL     1       5.787   4.744  17.457  0.00  0.00    +0.000 A 
ATOM     16  C   UNL     1       6.146   4.708  18.800  0.00  0.00    +0.000 A 
ATOM     17  C   UNL     1       7.092   5.614  19.275  0.00  0.00    +0.000 A 
BRANCH  12  18
ATOM     18  O   UNL     1       8.552   7.430  18.925  0.00  0.00    +0.000 OA
ATOM     19  H   UNL     1       9.186   7.653  18.227  0.00  0.00    +0.000 HD
ENDBRANCH  12  18
ENDBRANCH  11  15
ENDBRANCH   9  11
ENDBRANCH   7   9
ENDBRANCH   1   7
BRANCH   4  20
ATOM     20  N   UNL     1       1.769   7.990  21.559  0.00  0.00    +0.000 N 
ATOM     21  H   UNL     1       2.618   8.144  22.095  0.00  0.00    +0.000 HD
BRANCH  20  22
ATOM     22  C   UNL     1       0.883   9.082  21.639  0.00  0.00    +0.000 A 
ATOM     23  C   UNL     1       0.626   9.833  20.488  0.00  0.00    +0.000 A 
ATOM     24  C   UNL     1      -0.242  10.927  20.528  0.00  0.00    +0.000 A 
ATOM     25  C   UNL     1      -0.888  11.284  21.720  0.00  0.00    +0.000 A 
ATOM     26  C   UNL     1      -0.623  10.539  22.877  0.00  0.00    +0.000 A 
ATOM     27  C   UNL     1       0.255   9.453  22.836  0.00  0.00    +0.000 A 
BRANCH  25  28
ATOM     28  C   UNL     1      -1.871  12.427  21.773  0.00  0.00    +0.000 C 
ATOM     29  F   UNL     1      -1.722  13.322  20.757  0.00  0.00    +0.000 F 
ATOM     30  F   UNL     1      -3.162  11.999  21.704  0.00  0.00    +0.000 F 
ATOM     31  F   UNL     1      -1.775  13.146  22.924  0.00  0.00    +0.000 F 
ENDBRANCH  25  28
ENDBRANCH  20  22
ENDBRANCH   4  20
TORSDOF 8
ENDMDL
