MODEL 1
REMARK VINA RESULT:      -8.4      0.000      0.000
REMARK  Name = 
REMARK  2 active torsions:
REMARK  status: ('A' for Active; 'I' for Inactive)
REMARK    1  A    between atoms: C_1  and  C_2
REMARK    2  A    between atoms: N_18  and  O_19
REMARK                            x       y       z     vdW  Elec       q    Type
REMARK                         _______ _______ _______ _____ _____    ______ ____
ROOT
ATOM      1  C   UNL     1       5.120   6.673  15.388  0.00  0.00    +0.000 C 
ATOM      2  C   UNL     1       4.900   5.731  16.536  0.00  0.00    +0.000 A 
ATOM      3  C   UNL     1       5.084   4.342  16.451  0.00  0.00    +0.000 A 
ATOM      4  C   UNL     1       4.684   3.500  17.510  0.00  0.00    +0.000 A 
ATOM      5  C   UNL     1       3.981   4.071  18.558  0.00  0.00    +0.000 A 
ATOM      6  C   UNL     1       3.743   5.438  18.613  0.00  0.00    +0.000 A 
ATOM      7  C   UNL     1       4.340   6.272  17.692  0.00  0.00    +0.000 A 
ATOM      8  C   UNL     1       2.854   5.684  19.752  0.00  0.00    +0.000 C 
ATOM      9  C   UNL     1       2.087   6.747  20.054  0.00  0.00    +0.000 C 
ATOM     10  N   UNL     1       1.294   7.003  21.165  0.00  0.00    +0.000 N 
ATOM     11  C   UNL     1       0.967   8.360  21.198  0.00  0.00    +0.000 A 
ATOM     12  C   UNL     1       0.235   9.052  22.143  0.00  0.00    +0.000 A 
ATOM     13  C   UNL     1      -0.048  10.410  21.914  0.00  0.00    +0.000 A 
ATOM     14  C   UNL     1       0.390  11.057  20.749  0.00  0.00    +0.000 A 
ATOM     15  C   UNL     1       1.097  10.352  19.782  0.00  0.00    +0.000 A 
ATOM     16  C   UNL     1       1.350   9.008  20.018  0.00  0.00    +0.000 A 
ATOM     17  C   UNL     1       1.974   7.993  19.163  0.00  0.00    +0.000 C 
ATOM     18  N   UNL     1       2.287   8.064  17.912  0.00  0.00    +0.000 NA
ATOM     19  C   UNL     1       2.781   4.372  20.495  0.00  0.00    +0.000 C 
ATOM     20  O   UNL     1       2.239   4.164  21.568  0.00  0.00    +0.000 OA
ATOM     21  N   UNL     1       3.442   3.449  19.683  0.00  0.00    +0.000 N 
ATOM     22  H   UNL     1       1.409   6.436  21.999  0.00  0.00    +0.000 HD
ATOM     23  H   UNL     1       3.526   2.471  19.910  0.00  0.00    +0.000 HD
ENDROOT
BRANCH  18  24
ATOM     24  O   UNL     1       2.204   9.334  17.356  0.00  0.00    +0.000 OA
ATOM     25  H   UNL     1       3.115   9.662  17.470  0.00  0.00    +0.000 HD
ENDBRANCH  18  24
TORSDOF 1
ENDMDL
MODEL 2
REMARK VINA RESULT:      -7.5      1.832      3.700
REMARK  Name = 
REMARK  2 active torsions:
REMARK  status: ('A' for Active; 'I' for Inactive)
REMARK    1  A    between atoms: C_1  and  C_2
REMARK    2  A    between atoms: N_18  and  O_19
REMARK                            x       y       z     vdW  Elec       q    Type
REMARK                         _______ _______ _______ _____ _____    ______ ____
ROOT
ATOM      1  C   UNL     1       1.221   2.906  21.080  0.00  0.00    +0.000 C 
ATOM      2  C   UNL     1       2.082   3.163  19.877  0.00  0.00    +0.000 A 
ATOM      3  C   UNL     1       3.090   2.289  19.439  0.00  0.00    +0.000 A 
ATOM      4  C   UNL     1       3.980   2.677  18.416  0.00  0.00    +0.000 A 
ATOM      5  C   UNL     1       3.915   3.985  17.966  0.00  0.00    +0.000 A 
ATOM      6  C   UNL     1       2.957   4.870  18.443  0.00  0.00    +0.000 A 
ATOM      7  C   UNL     1       1.953   4.409  19.268  0.00  0.00    +0.000 A 
ATOM      8  C   UNL     1       3.261   6.191  17.884  0.00  0.00    +0.000 C 
ATOM      9  C   UNL     1       2.856   7.418  18.259  0.00  0.00    +0.000 C 
ATOM     10  N   UNL     1       3.096   8.662  17.691  0.00  0.00    +0.000 N 
ATOM     11  C   UNL     1       2.199   9.593  18.219  0.00  0.00    +0.000 A 
ATOM     12  C   UNL     1       2.057  10.931  17.907  0.00  0.00    +0.000 A 
ATOM     13  C   UNL     1       1.139  11.699  18.644  0.00  0.00    +0.000 A 
ATOM     14  C   UNL     1       0.386  11.134  19.684  0.00  0.00    +0.000 A 
ATOM     15  C   UNL     1       0.554   9.796  20.020  0.00  0.00    +0.000 A 
ATOM     16  C   UNL     1       1.478   9.058  19.293  0.00  0.00    +0.000 A 
ATOM     17  C   UNL     1       1.943   7.678  19.467  0.00  0.00    +0.000 C 
ATOM     18  N   UNL     1       1.729   6.866  20.448  0.00  0.00    +0.000 NA
ATOM     19  C   UNL     1       4.342   5.953  16.857  0.00  0.00    +0.000 C 
ATOM     20  O   UNL     1       4.806   6.767  16.077  0.00  0.00    +0.000 OA
ATOM     21  N   UNL     1       4.708   4.615  17.009  0.00  0.00    +0.000 N 
ATOM     22  H   UNL     1       3.463   8.714  16.746  0.00  0.00    +0.000 HD
ATOM     23  H   UNL     1       5.439   4.176  16.472  0.00  0.00    +0.000 HD
ENDROOT
BRANCH  18  24
ATOM     24  O   UNL     1       0.771   7.286  21.361  0.00  0.00    +0.000 OA
ATOM     25  H   UNL     1       0.460   8.117  20.957  0.00  0.00    +0.000 HD
ENDBRANCH  18  24
TORSDOF 1
ENDMDL
MODEL 3
REMARK VINA RESULT:      -7.2      4.381      5.212
REMARK  Name = 
REMARK  2 active torsions:
REMARK  status: ('A' for Active; 'I' for Inactive)
REMARK    1  A    between atoms: C_1  and  C_2
REMARK    2  A    between atoms: N_18  and  O_19
REMARK                            x       y       z     vdW  Elec       q    Type
REMARK                         _______ _______ _______ _____ _____    ______ ____
ROOT
ATOM      1  C   UNL     1       4.834   3.731  13.165  0.00  0.00    +0.000 C 
ATOM      2  C   UNL     1       5.687   4.378  14.218  0.00  0.00    +0.000 A 
ATOM      3  C   UNL     1       7.050   4.668  14.046  0.00  0.00    +0.000 A 
ATOM      4  C   UNL     1       7.832   5.106  15.135  0.00  0.00    +0.000 A 
ATOM      5  C   UNL     1       7.248   5.101  16.392  0.00  0.00    +0.000 A 
ATOM      6  C   UNL     1       5.916   4.754  16.572  0.00  0.00    +0.000 A 
ATOM      7  C   UNL     1       5.108   4.555  15.472  0.00  0.00    +0.000 A 
ATOM      8  C   UNL     1       5.666   4.703  18.015  0.00  0.00    +0.000 C 
ATOM      9  C   UNL     1       4.670   4.130  18.715  0.00  0.00    +0.000 C 
ATOM     10  N   UNL     1       4.402   4.136  20.077  0.00  0.00    +0.000 N 
ATOM     11  C   UNL     1       3.090   3.708  20.294  0.00  0.00    +0.000 A 
ATOM     12  C   UNL     1       2.400   3.601  21.485  0.00  0.00    +0.000 A 
ATOM     13  C   UNL     1       1.107   3.050  21.466  0.00  0.00    +0.000 A 
ATOM     14  C   UNL     1       0.523   2.605  20.271  0.00  0.00    +0.000 A 
ATOM     15  C   UNL     1       1.231   2.682  19.077  0.00  0.00    +0.000 A 
ATOM     16  C   UNL     1       2.513   3.211  19.119  0.00  0.00    +0.000 A 
ATOM     17  C   UNL     1       3.528   3.332  18.067  0.00  0.00    +0.000 C 
ATOM     18  N   UNL     1       3.536   2.818  16.882  0.00  0.00    +0.000 NA
ATOM     19  C   UNL     1       6.906   5.275  18.659  0.00  0.00    +0.000 C 
ATOM     20  O   UNL     1       7.074   5.520  19.841  0.00  0.00    +0.000 OA
ATOM     21  N   UNL     1       7.821   5.438  17.616  0.00  0.00    +0.000 N 
ATOM     22  H   UNL     1       4.876   4.807  20.673  0.00  0.00    +0.000 HD
ATOM     23  H   UNL     1       8.760   5.777  17.752  0.00  0.00    +0.000 HD
ENDROOT
BRANCH  18  24
ATOM     24  O   UNL     1       2.338   2.241  16.483  0.00  0.00    +0.000 OA
ATOM     25  H   UNL     1       2.605   1.759  15.679  0.00  0.00    +0.000 HD
ENDBRANCH  18  24
TORSDOF 1
ENDMDL
MODEL 4
REMARK VINA RESULT:      -7.1      3.561      5.222
REMARK  Name = 
REMARK  2 active torsions:
REMARK  status: ('A' for Active; 'I' for Inactive)
REMARK    1  A    between atoms: C_1  and  C_2
REMARK    2  A    between atoms: N_18  and  O_19
REMARK                            x       y       z     vdW  Elec       q    Type
REMARK                         _______ _______ _______ _____ _____    ______ ____
ROOT
ATOM      1  C   UNL     1       4.770   3.025  12.548  0.00  0.00    +0.000 C 
ATOM      2  C   UNL     1       5.585   4.035  13.302  0.00  0.00    +0.000 A 
ATOM      3  C   UNL     1       6.904   4.380  12.966  0.00  0.00    +0.000 A 
ATOM      4  C   UNL     1       7.671   5.198  13.822  0.00  0.00    +0.000 A 
ATOM      5  C   UNL     1       7.133   5.523  15.056  0.00  0.00    +0.000 A 
ATOM      6  C   UNL     1       5.851   5.129  15.415  0.00  0.00    +0.000 A 
ATOM      7  C   UNL     1       5.032   4.533  14.480  0.00  0.00    +0.000 A 
ATOM      8  C   UNL     1       5.656   5.497  16.821  0.00  0.00    +0.000 C 
ATOM      9  C   UNL     1       4.749   5.078  17.722  0.00  0.00    +0.000 C 
ATOM     10  N   UNL     1       4.527   5.474  19.034  0.00  0.00    +0.000 N 
ATOM     11  C   UNL     1       3.275   5.015  19.451  0.00  0.00    +0.000 A 
ATOM     12  C   UNL     1       2.640   5.215  20.661  0.00  0.00    +0.000 A 
ATOM     13  C   UNL     1       1.412   4.571  20.890  0.00  0.00    +0.000 A 
ATOM     14  C   UNL     1       0.838   3.732  19.922  0.00  0.00    +0.000 A 
ATOM     15  C   UNL     1       1.495   3.505  18.718  0.00  0.00    +0.000 A 
ATOM     16  C   UNL     1       2.715   4.135  18.518  0.00  0.00    +0.000 A 
ATOM     17  C   UNL     1       3.676   4.021  17.416  0.00  0.00    +0.000 C 
ATOM     18  N   UNL     1       3.699   3.174  16.442  0.00  0.00    +0.000 NA
ATOM     19  C   UNL     1       6.850   6.347  17.184  0.00  0.00    +0.000 C 
ATOM     20  O   UNL     1       7.030   6.955  18.225  0.00  0.00    +0.000 OA
ATOM     21  N   UNL     1       7.708   6.267  16.085  0.00  0.00    +0.000 N 
ATOM     22  H   UNL     1       4.947   6.334  19.370  0.00  0.00    +0.000 HD
ATOM     23  H   UNL     1       8.610   6.714  16.053  0.00  0.00    +0.000 HD
ENDROOT
BRANCH  18  24
ATOM     24  O   UNL     1       2.555   2.397  16.311  0.00  0.00    +0.000 OA
ATOM     25  H   UNL     1       2.474   2.322  15.342  0.00  0.00    +0.000 HD
ENDBRANCH  18  24
TORSDOF 1
ENDMDL
MODEL 5
REMARK VINA RESULT:      -7.0      2.342      6.800
REMARK  Name = 
REMARK  2 active torsions:
REMARK  status: ('A' for Active; 'I' for Inactive)
REMARK    1  A    between atoms: C_1  and  C_2
REMARK    2  A    between atoms: N_18  and  O_19
REMARK                            x       y       z     vdW  Elec       q    Type
REMARK                         _______ _______ _______ _____ _____    ______ ____
ROOT
ATOM      1  C   UNL     1      -0.483  13.571  17.968  0.00  0.00    +0.000 C 
ATOM      2  C   UNL     1      -0.795  13.020  19.329  0.00  0.00    +0.000 A 
ATOM      3  C   UNL     1      -1.188  13.811  20.420  0.00  0.00    +0.000 A 
ATOM      4  C   UNL     1      -1.287  13.253  21.712  0.00  0.00    +0.000 A 
ATOM      5  C   UNL     1      -0.849  11.951  21.887  0.00  0.00    +0.000 A 
ATOM      6  C   UNL     1      -0.401  11.186  20.818  0.00  0.00    +0.000 A 
ATOM      7  C   UNL     1      -0.530  11.667  19.533  0.00  0.00    +0.000 A 
ATOM      8  C   UNL     1       0.125   9.932  21.365  0.00  0.00    +0.000 C 
ATOM      9  C   UNL     1       0.939   9.009  20.822  0.00  0.00    +0.000 C 
ATOM     10  N   UNL     1       1.386   7.792  21.319  0.00  0.00    +0.000 N 
ATOM     11  C   UNL     1       1.922   7.033  20.275  0.00  0.00    +0.000 A 
ATOM     12  C   UNL     1       2.439   5.754  20.313  0.00  0.00    +0.000 A 
ATOM     13  C   UNL     1       3.014   5.227  19.143  0.00  0.00    +0.000 A 
ATOM     14  C   UNL     1       3.077   5.978  17.960  0.00  0.00    +0.000 A 
ATOM     15  C   UNL     1       2.586   7.278  17.933  0.00  0.00    +0.000 A 
ATOM     16  C   UNL     1       2.039   7.788  19.102  0.00  0.00    +0.000 A 
ATOM     17  C   UNL     1       1.537   9.131  19.412  0.00  0.00    +0.000 C 
ATOM     18  N   UNL     1       1.640  10.216  18.721  0.00  0.00    +0.000 NA
ATOM     19  C   UNL     1      -0.266   9.934  22.824  0.00  0.00    +0.000 C 
ATOM     20  O   UNL     1      -0.124   9.025  23.624  0.00  0.00    +0.000 OA
ATOM     21  N   UNL     1      -0.799  11.202  23.061  0.00  0.00    +0.000 N 
ATOM     22  H   UNL     1       0.922   7.384  22.124  0.00  0.00    +0.000 HD
ATOM     23  H   UNL     1      -1.120  11.507  23.966  0.00  0.00    +0.000 HD
ENDROOT
BRANCH  18  24
ATOM     24  O   UNL     1       2.113  10.047  17.426  0.00  0.00    +0.000 OA
ATOM     25  H   UNL     1       2.189  10.969  17.118  0.00  0.00    +0.000 HD
ENDBRANCH  18  24
TORSDOF 1
ENDMDL
MODEL 6
REMARK VINA RESULT:      -6.6      9.347     10.182
REMARK  Name = 
REMARK  2 active torsions:
REMARK  status: ('A' for Active; 'I' for Inactive)
REMARK    1  A    between atoms: C_1  and  C_2
REMARK    2  A    between atoms: N_18  and  O_19
REMARK                            x       y       z     vdW  Elec       q    Type
REMARK                         _______ _______ _______ _____ _____    ______ ____
ROOT
ATOM      1  C   UNL     1      11.611  16.788  18.562  0.00  0.00    +0.000 C 
ATOM      2  C   UNL     1      11.464  15.318  18.292  0.00  0.00    +0.000 A 
ATOM      3  C   UNL     1      11.520  14.752  17.009  0.00  0.00    +0.000 A 
ATOM      4  C   UNL     1      11.192  13.394  16.810  0.00  0.00    +0.000 A 
ATOM      5  C   UNL     1      10.681  12.689  17.888  0.00  0.00    +0.000 A 
ATOM      6  C   UNL     1      10.567  13.268  19.145  0.00  0.00    +0.000 A 
ATOM      7  C   UNL     1      11.107  14.516  19.374  0.00  0.00    +0.000 A 
ATOM      8  C   UNL     1       9.857  12.316  20.004  0.00  0.00    +0.000 C 
ATOM      9  C   UNL     1       9.227  12.493  21.179  0.00  0.00    +0.000 C 
ATOM     10  N   UNL     1       8.609  11.578  22.021  0.00  0.00    +0.000 N 
ATOM     11  C   UNL     1       8.403  12.164  23.272  0.00  0.00    +0.000 A 
ATOM     12  C   UNL     1       7.861  11.604  24.411  0.00  0.00    +0.000 A 
ATOM     13  C   UNL     1       7.665  12.425  25.536  0.00  0.00    +0.000 A 
ATOM     14  C   UNL     1       7.999  13.786  25.511  0.00  0.00    +0.000 A 
ATOM     15  C   UNL     1       8.514  14.357  24.352  0.00  0.00    +0.000 A 
ATOM     16  C   UNL     1       8.683  13.535  23.246  0.00  0.00    +0.000 A 
ATOM     17  C   UNL     1       9.104  13.855  21.878  0.00  0.00    +0.000 C 
ATOM     18  N   UNL     1       9.256  15.011  21.324  0.00  0.00    +0.000 NA
ATOM     19  C   UNL     1       9.772  11.038  19.203  0.00  0.00    +0.000 C 
ATOM     20  O   UNL     1       9.359   9.957  19.586  0.00  0.00    +0.000 OA
ATOM     21  N   UNL     1      10.243  11.367  17.931  0.00  0.00    +0.000 N 
ATOM     22  H   UNL     1       8.785  10.587  21.891  0.00  0.00    +0.000 HD
ATOM     23  H   UNL     1      10.274  10.713  17.165  0.00  0.00    +0.000 HD
ENDROOT
BRANCH  18  24
ATOM     24  O   UNL     1       9.207  16.092  22.194  0.00  0.00    +0.000 OA
ATOM     25  H   UNL     1       8.762  15.705  22.971  0.00  0.00    +0.000 HD
ENDBRANCH  18  24
TORSDOF 1
ENDMDL
MODEL 7
REMARK VINA RESULT:      -6.5      6.852      9.289
REMARK  Name = 
REMARK  2 active torsions:
REMARK  status: ('A' for Active; 'I' for Inactive)
REMARK    1  A    between atoms: C_1  and  C_2
REMARK    2  A    between atoms: N_18  and  O_19
REMARK                            x       y       z     vdW  Elec       q    Type
REMARK                         _______ _______ _______ _____ _____    ______ ____
ROOT
ATOM      1  C   UNL     1      -6.392  12.562  21.803  0.00  0.00    +0.000 C 
ATOM      2  C   UNL     1      -6.158  12.213  20.362  0.00  0.00    +0.000 A 
ATOM      3  C   UNL     1      -7.062  11.474  19.582  0.00  0.00    +0.000 A 
ATOM      4  C   UNL     1      -6.698  11.027  18.294  0.00  0.00    +0.000 A 
ATOM      5  C   UNL     1      -5.385  11.215  17.893  0.00  0.00    +0.000 A 
ATOM      6  C   UNL     1      -4.473  11.892  18.691  0.00  0.00    +0.000 A 
ATOM      7  C   UNL     1      -4.905  12.522  19.838  0.00  0.00    +0.000 A 
ATOM      8  C   UNL     1      -3.160  11.779  18.049  0.00  0.00    +0.000 C 
ATOM      9  C   UNL     1      -1.922  11.971  18.540  0.00  0.00    +0.000 C 
ATOM     10  N   UNL     1      -0.684  11.924  17.914  0.00  0.00    +0.000 N 
ATOM     11  C   UNL     1       0.274  12.524  18.736  0.00  0.00    +0.000 A 
ATOM     12  C   UNL     1       1.617  12.730  18.491  0.00  0.00    +0.000 A 
ATOM     13  C   UNL     1       2.412  13.274  19.515  0.00  0.00    +0.000 A 
ATOM     14  C   UNL     1       1.866  13.596  20.767  0.00  0.00    +0.000 A 
ATOM     15  C   UNL     1       0.521  13.356  21.024  0.00  0.00    +0.000 A 
ATOM     16  C   UNL     1      -0.243  12.801  20.007  0.00  0.00    +0.000 A 
ATOM     17  C   UNL     1      -1.639  12.350  20.002  0.00  0.00    +0.000 C 
ATOM     18  N   UNL     1      -2.449  12.202  20.996  0.00  0.00    +0.000 NA
ATOM     19  C   UNL     1      -3.427  11.176  16.691  0.00  0.00    +0.000 C 
ATOM     20  O   UNL     1      -2.624  11.016  15.787  0.00  0.00    +0.000 OA
ATOM     21  N   UNL     1      -4.778  10.823  16.702  0.00  0.00    +0.000 N 
ATOM     22  H   UNL     1      -0.638  11.941  16.901  0.00  0.00    +0.000 HD
ATOM     23  H   UNL     1      -5.236  10.365  15.931  0.00  0.00    +0.000 HD
ENDROOT
BRANCH  18  24
ATOM     24  O   UNL     1      -2.002  12.729  22.201  0.00  0.00    +0.000 OA
ATOM     25  H   UNL     1      -1.498  13.509  21.905  0.00  0.00    +0.000 HD
ENDBRANCH  18  24
TORSDOF 1
ENDMDL
MODEL 8
REMARK VINA RESULT:      -6.5      6.032      8.287
REMARK  Name = 
REMARK  2 active torsions:
REMARK  status: ('A' for Active; 'I' for Inactive)
REMARK    1  A    between atoms: C_1  and  C_2
REMARK    2  A    between atoms: N_18  and  O_19
REMARK                            x       y       z     vdW  Elec       q    Type
REMARK                         _______ _______ _______ _____ _____    ______ ____
ROOT
ATOM      1  C   UNL     1      -5.116  11.187  17.803  0.00  0.00    +0.000 C 
ATOM      2  C   UNL     1      -3.628  11.117  17.992  0.00  0.00    +0.000 A 
ATOM      3  C   UNL     1      -2.808  10.163  17.370  0.00  0.00    +0.000 A 
ATOM      4  C   UNL     1      -1.451  10.039  17.733  0.00  0.00    +0.000 A 
ATOM      5  C   UNL     1      -1.001  10.783  18.812  0.00  0.00    +0.000 A 
ATOM      6  C   UNL     1      -1.830  11.682  19.469  0.00  0.00    +0.000 A 
ATOM      7  C   UNL     1      -3.079  11.960  18.955  0.00  0.00    +0.000 A 
ATOM      8  C   UNL     1      -1.100  12.178  20.639  0.00  0.00    +0.000 C 
ATOM      9  C   UNL     1      -1.538  12.802  21.749  0.00  0.00    +0.000 C 
ATOM     10  N   UNL     1      -0.838  13.326  22.827  0.00  0.00    +0.000 N 
ATOM     11  C   UNL     1      -1.676  14.171  23.558  0.00  0.00    +0.000 A 
ATOM     12  C   UNL     1      -1.382  14.927  24.674  0.00  0.00    +0.000 A 
ATOM     13  C   UNL     1      -2.423  15.635  25.300  0.00  0.00    +0.000 A 
ATOM     14  C   UNL     1      -3.738  15.575  24.817  0.00  0.00    +0.000 A 
ATOM     15  C   UNL     1      -4.040  14.786  23.712  0.00  0.00    +0.000 A 
ATOM     16  C   UNL     1      -3.002  14.080  23.119  0.00  0.00    +0.000 A 
ATOM     17  C   UNL     1      -3.018  13.107  22.022  0.00  0.00    +0.000 C 
ATOM     18  N   UNL     1      -4.029  12.540  21.453  0.00  0.00    +0.000 NA
ATOM     19  C   UNL     1       0.311  11.666  20.480  0.00  0.00    +0.000 C 
ATOM     20  O   UNL     1       1.275  11.940  21.174  0.00  0.00    +0.000 OA
ATOM     21  N   UNL     1       0.268  10.797  19.388  0.00  0.00    +0.000 N 
ATOM     22  H   UNL     1       0.164  13.466  22.748  0.00  0.00    +0.000 HD
ATOM     23  H   UNL     1       1.067  10.277  19.062  0.00  0.00    +0.000 HD
ENDROOT
BRANCH  18  24
ATOM     24  O   UNL     1      -5.267  13.072  21.788  0.00  0.00    +0.000 OA
ATOM     25  H   UNL     1      -5.188  13.172  22.755  0.00  0.00    +0.000 HD
ENDBRANCH  18  24
TORSDOF 1
ENDMDL
MODEL 9
REMARK VINA RESULT:      -6.4      6.248      8.993
REMARK  Name = 
REMARK  2 active torsions:
REMARK  status: ('A' for Active; 'I' for Inactive)
REMARK    1  A    between atoms: C_1  and  C_2
REMARK    2  A    between atoms: N_18  and  O_19
REMARK                            x       y       z     vdW  Elec       q    Type
REMARK                         _______ _______ _______ _____ _____    ______ ____
ROOT
ATOM      1  C   UNL     1      -0.649   9.654  17.476  0.00  0.00    +0.000 C 
ATOM      2  C   UNL     1      -2.070  10.037  17.180  0.00  0.00    +0.000 A 
ATOM      3  C   UNL     1      -2.625  10.037  15.890  0.00  0.00    +0.000 A 
ATOM      4  C   UNL     1      -3.906  10.581  15.661  0.00  0.00    +0.000 A 
ATOM      5  C   UNL     1      -4.525  11.237  16.712  0.00  0.00    +0.000 A 
ATOM      6  C   UNL     1      -3.949  11.291  17.974  0.00  0.00    +0.000 A 
ATOM      7  C   UNL     1      -2.812  10.558  18.238  0.00  0.00    +0.000 A 
ATOM      8  C   UNL     1      -4.777  12.177  18.798  0.00  0.00    +0.000 C 
ATOM      9  C   UNL     1      -4.508  12.806  19.957  0.00  0.00    +0.000 C 
ATOM     10  N   UNL     1      -5.315  13.594  20.766  0.00  0.00    +0.000 N 
ATOM     11  C   UNL     1      -4.715  13.738  22.020  0.00  0.00    +0.000 A 
ATOM     12  C   UNL     1      -5.187  14.401  23.134  0.00  0.00    +0.000 A 
ATOM     13  C   UNL     1      -4.357  14.492  24.265  0.00  0.00    +0.000 A 
ATOM     14  C   UNL     1      -3.071  13.933  24.270  0.00  0.00    +0.000 A 
ATOM     15  C   UNL     1      -2.583  13.294  23.136  0.00  0.00    +0.000 A 
ATOM     16  C   UNL     1      -3.410  13.231  22.023  0.00  0.00    +0.000 A 
ATOM     17  C   UNL     1      -3.152  12.720  20.673  0.00  0.00    +0.000 C 
ATOM     18  N   UNL     1      -2.032  12.359  20.141  0.00  0.00    +0.000 NA
ATOM     19  C   UNL     1      -6.014  12.451  17.976  0.00  0.00    +0.000 C 
ATOM     20  O   UNL     1      -7.014  13.051  18.330  0.00  0.00    +0.000 OA
ATOM     21  N   UNL     1      -5.755  11.892  16.722  0.00  0.00    +0.000 N 
ATOM     22  H   UNL     1      -6.320  13.584  20.626  0.00  0.00    +0.000 HD
ATOM     23  H   UNL     1      -6.398  11.947  15.948  0.00  0.00    +0.000 HD
ENDROOT
BRANCH  18  24
ATOM     24  O   UNL     1      -0.968  12.252  21.026  0.00  0.00    +0.000 OA
ATOM     25  H   UNL     1      -1.423  12.052  21.865  0.00  0.00    +0.000 HD
ENDBRANCH  18  24
TORSDOF 1
ENDMDL
