MODEL 1
REMARK VINA RESULT:      -8.8      0.000      0.000
REMARK  Name = 
REMARK  7 active torsions:
REMARK  status: ('A' for Active; 'I' for Inactive)
REMARK    1  A    between atoms: C_1  and  C_2
REMARK    2  A    between atoms: C_4  and  C_5
REMARK    3  A    between atoms: C_5  and  N_6
REMARK    4  A    between atoms: C_8  and  C_9
REMARK    5  A    between atoms: C_16  and  C_17
REMARK    6  A    between atoms: N_19  and  C_20
REMARK    7  A    between atoms: C_20  and  C_21
REMARK                            x       y       z     vdW  Elec       q    Type
REMARK                         _______ _______ _______ _____ _____    ______ ____
ROOT
ATOM      1  N   UNL     1       6.621   4.879  17.481  0.00  0.00    +0.000 N 
ATOM      2  N   UNL     1       7.179   4.766  16.259  0.00  0.00    +0.000 NA
ATOM      3  C   UNL     1       6.193   4.369  15.446  0.00  0.00    +0.000 A 
ATOM      4  C   UNL     1       4.997   4.198  16.191  0.00  0.00    +0.000 A 
ATOM      5  C   UNL     1       5.283   4.542  17.505  0.00  0.00    +0.000 A 
ENDROOT
BRANCH   3   6
ATOM      6  C   UNL     1       6.413   4.215  14.002  0.00  0.00    +0.000 A 
ATOM      7  C   UNL     1       5.653   3.291  13.267  0.00  0.00    +0.000 A 
ATOM      8  C   UNL     1       5.891   3.081  11.907  0.00  0.00    +0.000 A 
ATOM      9  C   UNL     1       6.893   3.798  11.258  0.00  0.00    +0.000 A 
ATOM     10  C   UNL     1       7.646   4.732  11.968  0.00  0.00    +0.000 A 
ATOM     11  C   UNL     1       7.407   4.943  13.330  0.00  0.00    +0.000 A 
ENDBRANCH   3   6
BRANCH   5  12
ATOM     12  C   UNL     1       4.436   4.589  18.679  0.00  0.00    +0.000 C 
ATOM     13  O   UNL     1       4.303   3.644  19.449  0.00  0.00    +0.000 OA
ATOM     14  N   UNL     1       3.778   5.781  18.883  0.00  0.00    +0.000 N 
ATOM     15  H   UNL     1       3.890   6.537  18.228  0.00  0.00    +0.000 HD
BRANCH  14  16
ATOM     16  C   UNL     1       2.888   5.995  19.999  0.00  0.00    +0.000 C 
BRANCH  16  17
ATOM     17  C   UNL     1       2.133   7.293  19.864  0.00  0.00    +0.000 A 
ATOM     18  C   UNL     1       2.146   7.998  18.651  0.00  0.00    +0.000 A 
ATOM     19  C   UNL     1       1.493   9.226  18.534  0.00  0.00    +0.000 A 
ATOM     20  C   UNL     1       0.808   9.760  19.624  0.00  0.00    +0.000 A 
ATOM     21  C   UNL     1       0.765   9.052  20.823  0.00  0.00    +0.000 A 
ATOM     22 BR   UNL     1      -0.164   9.773  22.303  0.00  0.00    +0.000 Br
ATOM     23  C   UNL     1       1.414   7.822  20.947  0.00  0.00    +0.000 A 
ENDBRANCH  16  17
ENDBRANCH  14  16
ENDBRANCH   5  12
BRANCH   1  24
ATOM     24  C   UNL     1       7.435   5.461  18.543  0.00  0.00    +0.000 C 
BRANCH  24  28
ATOM     25  C   UNL     1       8.932  10.336  18.354  0.00  0.00    +0.000 C 
ATOM     26  C   UNL     1       8.328   9.002  18.151  0.00  0.00    +0.000 A 
ATOM     27  C   UNL     1       8.576   7.809  18.866  0.00  0.00    +0.000 A 
ATOM     28  C   UNL     1       7.745   6.882  18.282  0.00  0.00    +0.000 A 
ATOM     29  O   UNL     1       7.046   7.482  17.282  0.00  0.00    +0.000 OA
ATOM     30  N   UNL     1       7.410   8.813  17.197  0.00  0.00    +0.000 NA
ENDBRANCH  24  28
ENDBRANCH   1  24
TORSDOF 6
ENDMDL
MODEL 2
REMARK VINA RESULT:      -8.3      3.614      7.498
REMARK  Name = 
REMARK  7 active torsions:
REMARK  status: ('A' for Active; 'I' for Inactive)
REMARK    1  A    between atoms: C_1  and  C_2
REMARK    2  A    between atoms: C_4  and  C_5
REMARK    3  A    between atoms: C_5  and  N_6
REMARK    4  A    between atoms: C_8  and  C_9
REMARK    5  A    between atoms: C_16  and  C_17
REMARK    6  A    between atoms: N_19  and  C_20
REMARK    7  A    between atoms: C_20  and  C_21
REMARK                            x       y       z     vdW  Elec       q    Type
REMARK                         _______ _______ _______ _____ _____    ______ ____
ROOT
ATOM      1  N   UNL     1       5.978   4.902  17.849  0.00  0.00    +0.000 N 
ATOM      2  N   UNL     1       5.329   4.531  18.970  0.00  0.00    +0.000 NA
ATOM      3  C   UNL     1       4.075   4.256  18.589  0.00  0.00    +0.000 A 
ATOM      4  C   UNL     1       3.935   4.496  17.197  0.00  0.00    +0.000 A 
ATOM      5  C   UNL     1       5.176   4.903  16.726  0.00  0.00    +0.000 A 
ENDROOT
BRANCH   3   6
ATOM      6  C   UNL     1       3.087   3.738  19.543  0.00  0.00    +0.000 A 
ATOM      7  C   UNL     1       1.734   4.098  19.422  0.00  0.00    +0.000 A 
ATOM      8  C   UNL     1       0.789   3.670  20.357  0.00  0.00    +0.000 A 
ATOM      9  C   UNL     1       1.180   2.871  21.426  0.00  0.00    +0.000 A 
ATOM     10  C   UNL     1       2.515   2.489  21.553  0.00  0.00    +0.000 A 
ATOM     11  C   UNL     1       3.463   2.917  20.616  0.00  0.00    +0.000 A 
ENDBRANCH   3   6
BRANCH   5  12
ATOM     12  C   UNL     1       5.619   5.242  15.390  0.00  0.00    +0.000 C 
ATOM     13  O   UNL     1       5.291   6.275  14.816  0.00  0.00    +0.000 OA
ATOM     14  N   UNL     1       6.446   4.318  14.791  0.00  0.00    +0.000 N 
ATOM     15  H   UNL     1       6.688   3.469  15.275  0.00  0.00    +0.000 HD
BRANCH  14  16
ATOM     16  C   UNL     1       6.971   4.495  13.458  0.00  0.00    +0.000 C 
BRANCH  16  17
ATOM     17  C   UNL     1       6.353   3.522  12.486  0.00  0.00    +0.000 A 
ATOM     18  C   UNL     1       7.079   2.405  12.044  0.00  0.00    +0.000 A 
ATOM     19  C   UNL     1       6.533   1.529  11.103  0.00  0.00    +0.000 A 
ATOM     20  C   UNL     1       5.251   1.749  10.604  0.00  0.00    +0.000 A 
ATOM     21  C   UNL     1       4.512   2.838  11.062  0.00  0.00    +0.000 A 
ATOM     22 BR   UNL     1       2.772   3.140  10.387  0.00  0.00    +0.000 Br
ATOM     23  C   UNL     1       5.051   3.719  12.003  0.00  0.00    +0.000 A 
ENDBRANCH  16  17
ENDBRANCH  14  16
ENDBRANCH   5  12
BRANCH   1  24
ATOM     24  C   UNL     1       7.421   5.102  17.940  0.00  0.00    +0.000 C 
BRANCH  24  28
ATOM     25  C   UNL     1       8.892   9.895  18.892  0.00  0.00    +0.000 C 
ATOM     26  C   UNL     1       8.359   8.630  18.343  0.00  0.00    +0.000 A 
ATOM     27  C   UNL     1       8.443   7.331  18.892  0.00  0.00    +0.000 A 
ATOM     28  C   UNL     1       7.775   6.536  17.991  0.00  0.00    +0.000 A 
ATOM     29  O   UNL     1       7.320   7.310  16.969  0.00  0.00    +0.000 OA
ATOM     30  N   UNL     1       7.686   8.625  17.188  0.00  0.00    +0.000 NA
ENDBRANCH  24  28
ENDBRANCH   1  24
TORSDOF 6
ENDMDL
MODEL 3
REMARK VINA RESULT:      -8.3      0.993      1.337
REMARK  Name = 
REMARK  7 active torsions:
REMARK  status: ('A' for Active; 'I' for Inactive)
REMARK    1  A    between atoms: C_1  and  C_2
REMARK    2  A    between atoms: C_4  and  C_5
REMARK    3  A    between atoms: C_5  and  N_6
REMARK    4  A    between atoms: C_8  and  C_9
REMARK    5  A    between atoms: C_16  and  C_17
REMARK    6  A    between atoms: N_19  and  C_20
REMARK    7  A    between atoms: C_20  and  C_21
REMARK                            x       y       z     vdW  Elec       q    Type
REMARK                         _______ _______ _______ _____ _____    ______ ____
ROOT
ATOM      1  N   UNL     1       6.579   4.769  17.587  0.00  0.00    +0.000 N 
ATOM      2  N   UNL     1       7.133   4.744  16.358  0.00  0.00    +0.000 NA
ATOM      3  C   UNL     1       6.183   4.270  15.542  0.00  0.00    +0.000 A 
ATOM      4  C   UNL     1       5.019   3.961  16.293  0.00  0.00    +0.000 A 
ATOM      5  C   UNL     1       5.282   4.299  17.613  0.00  0.00    +0.000 A 
ENDROOT
BRANCH   3   6
ATOM      6  C   UNL     1       6.404   4.175  14.094  0.00  0.00    +0.000 A 
ATOM      7  C   UNL     1       5.638   3.287  13.321  0.00  0.00    +0.000 A 
ATOM      8  C   UNL     1       5.875   3.134  11.953  0.00  0.00    +0.000 A 
ATOM      9  C   UNL     1       6.881   3.870  11.335  0.00  0.00    +0.000 A 
ATOM     10  C   UNL     1       7.640   4.769  12.083  0.00  0.00    +0.000 A 
ATOM     11  C   UNL     1       7.402   4.923  13.453  0.00  0.00    +0.000 A 
ENDBRANCH   3   6
BRANCH   5  12
ATOM     12  C   UNL     1       4.447   4.231  18.794  0.00  0.00    +0.000 C 
ATOM     13  O   UNL     1       4.522   3.327  19.619  0.00  0.00    +0.000 OA
ATOM     14  N   UNL     1       3.547   5.263  18.939  0.00  0.00    +0.000 N 
ATOM     15  H   UNL     1       3.491   5.986  18.240  0.00  0.00    +0.000 HD
BRANCH  14  16
ATOM     16  C   UNL     1       2.633   5.346  20.053  0.00  0.00    +0.000 C 
BRANCH  16  17
ATOM     17  C   UNL     1       2.023   6.720  20.169  0.00  0.00    +0.000 A 
ATOM     18  C   UNL     1       1.240   7.056  21.284  0.00  0.00    +0.000 A 
ATOM     19  C   UNL     1       0.629   8.308  21.373  0.00  0.00    +0.000 A 
ATOM     20  C   UNL     1       0.803   9.244  20.356  0.00  0.00    +0.000 A 
ATOM     21  C   UNL     1       1.603   8.929  19.260  0.00  0.00    +0.000 A 
ATOM     22 BR   UNL     1       1.841  10.198  17.878  0.00  0.00    +0.000 Br
ATOM     23  C   UNL     1       2.219   7.679  19.164  0.00  0.00    +0.000 A 
ENDBRANCH  16  17
ENDBRANCH  14  16
ENDBRANCH   5  12
BRANCH   1  24
ATOM     24  C   UNL     1       7.341   5.404  18.658  0.00  0.00    +0.000 C 
BRANCH  24  28
ATOM     25  C   UNL     1       8.902  10.246  18.272  0.00  0.00    +0.000 C 
ATOM     26  C   UNL     1       8.272   8.917  18.131  0.00  0.00    +0.000 A 
ATOM     27  C   UNL     1       8.528   7.741  18.870  0.00  0.00    +0.000 A 
ATOM     28  C   UNL     1       7.663   6.812  18.345  0.00  0.00    +0.000 A 
ATOM     29  O   UNL     1       6.934   7.394  17.354  0.00  0.00    +0.000 OA
ATOM     30  N   UNL     1       7.315   8.717  17.218  0.00  0.00    +0.000 NA
ENDBRANCH  24  28
ENDBRANCH   1  24
TORSDOF 6
ENDMDL
MODEL 4
REMARK VINA RESULT:      -8.2      4.512      7.393
REMARK  Name = 
REMARK  7 active torsions:
REMARK  status: ('A' for Active; 'I' for Inactive)
REMARK    1  A    between atoms: C_1  and  C_2
REMARK    2  A    between atoms: C_4  and  C_5
REMARK    3  A    between atoms: C_5  and  N_6
REMARK    4  A    between atoms: C_8  and  C_9
REMARK    5  A    between atoms: C_16  and  C_17
REMARK    6  A    between atoms: N_19  and  C_20
REMARK    7  A    between atoms: C_20  and  C_21
REMARK                            x       y       z     vdW  Elec       q    Type
REMARK                         _______ _______ _______ _____ _____    ______ ____
ROOT
ATOM      1  N   UNL     1       1.575   9.154  19.499  0.00  0.00    +0.000 N 
ATOM      2  N   UNL     1       2.011   8.327  18.528  0.00  0.00    +0.000 NA
ATOM      3  C   UNL     1       2.223   7.147  19.124  0.00  0.00    +0.000 A 
ATOM      4  C   UNL     1       1.942   7.256  20.512  0.00  0.00    +0.000 A 
ATOM      5  C   UNL     1       1.513   8.555  20.741  0.00  0.00    +0.000 A 
ENDROOT
BRANCH   3   6
ATOM      6  C   UNL     1       2.634   5.968  18.352  0.00  0.00    +0.000 A 
ATOM      7  C   UNL     1       1.790   4.848  18.272  0.00  0.00    +0.000 A 
ATOM      8  C   UNL     1       2.189   3.692  17.598  0.00  0.00    +0.000 A 
ATOM      9  C   UNL     1       3.439   3.639  16.989  0.00  0.00    +0.000 A 
ATOM     10  C   UNL     1       4.283   4.747  17.044  0.00  0.00    +0.000 A 
ATOM     11  C   UNL     1       3.883   5.905  17.718  0.00  0.00    +0.000 A 
ENDBRANCH   3   6
BRANCH   5  12
ATOM     12  C   UNL     1       1.063   9.206  21.954  0.00  0.00    +0.000 C 
ATOM     13  O   UNL     1       1.819   9.517  22.868  0.00  0.00    +0.000 OA
ATOM     14  N   UNL     1      -0.289   9.460  22.021  0.00  0.00    +0.000 N 
ATOM     15  H   UNL     1      -0.892   9.180  21.265  0.00  0.00    +0.000 HD
BRANCH  14  16
ATOM     16  C   UNL     1      -0.904  10.093  23.162  0.00  0.00    +0.000 C 
BRANCH  16  17
ATOM     17  C   UNL     1      -1.320  11.509  22.853  0.00  0.00    +0.000 A 
ATOM     18  C   UNL     1      -0.433  12.381  22.204  0.00  0.00    +0.000 A 
ATOM     19  C   UNL     1      -0.791  13.709  21.962  0.00  0.00    +0.000 A 
ATOM     20  C   UNL     1      -2.043  14.178  22.353  0.00  0.00    +0.000 A 
ATOM     21  C   UNL     1      -2.941  13.309  22.971  0.00  0.00    +0.000 A 
ATOM     22 BR   UNL     1      -4.641  13.942  23.503  0.00  0.00    +0.000 Br
ATOM     23  C   UNL     1      -2.591  11.979  23.215  0.00  0.00    +0.000 A 
ENDBRANCH  16  17
ENDBRANCH  14  16
ENDBRANCH   5  12
BRANCH   1  24
ATOM     24  C   UNL     1       1.104  10.476  19.098  0.00  0.00    +0.000 C 
BRANCH  24  28
ATOM     25  C   UNL     1      -3.396  10.018  16.738  0.00  0.00    +0.000 C 
ATOM     26  C   UNL     1      -2.263  10.300  17.644  0.00  0.00    +0.000 A 
ATOM     27  C   UNL     1      -0.915   9.899  17.515  0.00  0.00    +0.000 A 
ATOM     28  C   UNL     1      -0.291  10.440  18.614  0.00  0.00    +0.000 A 
ATOM     29  O   UNL     1      -1.208  11.121  19.354  0.00  0.00    +0.000 OA
ATOM     30  N   UNL     1      -2.447  11.035  18.747  0.00  0.00    +0.000 NA
ENDBRANCH  24  28
ENDBRANCH   1  24
TORSDOF 6
ENDMDL
MODEL 5
REMARK VINA RESULT:      -8.1      4.466      7.370
REMARK  Name = 
REMARK  7 active torsions:
REMARK  status: ('A' for Active; 'I' for Inactive)
REMARK    1  A    between atoms: C_1  and  C_2
REMARK    2  A    between atoms: C_4  and  C_5
REMARK    3  A    between atoms: C_5  and  N_6
REMARK    4  A    between atoms: C_8  and  C_9
REMARK    5  A    between atoms: C_16  and  C_17
REMARK    6  A    between atoms: N_19  and  C_20
REMARK    7  A    between atoms: C_20  and  C_21
REMARK                            x       y       z     vdW  Elec       q    Type
REMARK                         _______ _______ _______ _____ _____    ______ ____
ROOT
ATOM      1  N   UNL     1       1.565   9.173  19.490  0.00  0.00    +0.000 N 
ATOM      2  N   UNL     1       2.003   8.348  18.518  0.00  0.00    +0.000 NA
ATOM      3  C   UNL     1       2.214   7.167  19.113  0.00  0.00    +0.000 A 
ATOM      4  C   UNL     1       1.932   7.274  20.500  0.00  0.00    +0.000 A 
ATOM      5  C   UNL     1       1.501   8.573  20.731  0.00  0.00    +0.000 A 
ENDROOT
BRANCH   3   6
ATOM      6  C   UNL     1       2.627   5.990  18.340  0.00  0.00    +0.000 A 
ATOM      7  C   UNL     1       1.784   4.869  18.259  0.00  0.00    +0.000 A 
ATOM      8  C   UNL     1       2.185   3.713  17.584  0.00  0.00    +0.000 A 
ATOM      9  C   UNL     1       3.435   3.662  16.974  0.00  0.00    +0.000 A 
ATOM     10  C   UNL     1       4.278   4.772  17.030  0.00  0.00    +0.000 A 
ATOM     11  C   UNL     1       3.876   5.929  17.705  0.00  0.00    +0.000 A 
ENDBRANCH   3   6
BRANCH   5  12
ATOM     12  C   UNL     1       1.051   9.221  21.944  0.00  0.00    +0.000 C 
ATOM     13  O   UNL     1       1.809   9.556  22.849  0.00  0.00    +0.000 OA
ATOM     14  N   UNL     1      -0.306   9.445  22.024  0.00  0.00    +0.000 N 
ATOM     15  H   UNL     1      -0.910   9.147  21.276  0.00  0.00    +0.000 HD
BRANCH  14  16
ATOM     16  C   UNL     1      -0.924  10.072  23.168  0.00  0.00    +0.000 C 
BRANCH  16  17
ATOM     17  C   UNL     1      -1.354  11.484  22.860  0.00  0.00    +0.000 A 
ATOM     18  C   UNL     1      -2.613  11.947  23.273  0.00  0.00    +0.000 A 
ATOM     19  C   UNL     1      -3.040  13.235  22.946  0.00  0.00    +0.000 A 
ATOM     20  C   UNL     1      -2.210  14.081  22.214  0.00  0.00    +0.000 A 
ATOM     21  C   UNL     1      -0.947  13.640  21.826  0.00  0.00    +0.000 A 
ATOM     22 BR   UNL     1       0.182  14.786  20.833  0.00  0.00    +0.000 Br
ATOM     23  C   UNL     1      -0.512  12.353  22.151  0.00  0.00    +0.000 A 
ENDBRANCH  16  17
ENDBRANCH  14  16
ENDBRANCH   5  12
BRANCH   1  24
ATOM     24  C   UNL     1       1.094  10.496  19.090  0.00  0.00    +0.000 C 
BRANCH  24  28
ATOM     25  C   UNL     1      -3.877  10.672  17.952  0.00  0.00    +0.000 C 
ATOM     26  C   UNL     1      -2.414  10.467  18.005  0.00  0.00    +0.000 A 
ATOM     27  C   UNL     1      -1.496  10.936  18.970  0.00  0.00    +0.000 A 
ATOM     28  C   UNL     1      -0.281  10.450  18.551  0.00  0.00    +0.000 A 
ATOM     29  O   UNL     1      -0.460   9.736  17.407  0.00  0.00    +0.000 OA
ATOM     30  N   UNL     1      -1.799   9.745  17.062  0.00  0.00    +0.000 NA
ENDBRANCH  24  28
ENDBRANCH   1  24
TORSDOF 6
ENDMDL
MODEL 6
REMARK VINA RESULT:      -8.0      3.281      6.152
REMARK  Name = 
REMARK  7 active torsions:
REMARK  status: ('A' for Active; 'I' for Inactive)
REMARK    1  A    between atoms: C_1  and  C_2
REMARK    2  A    between atoms: C_4  and  C_5
REMARK    3  A    between atoms: C_5  and  N_6
REMARK    4  A    between atoms: C_8  and  C_9
REMARK    5  A    between atoms: C_16  and  C_17
REMARK    6  A    between atoms: N_19  and  C_20
REMARK    7  A    between atoms: C_20  and  C_21
REMARK                            x       y       z     vdW  Elec       q    Type
REMARK                         _______ _______ _______ _____ _____    ______ ____
ROOT
ATOM      1  N   UNL     1       5.547   6.198  16.944  0.00  0.00    +0.000 N 
ATOM      2  N   UNL     1       5.103   5.584  15.829  0.00  0.00    +0.000 NA
ATOM      3  C   UNL     1       6.201   5.209  15.161  0.00  0.00    +0.000 A 
ATOM      4  C   UNL     1       7.358   5.634  15.865  0.00  0.00    +0.000 A 
ATOM      5  C   UNL     1       6.923   6.262  17.023  0.00  0.00    +0.000 A 
ENDROOT
BRANCH   3   6
ATOM      6  C   UNL     1       6.106   4.433  13.918  0.00  0.00    +0.000 A 
ATOM      7  C   UNL     1       7.206   4.357  13.048  0.00  0.00    +0.000 A 
ATOM      8  C   UNL     1       7.117   3.679  11.831  0.00  0.00    +0.000 A 
ATOM      9  C   UNL     1       5.925   3.060  11.465  0.00  0.00    +0.000 A 
ATOM     10  C   UNL     1       4.828   3.110  12.324  0.00  0.00    +0.000 A 
ATOM     11  C   UNL     1       4.917   3.789  13.544  0.00  0.00    +0.000 A 
ENDBRANCH   3   6
BRANCH   5  12
ATOM     12  C   UNL     1       7.665   6.851  18.119  0.00  0.00    +0.000 C 
ATOM     13  O   UNL     1       7.939   6.242  19.147  0.00  0.00    +0.000 OA
ATOM     14  N   UNL     1       8.052   8.159  17.933  0.00  0.00    +0.000 N 
ATOM     15  H   UNL     1       7.801   8.643  17.087  0.00  0.00    +0.000 HD
BRANCH  14  16
ATOM     16  C   UNL     1       8.790   8.899  18.928  0.00  0.00    +0.000 C 
BRANCH  16  17
ATOM     17  C   UNL     1       9.004  10.331  18.507  0.00  0.00    +0.000 A 
ATOM     18  C   UNL     1       8.013  11.014  17.786  0.00  0.00    +0.000 A 
ATOM     19  C   UNL     1       8.226  12.322  17.348  0.00  0.00    +0.000 A 
ATOM     20  C   UNL     1       9.426  12.969  17.635  0.00  0.00    +0.000 A 
ATOM     21  C   UNL     1      10.403  12.309  18.377  0.00  0.00    +0.000 A 
ATOM     22 BR   UNL     1      12.032  13.184  18.769  0.00  0.00    +0.000 Br
ATOM     23  C   UNL     1      10.197  11.001  18.821  0.00  0.00    +0.000 A 
ENDBRANCH  16  17
ENDBRANCH  14  16
ENDBRANCH   5  12
BRANCH   1  24
ATOM     24  C   UNL     1       4.556   6.566  17.951  0.00  0.00    +0.000 C 
BRANCH  24  28
ATOM     25  C   UNL     1       1.003   3.108  19.155  0.00  0.00    +0.000 C 
ATOM     26  C   UNL     1       2.235   3.885  18.902  0.00  0.00    +0.000 A 
ATOM     27  C   UNL     1       2.361   5.167  18.323  0.00  0.00    +0.000 A 
ATOM     28  C   UNL     1       3.713   5.417  18.339  0.00  0.00    +0.000 A 
ATOM     29  O   UNL     1       4.354   4.352  18.891  0.00  0.00    +0.000 OA
ATOM     30  N   UNL     1       3.429   3.389  19.246  0.00  0.00    +0.000 NA
ENDBRANCH  24  28
ENDBRANCH   1  24
TORSDOF 6
ENDMDL
MODEL 7
REMARK VINA RESULT:      -8.0      3.233      5.875
REMARK  Name = 
REMARK  7 active torsions:
REMARK  status: ('A' for Active; 'I' for Inactive)
REMARK    1  A    between atoms: C_1  and  C_2
REMARK    2  A    between atoms: C_4  and  C_5
REMARK    3  A    between atoms: C_5  and  N_6
REMARK    4  A    between atoms: C_8  and  C_9
REMARK    5  A    between atoms: C_16  and  C_17
REMARK    6  A    between atoms: N_19  and  C_20
REMARK    7  A    between atoms: C_20  and  C_21
REMARK                            x       y       z     vdW  Elec       q    Type
REMARK                         _______ _______ _______ _____ _____    ______ ____
ROOT
ATOM      1  N   UNL     1       5.485   6.303  16.421  0.00  0.00    +0.000 N 
ATOM      2  N   UNL     1       5.086   5.716  15.276  0.00  0.00    +0.000 NA
ATOM      3  C   UNL     1       6.166   5.089  14.795  0.00  0.00    +0.000 A 
ATOM      4  C   UNL     1       7.276   5.323  15.648  0.00  0.00    +0.000 A 
ATOM      5  C   UNL     1       6.821   6.101  16.704  0.00  0.00    +0.000 A 
ENDROOT
BRANCH   3   6
ATOM      6  C   UNL     1       6.089   4.265  13.582  0.00  0.00    +0.000 A 
ATOM      7  C   UNL     1       4.842   3.838  13.097  0.00  0.00    +0.000 A 
ATOM      8  C   UNL     1       4.750   3.000  11.984  0.00  0.00    +0.000 A 
ATOM      9  C   UNL     1       5.906   2.577  11.334  0.00  0.00    +0.000 A 
ATOM     10  C   UNL     1       7.152   3.005  11.791  0.00  0.00    +0.000 A 
ATOM     11  C   UNL     1       7.244   3.845  12.906  0.00  0.00    +0.000 A 
ENDBRANCH   3   6
BRANCH   5  12
ATOM     12  C   UNL     1       7.507   6.604  17.876  0.00  0.00    +0.000 C 
ATOM     13  O   UNL     1       7.715   5.925  18.875  0.00  0.00    +0.000 OA
ATOM     14  N   UNL     1       7.920   7.916  17.799  0.00  0.00    +0.000 N 
ATOM     15  H   UNL     1       7.723   8.459  16.975  0.00  0.00    +0.000 HD
BRANCH  14  16
ATOM     16  C   UNL     1       8.609   8.577  18.881  0.00  0.00    +0.000 C 
BRANCH  16  17
ATOM     17  C   UNL     1       8.861  10.031  18.571  0.00  0.00    +0.000 A 
ATOM     18  C   UNL     1       8.014  10.725  17.694  0.00  0.00    +0.000 A 
ATOM     19  C   UNL     1       8.272  12.056  17.361  0.00  0.00    +0.000 A 
ATOM     20  C   UNL     1       9.370  12.714  17.910  0.00  0.00    +0.000 A 
ATOM     21  C   UNL     1      10.198  12.041  18.806  0.00  0.00    +0.000 A 
ATOM     22 BR   UNL     1      11.689  12.931  19.553  0.00  0.00    +0.000 Br
ATOM     23  C   UNL     1       9.946  10.710  19.145  0.00  0.00    +0.000 A 
ENDBRANCH  16  17
ENDBRANCH  14  16
ENDBRANCH   5  12
BRANCH   1  24
ATOM     24  C   UNL     1       4.460   6.927  17.253  0.00  0.00    +0.000 C 
BRANCH  24  28
ATOM     25  C   UNL     1       1.270   3.626  19.482  0.00  0.00    +0.000 C 
ATOM     26  C   UNL     1       2.385   4.511  19.081  0.00  0.00    +0.000 A 
ATOM     27  C   UNL     1       2.504   5.297  17.914  0.00  0.00    +0.000 A 
ATOM     28  C   UNL     1       3.718   5.929  18.051  0.00  0.00    +0.000 A 
ATOM     29  O   UNL     1       4.288   5.544  19.224  0.00  0.00    +0.000 OA
ATOM     30  N   UNL     1       3.453   4.653  19.873  0.00  0.00    +0.000 NA
ENDBRANCH  24  28
ENDBRANCH   1  24
TORSDOF 6
ENDMDL
MODEL 8
REMARK VINA RESULT:      -7.9      3.966      7.612
REMARK  Name = 
REMARK  7 active torsions:
REMARK  status: ('A' for Active; 'I' for Inactive)
REMARK    1  A    between atoms: C_1  and  C_2
REMARK    2  A    between atoms: C_4  and  C_5
REMARK    3  A    between atoms: C_5  and  N_6
REMARK    4  A    between atoms: C_8  and  C_9
REMARK    5  A    between atoms: C_16  and  C_17
REMARK    6  A    between atoms: N_19  and  C_20
REMARK    7  A    between atoms: C_20  and  C_21
REMARK                            x       y       z     vdW  Elec       q    Type
REMARK                         _______ _______ _______ _____ _____    ______ ____
ROOT
ATOM      1  N   UNL     1       5.947   5.064  17.936  0.00  0.00    +0.000 N 
ATOM      2  N   UNL     1       5.318   4.707  19.073  0.00  0.00    +0.000 NA
ATOM      3  C   UNL     1       4.061   4.419  18.717  0.00  0.00    +0.000 A 
ATOM      4  C   UNL     1       3.896   4.636  17.324  0.00  0.00    +0.000 A 
ATOM      5  C   UNL     1       5.127   5.042  16.826  0.00  0.00    +0.000 A 
ENDROOT
BRANCH   3   6
ATOM      6  C   UNL     1       3.091   3.911  19.695  0.00  0.00    +0.000 A 
ATOM      7  C   UNL     1       3.505   3.030  20.707  0.00  0.00    +0.000 A 
ATOM      8  C   UNL     1       2.588   2.484  21.608  0.00  0.00    +0.000 A 
ATOM      9  C   UNL     1       1.239   2.814  21.513  0.00  0.00    +0.000 A 
ATOM     10  C   UNL     1       0.812   3.701  20.525  0.00  0.00    +0.000 A 
ATOM     11  C   UNL     1       1.731   4.248  19.623  0.00  0.00    +0.000 A 
ENDBRANCH   3   6
BRANCH   5  12
ATOM     12  C   UNL     1       5.546   5.362  15.478  0.00  0.00    +0.000 C 
ATOM     13  O   UNL     1       5.308   6.437  14.938  0.00  0.00    +0.000 OA
ATOM     14  N   UNL     1       6.242   4.368  14.825  0.00  0.00    +0.000 N 
ATOM     15  H   UNL     1       6.410   3.488  15.283  0.00  0.00    +0.000 HD
BRANCH  14  16
ATOM     16  C   UNL     1       6.725   4.518  13.473  0.00  0.00    +0.000 C 
BRANCH  16  17
ATOM     17  C   UNL     1       5.968   3.635  12.514  0.00  0.00    +0.000 A 
ATOM     18  C   UNL     1       4.828   4.119  11.855  0.00  0.00    +0.000 A 
ATOM     19  C   UNL     1       4.091   3.291  11.006  0.00  0.00    +0.000 A 
ATOM     20  C   UNL     1       4.492   1.973  10.795  0.00  0.00    +0.000 A 
ATOM     21  C   UNL     1       5.640   1.494  11.422  0.00  0.00    +0.000 A 
ATOM     22 BR   UNL     1       6.187  -0.293  11.137  0.00  0.00    +0.000 Br
ATOM     23  C   UNL     1       6.383   2.317  12.271  0.00  0.00    +0.000 A 
ENDBRANCH  16  17
ENDBRANCH  14  16
ENDBRANCH   5  12
BRANCH   1  24
ATOM     24  C   UNL     1       7.390   5.274  18.000  0.00  0.00    +0.000 C 
BRANCH  24  28
ATOM     25  C   UNL     1       8.230  10.294  17.633  0.00  0.00    +0.000 C 
ATOM     26  C   UNL     1       8.154   8.866  18.009  0.00  0.00    +0.000 A 
ATOM     27  C   UNL     1       7.451   7.825  17.363  0.00  0.00    +0.000 A 
ATOM     28  C   UNL     1       7.732   6.707  18.112  0.00  0.00    +0.000 A 
ATOM     29  O   UNL     1       8.551   7.057  19.141  0.00  0.00    +0.000 OA
ATOM     30  N   UNL     1       8.818   8.413  19.078  0.00  0.00    +0.000 NA
ENDBRANCH  24  28
ENDBRANCH   1  24
TORSDOF 6
ENDMDL
MODEL 9
REMARK VINA RESULT:      -7.9      3.222      6.461
REMARK  Name = 
REMARK  7 active torsions:
REMARK  status: ('A' for Active; 'I' for Inactive)
REMARK    1  A    between atoms: C_1  and  C_2
REMARK    2  A    between atoms: C_4  and  C_5
REMARK    3  A    between atoms: C_5  and  N_6
REMARK    4  A    between atoms: C_8  and  C_9
REMARK    5  A    between atoms: C_16  and  C_17
REMARK    6  A    between atoms: N_19  and  C_20
REMARK    7  A    between atoms: C_20  and  C_21
REMARK                            x       y       z     vdW  Elec       q    Type
REMARK                         _______ _______ _______ _____ _____    ______ ____
ROOT
ATOM      1  N   UNL     1       6.494   7.226  17.327  0.00  0.00    +0.000 N 
ATOM      2  N   UNL     1       6.837   8.529  17.332  0.00  0.00    +0.000 NA
ATOM      3  C   UNL     1       7.927   8.614  18.104  0.00  0.00    +0.000 A 
ATOM      4  C   UNL     1       8.248   7.331  18.621  0.00  0.00    +0.000 A 
ATOM      5  C   UNL     1       7.321   6.438  18.102  0.00  0.00    +0.000 A 
ENDROOT
BRANCH   3   6
ATOM      6  C   UNL     1       8.637   9.887  18.281  0.00  0.00    +0.000 A 
ATOM      7  C   UNL     1       9.612  10.017  19.283  0.00  0.00    +0.000 A 
ATOM      8  C   UNL     1      10.252  11.238  19.511  0.00  0.00    +0.000 A 
ATOM      9  C   UNL     1       9.929  12.347  18.736  0.00  0.00    +0.000 A 
ATOM     10  C   UNL     1       8.976  12.232  17.726  0.00  0.00    +0.000 A 
ATOM     11  C   UNL     1       8.335  11.010  17.497  0.00  0.00    +0.000 A 
ENDBRANCH   3   6
BRANCH   5  12
ATOM     12  C   UNL     1       7.192   5.005  18.262  0.00  0.00    +0.000 C 
ATOM     13  O   UNL     1       8.064   4.211  17.927  0.00  0.00    +0.000 OA
ATOM     14  N   UNL     1       6.008   4.579  18.823  0.00  0.00    +0.000 N 
ATOM     15  H   UNL     1       5.300   5.248  19.074  0.00  0.00    +0.000 HD
BRANCH  14  16
ATOM     16  C   UNL     1       5.712   3.183  19.044  0.00  0.00    +0.000 C 
BRANCH  16  17
ATOM     17  C   UNL     1       4.227   2.926  19.046  0.00  0.00    +0.000 A 
ATOM     18  C   UNL     1       3.535   2.759  17.837  0.00  0.00    +0.000 A 
ATOM     19  C   UNL     1       2.152   2.573  17.828  0.00  0.00    +0.000 A 
ATOM     20  C   UNL     1       1.444   2.539  19.028  0.00  0.00    +0.000 A 
ATOM     21  C   UNL     1       2.127   2.674  20.234  0.00  0.00    +0.000 A 
ATOM     22 BR   UNL     1       1.170   2.628  21.863  0.00  0.00    +0.000 Br
ATOM     23  C   UNL     1       3.511   2.858  20.251  0.00  0.00    +0.000 A 
ENDBRANCH  16  17
ENDBRANCH  14  16
ENDBRANCH   5  12
BRANCH   1  24
ATOM     24  C   UNL     1       5.426   6.813  16.422  0.00  0.00    +0.000 C 
BRANCH  24  28
ATOM     25  C   UNL     1       6.383   3.299  12.848  0.00  0.00    +0.000 C 
ATOM     26  C   UNL     1       6.412   4.393  13.841  0.00  0.00    +0.000 A 
ATOM     27  C   UNL     1       5.342   4.917  14.600  0.00  0.00    +0.000 A 
ATOM     28  C   UNL     1       5.919   5.899  15.370  0.00  0.00    +0.000 A 
ATOM     29  O   UNL     1       7.249   5.958  15.090  0.00  0.00    +0.000 OA
ATOM     30  N   UNL     1       7.561   5.013  14.130  0.00  0.00    +0.000 NA
ENDBRANCH  24  28
ENDBRANCH   1  24
TORSDOF 6
ENDMDL
