MODEL 1
REMARK VINA RESULT:      -8.0      0.000      0.000
REMARK  Name = 
REMARK  5 active torsions:
REMARK  status: ('A' for Active; 'I' for Inactive)
REMARK    1  A    between atoms: C_1  and  O_2
REMARK    2  A    between atoms: O_2  and  C_3
REMARK    3  A    between atoms: C_8  and  C_9
REMARK    4  A    between atoms: N_11  and  C_12
REMARK    5  A    between atoms: C_15  and  C_16
REMARK                            x       y       z     vdW  Elec       q    Type
REMARK                         _______ _______ _______ _____ _____    ______ ____
ROOT
ATOM      1  C   UNL     1       6.307   5.190  15.881  0.00  0.00    +0.000 A 
ATOM      2  C   UNL     1       6.691   4.401  16.966  0.00  0.00    +0.000 A 
ATOM      3  C   UNL     1       6.008   4.465  18.191  0.00  0.00    +0.000 A 
ATOM      4  C   UNL     1       4.929   5.353  18.284  0.00  0.00    +0.000 A 
ATOM      5  N   UNL     1       4.084   5.639  19.333  0.00  0.00    +0.000 N 
ATOM      6  C   UNL     1       3.155   6.593  18.970  0.00  0.00    +0.000 A 
ATOM      7  C   UNL     1       3.429   6.929  17.657  0.00  0.00    +0.000 A 
ATOM      8  C   UNL     1       4.534   6.157  17.219  0.00  0.00    +0.000 A 
ATOM      9  C   UNL     1       5.236   6.080  16.006  0.00  0.00    +0.000 A 
ATOM     10  H   UNL     1       4.124   5.216  20.252  0.00  0.00    +0.000 HD
ENDROOT
BRANCH   6  11
ATOM     11  C   UNL     1       2.150   7.069  19.899  0.00  0.00    +0.000 C 
ATOM     12  O   UNL     1       1.592   6.286  20.663  0.00  0.00    +0.000 OA
ATOM     13  N   UNL     1       1.877   8.423  19.797  0.00  0.00    +0.000 N 
ATOM     14  H   UNL     1       2.296   8.911  19.018  0.00  0.00    +0.000 HD
BRANCH  13  15
ATOM     15  C   UNL     1       0.959   9.163  20.568  0.00  0.00    +0.000 A 
ATOM     16  C   UNL     1       0.143  10.161  20.033  0.00  0.00    +0.000 A 
ATOM     17  C   UNL     1      -0.701  10.912  20.858  0.00  0.00    +0.000 A 
ATOM     18  C   UNL     1      -0.745  10.670  22.232  0.00  0.00    +0.000 A 
ATOM     19  C   UNL     1      -1.597  11.511  23.130  0.00  0.00    +0.000 C 
ATOM     20  C   UNL     1       0.040   9.640  22.751  0.00  0.00    +0.000 A 
ATOM     21  F   UNL     1       0.011   9.380  24.067  0.00  0.00    +0.000 F 
ATOM     22  C   UNL     1       0.875   8.881  21.935  0.00  0.00    +0.000 A 
ENDBRANCH  13  15
ENDBRANCH   6  11
BRANCH   1  24
ATOM     23  C   UNL     1       6.518   4.214  13.739  0.00  0.00    +0.000 C 
ATOM     24  O   UNL     1       6.920   5.220  14.658  0.00  0.00    +0.000 OA
ENDBRANCH   1  24
TORSDOF 3
ENDMDL
MODEL 2
REMARK VINA RESULT:      -7.9      1.187      1.566
REMARK  Name = 
REMARK  5 active torsions:
REMARK  status: ('A' for Active; 'I' for Inactive)
REMARK    1  A    between atoms: C_1  and  O_2
REMARK    2  A    between atoms: O_2  and  C_3
REMARK    3  A    between atoms: C_8  and  C_9
REMARK    4  A    between atoms: N_11  and  C_12
REMARK    5  A    between atoms: C_15  and  C_16
REMARK                            x       y       z     vdW  Elec       q    Type
REMARK                         _______ _______ _______ _____ _____    ______ ____
ROOT
ATOM      1  C   UNL     1       5.808   5.080  15.358  0.00  0.00    +0.000 A 
ATOM      2  C   UNL     1       5.554   3.842  15.952  0.00  0.00    +0.000 A 
ATOM      3  C   UNL     1       4.715   3.732  17.072  0.00  0.00    +0.000 A 
ATOM      4  C   UNL     1       4.144   4.909  17.573  0.00  0.00    +0.000 A 
ATOM      5  N   UNL     1       3.301   5.120  18.640  0.00  0.00    +0.000 N 
ATOM      6  C   UNL     1       2.991   6.460  18.765  0.00  0.00    +0.000 A 
ATOM      7  C   UNL     1       3.670   7.115  17.755  0.00  0.00    +0.000 A 
ATOM      8  C   UNL     1       4.391   6.154  17.002  0.00  0.00    +0.000 A 
ATOM      9  C   UNL     1       5.238   6.241  15.887  0.00  0.00    +0.000 A 
ATOM     10  H   UNL     1       2.945   4.402  19.259  0.00  0.00    +0.000 HD
ENDROOT
BRANCH   6  11
ATOM     11  C   UNL     1       2.118   6.944  19.815  0.00  0.00    +0.000 C 
ATOM     12  O   UNL     1       1.625   6.160  20.621  0.00  0.00    +0.000 OA
ATOM     13  N   UNL     1       1.884   8.308  19.776  0.00  0.00    +0.000 N 
ATOM     14  H   UNL     1       2.228   8.802  18.965  0.00  0.00    +0.000 HD
BRANCH  13  15
ATOM     15  C   UNL     1       1.089   9.057  20.665  0.00  0.00    +0.000 A 
ATOM     16  C   UNL     1       1.140   8.901  22.051  0.00  0.00    +0.000 A 
ATOM     17  C   UNL     1       0.279   9.623  22.883  0.00  0.00    +0.000 A 
ATOM     18  C   UNL     1      -0.645  10.517  22.340  0.00  0.00    +0.000 A 
ATOM     19  C   UNL     1      -1.614  11.246  23.218  0.00  0.00    +0.000 C 
ATOM     20  C   UNL     1      -0.658  10.701  20.957  0.00  0.00    +0.000 A 
ATOM     21  F   UNL     1      -1.529  11.561  20.408  0.00  0.00    +0.000 F 
ATOM     22  C   UNL     1       0.204   9.994  20.122  0.00  0.00    +0.000 A 
ENDBRANCH  13  15
ENDBRANCH   6  11
BRANCH   1  24
ATOM     23  C   UNL     1       6.675   4.252  13.321  0.00  0.00    +0.000 C 
ATOM     24  O   UNL     1       6.627   5.296  14.283  0.00  0.00    +0.000 OA
ENDBRANCH   1  24
TORSDOF 3
ENDMDL
MODEL 3
REMARK VINA RESULT:      -7.8      1.299      1.649
REMARK  Name = 
REMARK  5 active torsions:
REMARK  status: ('A' for Active; 'I' for Inactive)
REMARK    1  A    between atoms: C_1  and  O_2
REMARK    2  A    between atoms: O_2  and  C_3
REMARK    3  A    between atoms: C_8  and  C_9
REMARK    4  A    between atoms: N_11  and  C_12
REMARK    5  A    between atoms: C_15  and  C_16
REMARK                            x       y       z     vdW  Elec       q    Type
REMARK                         _______ _______ _______ _____ _____    ______ ____
ROOT
ATOM      1  C   UNL     1       5.977   4.052  16.185  0.00  0.00    +0.000 A 
ATOM      2  C   UNL     1       6.878   4.377  17.201  0.00  0.00    +0.000 A 
ATOM      3  C   UNL     1       6.445   4.995  18.385  0.00  0.00    +0.000 A 
ATOM      4  C   UNL     1       5.079   5.276  18.508  0.00  0.00    +0.000 A 
ATOM      5  N   UNL     1       4.368   5.870  19.526  0.00  0.00    +0.000 N 
ATOM      6  C   UNL     1       3.025   5.943  19.211  0.00  0.00    +0.000 A 
ATOM      7  C   UNL     1       2.887   5.392  17.951  0.00  0.00    +0.000 A 
ATOM      8  C   UNL     1       4.165   4.969  17.504  0.00  0.00    +0.000 A 
ATOM      9  C   UNL     1       4.621   4.357  16.326  0.00  0.00    +0.000 A 
ATOM     10  H   UNL     1       4.759   6.210  20.396  0.00  0.00    +0.000 HD
ENDROOT
BRANCH   6  11
ATOM     11  C   UNL     1       2.061   6.528  20.120  0.00  0.00    +0.000 C 
ATOM     12  O   UNL     1       1.321   5.808  20.785  0.00  0.00    +0.000 OA
ATOM     13  N   UNL     1       2.044   7.913  20.116  0.00  0.00    +0.000 N 
ATOM     14  H   UNL     1       2.596   8.369  19.405  0.00  0.00    +0.000 HD
BRANCH  13  15
ATOM     15  C   UNL     1       1.223   8.752  20.895  0.00  0.00    +0.000 A 
ATOM     16  C   UNL     1       1.215   8.729  22.290  0.00  0.00    +0.000 A 
ATOM     17  C   UNL     1       0.330   9.536  23.013  0.00  0.00    +0.000 A 
ATOM     18  C   UNL     1      -0.558  10.384  22.348  0.00  0.00    +0.000 A 
ATOM     19  C   UNL     1      -1.551  11.203  23.110  0.00  0.00    +0.000 C 
ATOM     20  C   UNL     1      -0.511  10.434  20.954  0.00  0.00    +0.000 A 
ATOM     21  F   UNL     1      -1.347  11.245  20.289  0.00  0.00    +0.000 F 
ATOM     22  C   UNL     1       0.375   9.641  20.228  0.00  0.00    +0.000 A 
ENDBRANCH  13  15
ENDBRANCH   6  11
BRANCH   1  24
ATOM     23  C   UNL     1       5.757   4.096  13.831  0.00  0.00    +0.000 C 
ATOM     24  O   UNL     1       6.300   3.473  14.987  0.00  0.00    +0.000 OA
ENDBRANCH   1  24
TORSDOF 3
ENDMDL
MODEL 4
REMARK VINA RESULT:      -7.8      3.089      8.741
REMARK  Name = 
REMARK  5 active torsions:
REMARK  status: ('A' for Active; 'I' for Inactive)
REMARK    1  A    between atoms: C_1  and  O_2
REMARK    2  A    between atoms: O_2  and  C_3
REMARK    3  A    between atoms: C_8  and  C_9
REMARK    4  A    between atoms: N_11  and  C_12
REMARK    5  A    between atoms: C_15  and  C_16
REMARK                            x       y       z     vdW  Elec       q    Type
REMARK                         _______ _______ _______ _____ _____    ______ ____
ROOT
ATOM      1  C   UNL     1      -1.229  11.324  22.521  0.00  0.00    +0.000 A 
ATOM      2  C   UNL     1      -0.793  10.245  23.292  0.00  0.00    +0.000 A 
ATOM      3  C   UNL     1       0.049   9.260  22.753  0.00  0.00    +0.000 A 
ATOM      4  C   UNL     1       0.433   9.398  21.413  0.00  0.00    +0.000 A 
ATOM      5  N   UNL     1       1.230   8.607  20.617  0.00  0.00    +0.000 N 
ATOM      6  C   UNL     1       1.333   9.135  19.345  0.00  0.00    +0.000 A 
ATOM      7  C   UNL     1       0.567  10.285  19.334  0.00  0.00    +0.000 A 
ATOM      8  C   UNL     1       0.002  10.460  20.623  0.00  0.00    +0.000 A 
ATOM      9  C   UNL     1      -0.844  11.430  21.182  0.00  0.00    +0.000 A 
ATOM     10  H   UNL     1       1.688   7.752  20.908  0.00  0.00    +0.000 HD
ENDROOT
BRANCH   6  11
ATOM     11  C   UNL     1       2.119   8.487  18.314  0.00  0.00    +0.000 C 
ATOM     12  O   UNL     1       2.173   8.967  17.185  0.00  0.00    +0.000 OA
ATOM     13  N   UNL     1       2.726   7.310  18.718  0.00  0.00    +0.000 N 
ATOM     14  H   UNL     1       2.465   6.955  19.626  0.00  0.00    +0.000 HD
BRANCH  13  15
ATOM     15  C   UNL     1       3.550   6.473  17.941  0.00  0.00    +0.000 A 
ATOM     16  C   UNL     1       4.627   6.946  17.189  0.00  0.00    +0.000 A 
ATOM     17  C   UNL     1       5.370   6.080  16.381  0.00  0.00    +0.000 A 
ATOM     18  C   UNL     1       5.050   4.723  16.317  0.00  0.00    +0.000 A 
ATOM     19  C   UNL     1       5.798   3.801  15.407  0.00  0.00    +0.000 C 
ATOM     20  C   UNL     1       4.001   4.250  17.107  0.00  0.00    +0.000 A 
ATOM     21  F   UNL     1       3.676   2.949  17.073  0.00  0.00    +0.000 F 
ATOM     22  C   UNL     1       3.262   5.105  17.923  0.00  0.00    +0.000 A 
ENDBRANCH  13  15
ENDBRANCH   6  11
BRANCH   1  24
ATOM     23  C   UNL     1      -2.959  12.837  21.965  0.00  0.00    +0.000 C 
ATOM     24  O   UNL     1      -2.068  12.320  22.944  0.00  0.00    +0.000 OA
ENDBRANCH   1  24
TORSDOF 3
ENDMDL
MODEL 5
REMARK VINA RESULT:      -7.7      3.174      8.886
REMARK  Name = 
REMARK  5 active torsions:
REMARK  status: ('A' for Active; 'I' for Inactive)
REMARK    1  A    between atoms: C_1  and  O_2
REMARK    2  A    between atoms: O_2  and  C_3
REMARK    3  A    between atoms: C_8  and  C_9
REMARK    4  A    between atoms: N_11  and  C_12
REMARK    5  A    between atoms: C_15  and  C_16
REMARK                            x       y       z     vdW  Elec       q    Type
REMARK                         _______ _______ _______ _____ _____    ______ ____
ROOT
ATOM      1  C   UNL     1      -1.463  11.601  22.391  0.00  0.00    +0.000 A 
ATOM      2  C   UNL     1      -1.024  10.567  23.219  0.00  0.00    +0.000 A 
ATOM      3  C   UNL     1      -0.169   9.563  22.737  0.00  0.00    +0.000 A 
ATOM      4  C   UNL     1       0.223   9.635  21.395  0.00  0.00    +0.000 A 
ATOM      5  N   UNL     1       1.032   8.811  20.646  0.00  0.00    +0.000 N 
ATOM      6  C   UNL     1       1.140   9.273  19.350  0.00  0.00    +0.000 A 
ATOM      7  C   UNL     1       0.364  10.415  19.274  0.00  0.00    +0.000 A 
ATOM      8  C   UNL     1      -0.211  10.651  20.548  0.00  0.00    +0.000 A 
ATOM      9  C   UNL     1      -1.070  11.641  21.051  0.00  0.00    +0.000 A 
ATOM     10  H   UNL     1       1.496   7.976  20.984  0.00  0.00    +0.000 HD
ENDROOT
BRANCH   6  11
ATOM     11  C   UNL     1       1.938   8.580  18.358  0.00  0.00    +0.000 C 
ATOM     12  O   UNL     1       2.151   9.096  17.265  0.00  0.00    +0.000 OA
ATOM     13  N   UNL     1       2.367   7.324  18.752  0.00  0.00    +0.000 N 
ATOM     14  H   UNL     1       1.984   6.965  19.615  0.00  0.00    +0.000 HD
BRANCH  13  15
ATOM     15  C   UNL     1       3.158   6.427  18.007  0.00  0.00    +0.000 A 
ATOM     16  C   UNL     1       2.822   5.086  17.821  0.00  0.00    +0.000 A 
ATOM     17  C   UNL     1       3.679   4.223  17.130  0.00  0.00    +0.000 A 
ATOM     18  C   UNL     1       4.886   4.693  16.609  0.00  0.00    +0.000 A 
ATOM     19  C   UNL     1       5.838   3.763  15.925  0.00  0.00    +0.000 C 
ATOM     20  C   UNL     1       5.193   6.046  16.760  0.00  0.00    +0.000 A 
ATOM     21  F   UNL     1       6.342   6.527  16.262  0.00  0.00    +0.000 F 
ATOM     22  C   UNL     1       4.339   6.914  17.438  0.00  0.00    +0.000 A 
ENDBRANCH  13  15
ENDBRANCH   6  11
BRANCH   1  24
ATOM     23  C   UNL     1      -3.280  12.278  23.743  0.00  0.00    +0.000 C 
ATOM     24  O   UNL     1      -2.313  12.610  22.756  0.00  0.00    +0.000 OA
ENDBRANCH   1  24
TORSDOF 3
ENDMDL
MODEL 6
REMARK VINA RESULT:      -7.5      7.076      8.218
REMARK  Name = 
REMARK  5 active torsions:
REMARK  status: ('A' for Active; 'I' for Inactive)
REMARK    1  A    between atoms: C_1  and  O_2
REMARK    2  A    between atoms: O_2  and  C_3
REMARK    3  A    between atoms: C_8  and  C_9
REMARK    4  A    between atoms: N_11  and  C_12
REMARK    5  A    between atoms: C_15  and  C_16
REMARK                            x       y       z     vdW  Elec       q    Type
REMARK                         _______ _______ _______ _____ _____    ______ ____
ROOT
ATOM      1  C   UNL     1       6.578   5.074  17.010  0.00  0.00    +0.000 A 
ATOM      2  C   UNL     1       7.225   4.618  18.159  0.00  0.00    +0.000 A 
ATOM      3  C   UNL     1       7.974   5.489  18.966  0.00  0.00    +0.000 A 
ATOM      4  C   UNL     1       8.048   6.832  18.575  0.00  0.00    +0.000 A 
ATOM      5  N   UNL     1       8.697   7.903  19.145  0.00  0.00    +0.000 N 
ATOM      6  C   UNL     1       8.494   9.052  18.407  0.00  0.00    +0.000 A 
ATOM      7  C   UNL     1       7.705   8.692  17.330  0.00  0.00    +0.000 A 
ATOM      8  C   UNL     1       7.419   7.307  17.428  0.00  0.00    +0.000 A 
ATOM      9  C   UNL     1       6.681   6.416  16.633  0.00  0.00    +0.000 A 
ATOM     10  H   UNL     1       9.251   7.872  19.993  0.00  0.00    +0.000 HD
ENDROOT
BRANCH   6  11
ATOM     11  C   UNL     1       9.074  10.321  18.798  0.00  0.00    +0.000 C 
ATOM     12  O   UNL     1       9.358  10.536  19.973  0.00  0.00    +0.000 OA
ATOM     13  N   UNL     1       9.219  11.224  17.758  0.00  0.00    +0.000 N 
ATOM     14  H   UNL     1       8.798  10.969  16.877  0.00  0.00    +0.000 HD
BRANCH  13  15
ATOM     15  C   UNL     1       9.755  12.524  17.834  0.00  0.00    +0.000 A 
ATOM     16  C   UNL     1      11.077  12.825  17.502  0.00  0.00    +0.000 A 
ATOM     17  C   UNL     1      11.577  14.121  17.662  0.00  0.00    +0.000 A 
ATOM     18  C   UNL     1      10.757  15.139  18.152  0.00  0.00    +0.000 A 
ATOM     19  C   UNL     1      11.301  16.514  18.386  0.00  0.00    +0.000 C 
ATOM     20  C   UNL     1       9.425  14.840  18.437  0.00  0.00    +0.000 A 
ATOM     21  F   UNL     1       8.612  15.801  18.901  0.00  0.00    +0.000 F 
ATOM     22  C   UNL     1       8.917  13.554  18.271  0.00  0.00    +0.000 A 
ENDBRANCH  13  15
ENDBRANCH   6  11
BRANCH   1  24
ATOM     23  C   UNL     1       5.557   4.892  14.885  0.00  0.00    +0.000 C 
ATOM     24  O   UNL     1       5.847   4.304  16.146  0.00  0.00    +0.000 OA
ENDBRANCH   1  24
TORSDOF 3
ENDMDL
MODEL 7
REMARK VINA RESULT:      -7.5      5.733      7.953
REMARK  Name = 
REMARK  5 active torsions:
REMARK  status: ('A' for Active; 'I' for Inactive)
REMARK    1  A    between atoms: C_1  and  O_2
REMARK    2  A    between atoms: O_2  and  C_3
REMARK    3  A    between atoms: C_8  and  C_9
REMARK    4  A    between atoms: N_11  and  C_12
REMARK    5  A    between atoms: C_15  and  C_16
REMARK                            x       y       z     vdW  Elec       q    Type
REMARK                         _______ _______ _______ _____ _____    ______ ____
ROOT
ATOM      1  C   UNL     1       9.681  12.645  18.995  0.00  0.00    +0.000 A 
ATOM      2  C   UNL     1      10.202  11.893  20.049  0.00  0.00    +0.000 A 
ATOM      3  C   UNL     1       9.951  10.515  20.152  0.00  0.00    +0.000 A 
ATOM      4  C   UNL     1       9.158   9.925  19.160  0.00  0.00    +0.000 A 
ATOM      5  N   UNL     1       8.740   8.624  18.995  0.00  0.00    +0.000 N 
ATOM      6  C   UNL     1       7.961   8.498  17.862  0.00  0.00    +0.000 A 
ATOM      7  C   UNL     1       7.873   9.759  17.304  0.00  0.00    +0.000 A 
ATOM      8  C   UNL     1       8.620  10.658  18.106  0.00  0.00    +0.000 A 
ATOM      9  C   UNL     1       8.879  12.035  18.027  0.00  0.00    +0.000 A 
ATOM     10  H   UNL     1       8.965   7.851  19.609  0.00  0.00    +0.000 HD
ENDROOT
BRANCH   6  11
ATOM     11  C   UNL     1       7.395   7.224  17.465  0.00  0.00    +0.000 C 
ATOM     12  O   UNL     1       7.867   6.607  16.514  0.00  0.00    +0.000 OA
ATOM     13  N   UNL     1       6.297   6.833  18.212  0.00  0.00    +0.000 N 
ATOM     14  H   UNL     1       5.924   7.513  18.858  0.00  0.00    +0.000 HD
BRANCH  13  15
ATOM     15  C   UNL     1       5.550   5.648  18.063  0.00  0.00    +0.000 A 
ATOM     16  C   UNL     1       4.811   5.352  16.917  0.00  0.00    +0.000 A 
ATOM     17  C   UNL     1       4.032   4.192  16.849  0.00  0.00    +0.000 A 
ATOM     18  C   UNL     1       3.984   3.307  17.928  0.00  0.00    +0.000 A 
ATOM     19  C   UNL     1       3.104   2.098  17.889  0.00  0.00    +0.000 C 
ATOM     20  C   UNL     1       4.763   3.588  19.051  0.00  0.00    +0.000 A 
ATOM     21  F   UNL     1       4.744   2.751  20.100  0.00  0.00    +0.000 F 
ATOM     22  C   UNL     1       5.550   4.736  19.122  0.00  0.00    +0.000 A 
ENDBRANCH  13  15
ENDBRANCH   6  11
BRANCH   1  24
ATOM     23  C   UNL     1       8.779  14.667  18.165  0.00  0.00    +0.000 C 
ATOM     24  O   UNL     1       9.846  13.993  18.819  0.00  0.00    +0.000 OA
ENDBRANCH   1  24
TORSDOF 3
ENDMDL
MODEL 8
REMARK VINA RESULT:      -7.5      1.012      1.377
REMARK  Name = 
REMARK  5 active torsions:
REMARK  status: ('A' for Active; 'I' for Inactive)
REMARK    1  A    between atoms: C_1  and  O_2
REMARK    2  A    between atoms: O_2  and  C_3
REMARK    3  A    between atoms: C_8  and  C_9
REMARK    4  A    between atoms: N_11  and  C_12
REMARK    5  A    between atoms: C_15  and  C_16
REMARK                            x       y       z     vdW  Elec       q    Type
REMARK                         _______ _______ _______ _____ _____    ______ ____
ROOT
ATOM      1  C   UNL     1       5.467   4.520  15.620  0.00  0.00    +0.000 A 
ATOM      2  C   UNL     1       5.670   5.860  15.287  0.00  0.00    +0.000 A 
ATOM      3  C   UNL     1       5.052   6.890  16.013  0.00  0.00    +0.000 A 
ATOM      4  C   UNL     1       4.223   6.524  17.081  0.00  0.00    +0.000 A 
ATOM      5  N   UNL     1       3.490   7.290  17.959  0.00  0.00    +0.000 N 
ATOM      6  C   UNL     1       2.812   6.494  18.860  0.00  0.00    +0.000 A 
ATOM      7  C   UNL     1       3.116   5.185  18.533  0.00  0.00    +0.000 A 
ATOM      8  C   UNL     1       3.999   5.194  17.425  0.00  0.00    +0.000 A 
ATOM      9  C   UNL     1       4.623   4.180  16.681  0.00  0.00    +0.000 A 
ATOM     10  H   UNL     1       3.443   8.302  17.959  0.00  0.00    +0.000 HD
ENDROOT
BRANCH   6  11
ATOM     11  C   UNL     1       1.965   7.061  19.890  0.00  0.00    +0.000 C 
ATOM     12  O   UNL     1       1.627   6.382  20.856  0.00  0.00    +0.000 OA
ATOM     13  N   UNL     1       1.570   8.365  19.646  0.00  0.00    +0.000 N 
ATOM     14  H   UNL     1       1.794   8.742  18.737  0.00  0.00    +0.000 HD
BRANCH  13  15
ATOM     15  C   UNL     1       0.757   9.171  20.467  0.00  0.00    +0.000 A 
ATOM     16  C   UNL     1      -0.006  10.232  19.978  0.00  0.00    +0.000 A 
ATOM     17  C   UNL     1      -0.742  11.044  20.848  0.00  0.00    +0.000 A 
ATOM     18  C   UNL     1      -0.729  10.801  22.223  0.00  0.00    +0.000 A 
ATOM     19  C   UNL     1      -1.461  11.702  23.167  0.00  0.00    +0.000 C 
ATOM     20  C   UNL     1       0.001   9.710  22.698  0.00  0.00    +0.000 A 
ATOM     21  F   UNL     1       0.025   9.448  24.013  0.00  0.00    +0.000 F 
ATOM     22  C   UNL     1       0.727   8.891  21.836  0.00  0.00    +0.000 A 
ENDBRANCH  13  15
ENDBRANCH   6  11
BRANCH   1  24
ATOM     23  C   UNL     1       6.287   3.641  13.584  0.00  0.00    +0.000 C 
ATOM     24  O   UNL     1       6.001   3.444  14.962  0.00  0.00    +0.000 OA
ENDBRANCH   1  24
TORSDOF 3
ENDMDL
MODEL 9
REMARK VINA RESULT:      -7.4      1.355      1.409
REMARK  Name = 
REMARK  5 active torsions:
REMARK  status: ('A' for Active; 'I' for Inactive)
REMARK    1  A    between atoms: C_1  and  O_2
REMARK    2  A    between atoms: O_2  and  C_3
REMARK    3  A    between atoms: C_8  and  C_9
REMARK    4  A    between atoms: N_11  and  C_12
REMARK    5  A    between atoms: C_15  and  C_16
REMARK                            x       y       z     vdW  Elec       q    Type
REMARK                         _______ _______ _______ _____ _____    ______ ____
ROOT
ATOM      1  C   UNL     1       5.710   4.306  15.886  0.00  0.00    +0.000 A 
ATOM      2  C   UNL     1       4.953   3.478  16.716  0.00  0.00    +0.000 A 
ATOM      3  C   UNL     1       3.965   4.004  17.563  0.00  0.00    +0.000 A 
ATOM      4  C   UNL     1       3.769   5.391  17.546  0.00  0.00    +0.000 A 
ATOM      5  N   UNL     1       2.898   6.188  18.254  0.00  0.00    +0.000 N 
ATOM      6  C   UNL     1       3.059   7.516  17.914  0.00  0.00    +0.000 A 
ATOM      7  C   UNL     1       4.071   7.561  16.973  0.00  0.00    +0.000 A 
ATOM      8  C   UNL     1       4.519   6.237  16.735  0.00  0.00    +0.000 A 
ATOM      9  C   UNL     1       5.506   5.689  15.900  0.00  0.00    +0.000 A 
ATOM     10  H   UNL     1       2.223   5.861  18.935  0.00  0.00    +0.000 HD
ENDROOT
BRANCH   6  11
ATOM     11  C   UNL     1       2.258   8.560  18.521  0.00  0.00    +0.000 C 
ATOM     12  O   UNL     1       2.145   9.652  17.972  0.00  0.00    +0.000 OA
ATOM     13  N   UNL     1       1.705   8.213  19.743  0.00  0.00    +0.000 N 
ATOM     14  H   UNL     1       2.011   7.340  20.145  0.00  0.00    +0.000 HD
BRANCH  13  15
ATOM     15  C   UNL     1       0.881   9.015  20.557  0.00  0.00    +0.000 A 
ATOM     16  C   UNL     1       0.095  10.054  20.058  0.00  0.00    +0.000 A 
ATOM     17  C   UNL     1      -0.652  10.862  20.922  0.00  0.00    +0.000 A 
ATOM     18  C   UNL     1      -0.627  10.638  22.299  0.00  0.00    +0.000 A 
ATOM     19  C   UNL     1      -1.372  11.537  23.235  0.00  0.00    +0.000 C 
ATOM     20  C   UNL     1       0.125   9.568  22.785  0.00  0.00    +0.000 A 
ATOM     21  F   UNL     1       0.161   9.324  24.103  0.00  0.00    +0.000 F 
ATOM     22  C   UNL     1       0.864   8.752  21.930  0.00  0.00    +0.000 A 
ENDBRANCH  13  15
ENDBRANCH   6  11
BRANCH   1  24
ATOM     23  C   UNL     1       6.410   3.942  13.657  0.00  0.00    +0.000 C 
ATOM     24  O   UNL     1       6.709   3.896  15.045  0.00  0.00    +0.000 OA
ENDBRANCH   1  24
TORSDOF 3
ENDMDL
