MODEL 1
REMARK VINA RESULT:      -8.5      0.000      0.000
REMARK  Name = 
REMARK  5 active torsions:
REMARK  status: ('A' for Active; 'I' for Inactive)
REMARK    1  A    between atoms: C_2  and  O_3
REMARK    2  A    between atoms: C_2  and  C_24
REMARK    3  A    between atoms: O_3  and  C_4
REMARK    4  A    between atoms: C_4  and  N_5
REMARK    5  A    between atoms: C_10  and  N_11
REMARK                            x       y       z     vdW  Elec       q    Type
REMARK                         _______ _______ _______ _____ _____    ______ ____
ROOT
ATOM      1  N   UNL     1       5.000   5.446  18.858  0.00  0.00    +0.000 N 
ATOM      2  C   UNL     1       4.393   4.242  19.201  0.00  0.00    +0.000 C 
ATOM      3  O   UNL     1       5.012   3.291  19.684  0.00  0.00    +0.000 OA
ATOM      4  C   UNL     1       2.905   4.112  18.965  0.00  0.00    +0.000 C 
ATOM      5  C   UNL     1       2.413   4.948  17.807  0.00  0.00    +0.000 C 
ATOM      6  C   UNL     1       2.944   6.372  17.817  0.00  0.00    +0.000 C 
ATOM      7  C   UNL     1       4.452   6.423  18.031  0.00  0.00    +0.000 C 
ATOM      8  O   UNL     1       5.120   7.324  17.517  0.00  0.00    +0.000 OA
ENDROOT
BRANCH   6   9
ATOM      9  N   UNL     1       2.292   7.302  18.729  0.00  0.00    +0.000 N 
ATOM     10  C   UNL     1       1.991   7.066  20.042  0.00  0.00    +0.000 C 
ATOM     11  O   UNL     1       2.198   6.085  20.725  0.00  0.00    +0.000 OA
ATOM     12  C   UNL     1       1.340   8.262  20.554  0.00  0.00    +0.000 A 
ATOM     13  C   UNL     1       0.781   8.499  21.793  0.00  0.00    +0.000 A 
ATOM     14  C   UNL     1       0.203   9.752  21.998  0.00  0.00    +0.000 A 
ATOM     15  C   UNL     1       0.206  10.724  20.975  0.00  0.00    +0.000 A 
ATOM     16  C   UNL     1       0.775  10.452  19.724  0.00  0.00    +0.000 A 
ATOM     17  C   UNL     1       1.331   9.201  19.543  0.00  0.00    +0.000 A 
ATOM     18  C   UNL     1       1.944   8.584  18.368  0.00  0.00    +0.000 C 
ATOM     19  O   UNL     1       2.060   9.131  17.291  0.00  0.00    +0.000 OA
ENDBRANCH   6   9
BRANCH   1  20
ATOM     20  C   UNL     1       6.410   5.585  19.170  0.00  0.00    +0.000 C 
BRANCH  20  21
ATOM     21  O   UNL     1       7.193   5.803  17.986  0.00  0.00    +0.000 OA
BRANCH  21  23
ATOM     22  O   UNL     1       8.527   3.940  17.849  0.00  0.00    +0.000 OA
ATOM     23  C   UNL     1       7.685   4.694  17.389  0.00  0.00    +0.000 C 
BRANCH  23  24
ATOM     24  C   UNL     1       7.042   4.508  16.069  0.00  0.00    +0.000 A 
ATOM     25  C   UNL     1       5.888   3.745  15.870  0.00  0.00    +0.000 A 
ATOM     26  C   UNL     1       5.339   3.648  14.592  0.00  0.00    +0.000 A 
ATOM     27  C   UNL     1       5.968   4.315  13.553  0.00  0.00    +0.000 A 
ATOM     28  N   UNL     1       7.088   5.055  13.706  0.00  0.00    +0.000 NA
ATOM     29  C   UNL     1       7.602   5.133  14.962  0.00  0.00    +0.000 A 
ENDBRANCH  23  24
ENDBRANCH  21  23
ENDBRANCH  20  21
ENDBRANCH   1  20
TORSDOF 5
ENDMDL
MODEL 2
REMARK VINA RESULT:      -8.3      0.823      1.003
REMARK  Name = 
REMARK  5 active torsions:
REMARK  status: ('A' for Active; 'I' for Inactive)
REMARK    1  A    between atoms: C_2  and  O_3
REMARK    2  A    between atoms: C_2  and  C_24
REMARK    3  A    between atoms: O_3  and  C_4
REMARK    4  A    between atoms: C_4  and  N_5
REMARK    5  A    between atoms: C_10  and  N_11
REMARK                            x       y       z     vdW  Elec       q    Type
REMARK                         _______ _______ _______ _____ _____    ______ ____
ROOT
ATOM      1  N   UNL     1       4.746   5.182  18.432  0.00  0.00    +0.000 N 
ATOM      2  C   UNL     1       4.262   4.044  19.068  0.00  0.00    +0.000 C 
ATOM      3  O   UNL     1       4.995   3.148  19.494  0.00  0.00    +0.000 OA
ATOM      4  C   UNL     1       2.765   3.916  19.239  0.00  0.00    +0.000 C 
ATOM      5  C   UNL     1       1.982   4.610  18.149  0.00  0.00    +0.000 C 
ATOM      6  C   UNL     1       2.481   6.012  17.842  0.00  0.00    +0.000 C 
ATOM      7  C   UNL     1       3.993   6.059  17.655  0.00  0.00    +0.000 C 
ATOM      8  O   UNL     1       4.496   6.874  16.879  0.00  0.00    +0.000 OA
ENDROOT
BRANCH   6   9
ATOM      9  N   UNL     1       2.073   7.063  18.765  0.00  0.00    +0.000 N 
ATOM     10  C   UNL     1       1.881   6.923  20.112  0.00  0.00    +0.000 C 
ATOM     11  O   UNL     1       2.013   5.948  20.821  0.00  0.00    +0.000 OA
ATOM     12  C   UNL     1       1.471   8.222  20.624  0.00  0.00    +0.000 A 
ATOM     13  C   UNL     1       1.087   8.585  21.898  0.00  0.00    +0.000 A 
ATOM     14  C   UNL     1       0.724   9.918  22.094  0.00  0.00    +0.000 A 
ATOM     15  C   UNL     1       0.762  10.841  21.027  0.00  0.00    +0.000 A 
ATOM     16  C   UNL     1       1.149  10.441  19.741  0.00  0.00    +0.000 A 
ATOM     17  C   UNL     1       1.492   9.114  19.571  0.00  0.00    +0.000 A 
ATOM     18  C   UNL     1       1.881   8.369  18.375  0.00  0.00    +0.000 C 
ATOM     19  O   UNL     1       1.961   8.853  17.264  0.00  0.00    +0.000 OA
ENDBRANCH   6   9
BRANCH   1  20
ATOM     20  C   UNL     1       6.187   5.330  18.353  0.00  0.00    +0.000 C 
BRANCH  20  21
ATOM     21  O   UNL     1       6.720   4.692  17.183  0.00  0.00    +0.000 OA
BRANCH  21  23
ATOM     22  O   UNL     1       7.712   6.599  16.380  0.00  0.00    +0.000 OA
ATOM     23  C   UNL     1       7.176   5.515  16.213  0.00  0.00    +0.000 C 
BRANCH  23  24
ATOM     24  C   UNL     1       6.938   4.908  14.885  0.00  0.00    +0.000 A 
ATOM     25  C   UNL     1       5.931   3.973  14.629  0.00  0.00    +0.000 A 
ATOM     26  C   UNL     1       5.768   3.474  13.337  0.00  0.00    +0.000 A 
ATOM     27  C   UNL     1       6.622   3.925  12.344  0.00  0.00    +0.000 A 
ATOM     28  N   UNL     1       7.610   4.822  12.555  0.00  0.00    +0.000 NA
ATOM     29  C   UNL     1       7.747   5.292  13.823  0.00  0.00    +0.000 A 
ENDBRANCH  23  24
ENDBRANCH  21  23
ENDBRANCH  20  21
ENDBRANCH   1  20
TORSDOF 5
ENDMDL
MODEL 3
REMARK VINA RESULT:      -8.2      2.122      3.727
REMARK  Name = 
REMARK  5 active torsions:
REMARK  status: ('A' for Active; 'I' for Inactive)
REMARK    1  A    between atoms: C_2  and  O_3
REMARK    2  A    between atoms: C_2  and  C_24
REMARK    3  A    between atoms: O_3  and  C_4
REMARK    4  A    between atoms: C_4  and  N_5
REMARK    5  A    between atoms: C_10  and  N_11
REMARK                            x       y       z     vdW  Elec       q    Type
REMARK                         _______ _______ _______ _____ _____    ______ ____
ROOT
ATOM      1  N   UNL     1       5.682   4.159  16.768  0.00  0.00    +0.000 N 
ATOM      2  C   UNL     1       6.898   4.616  17.266  0.00  0.00    +0.000 C 
ATOM      3  O   UNL     1       7.952   4.549  16.630  0.00  0.00    +0.000 OA
ATOM      4  C   UNL     1       6.908   5.219  18.653  0.00  0.00    +0.000 C 
ATOM      5  C   UNL     1       5.844   4.643  19.558  0.00  0.00    +0.000 C 
ATOM      6  C   UNL     1       4.476   4.549  18.903  0.00  0.00    +0.000 C 
ATOM      7  C   UNL     1       4.540   3.906  17.523  0.00  0.00    +0.000 C 
ATOM      8  O   UNL     1       3.592   3.236  17.108  0.00  0.00    +0.000 OA
ENDROOT
BRANCH   6   9
ATOM      9  N   UNL     1       3.705   5.783  18.829  0.00  0.00    +0.000 N 
ATOM     10  C   UNL     1       3.760   6.709  17.824  0.00  0.00    +0.000 C 
ATOM     11  O   UNL     1       4.416   6.713  16.804  0.00  0.00    +0.000 OA
ATOM     12  C   UNL     1       2.833   7.775  18.173  0.00  0.00    +0.000 A 
ATOM     13  C   UNL     1       2.580   8.968  17.527  0.00  0.00    +0.000 A 
ATOM     14  C   UNL     1       1.639   9.816  18.110  0.00  0.00    +0.000 A 
ATOM     15  C   UNL     1       0.979   9.451  19.303  0.00  0.00    +0.000 A 
ATOM     16  C   UNL     1       1.263   8.236  19.940  0.00  0.00    +0.000 A 
ATOM     17  C   UNL     1       2.207   7.419  19.349  0.00  0.00    +0.000 A 
ATOM     18  C   UNL     1       2.766   6.136  19.772  0.00  0.00    +0.000 C 
ATOM     19  O   UNL     1       2.456   5.558  20.793  0.00  0.00    +0.000 OA
ENDBRANCH   6   9
BRANCH   1  20
ATOM     20  C   UNL     1       5.673   3.663  15.405  0.00  0.00    +0.000 C 
BRANCH  20  21
ATOM     21  O   UNL     1       5.661   4.737  14.452  0.00  0.00    +0.000 OA
BRANCH  21  23
ATOM     22  O   UNL     1       7.601   5.478  13.475  0.00  0.00    +0.000 OA
ATOM     23  C   UNL     1       6.645   4.720  13.526  0.00  0.00    +0.000 C 
BRANCH  23  24
ATOM     24  C   UNL     1       6.408   3.625  12.560  0.00  0.00    +0.000 A 
ATOM     25  C   UNL     1       7.429   2.863  11.985  0.00  0.00    +0.000 A 
ATOM     26  C   UNL     1       7.105   1.832  11.104  0.00  0.00    +0.000 A 
ATOM     27  C   UNL     1       5.768   1.601  10.823  0.00  0.00    +0.000 A 
ATOM     28  N   UNL     1       4.755   2.320  11.355  0.00  0.00    +0.000 NA
ATOM     29  C   UNL     1       5.099   3.318  12.211  0.00  0.00    +0.000 A 
ENDBRANCH  23  24
ENDBRANCH  21  23
ENDBRANCH  20  21
ENDBRANCH   1  20
TORSDOF 5
ENDMDL
MODEL 4
REMARK VINA RESULT:      -8.2      1.766      7.932
REMARK  Name = 
REMARK  5 active torsions:
REMARK  status: ('A' for Active; 'I' for Inactive)
REMARK    1  A    between atoms: C_2  and  O_3
REMARK    2  A    between atoms: C_2  and  C_24
REMARK    3  A    between atoms: O_3  and  C_4
REMARK    4  A    between atoms: C_4  and  N_5
REMARK    5  A    between atoms: C_10  and  N_11
REMARK                            x       y       z     vdW  Elec       q    Type
REMARK                         _______ _______ _______ _____ _____    ______ ____
ROOT
ATOM      1  N   UNL     1       3.307   5.922  18.364  0.00  0.00    +0.000 N 
ATOM      2  C   UNL     1       3.144   4.698  19.005  0.00  0.00    +0.000 C 
ATOM      3  O   UNL     1       2.097   4.368  19.567  0.00  0.00    +0.000 OA
ATOM      4  C   UNL     1       4.314   3.740  19.002  0.00  0.00    +0.000 C 
ATOM      5  C   UNL     1       5.653   4.439  18.953  0.00  0.00    +0.000 C 
ATOM      6  C   UNL     1       5.721   5.548  17.917  0.00  0.00    +0.000 C 
ATOM      7  C   UNL     1       4.525   6.489  17.998  0.00  0.00    +0.000 C 
ATOM      8  O   UNL     1       4.654   7.680  17.706  0.00  0.00    +0.000 OA
ENDROOT
BRANCH   6   9
ATOM      9  N   UNL     1       5.920   5.133  16.534  0.00  0.00    +0.000 N 
ATOM     10  C   UNL     1       5.123   4.274  15.828  0.00  0.00    +0.000 C 
ATOM     11  O   UNL     1       4.109   3.698  16.163  0.00  0.00    +0.000 OA
ATOM     12  C   UNL     1       5.705   4.143  14.501  0.00  0.00    +0.000 A 
ATOM     13  C   UNL     1       5.323   3.339  13.447  0.00  0.00    +0.000 A 
ATOM     14  C   UNL     1       6.089   3.412  12.284  0.00  0.00    +0.000 A 
ATOM     15  C   UNL     1       7.199   4.281  12.205  0.00  0.00    +0.000 A 
ATOM     16  C   UNL     1       7.568   5.080  13.295  0.00  0.00    +0.000 A 
ATOM     17  C   UNL     1       6.799   4.981  14.438  0.00  0.00    +0.000 A 
ATOM     18  C   UNL     1       6.937   5.619  15.746  0.00  0.00    +0.000 C 
ATOM     19  O   UNL     1       7.827   6.392  16.039  0.00  0.00    +0.000 OA
ENDBRANCH   6   9
BRANCH   1  20
ATOM     20  C   UNL     1       2.149   6.792  18.301  0.00  0.00    +0.000 C 
BRANCH  20  21
ATOM     21  O   UNL     1       2.168   7.772  19.350  0.00  0.00    +0.000 OA
BRANCH  21  23
ATOM     22  O   UNL     1       1.331   9.473  18.056  0.00  0.00    +0.000 OA
ATOM     23  C   UNL     1       1.451   8.896  19.126  0.00  0.00    +0.000 C 
BRANCH  23  24
ATOM     24  C   UNL     1       0.808   9.342  20.381  0.00  0.00    +0.000 A 
ATOM     25  C   UNL     1       0.126   8.485  21.249  0.00  0.00    +0.000 A 
ATOM     26  C   UNL     1      -0.426   8.993  22.424  0.00  0.00    +0.000 A 
ATOM     27  C   UNL     1      -0.281  10.346  22.690  0.00  0.00    +0.000 A 
ATOM     28  N   UNL     1       0.366  11.204  21.872  0.00  0.00    +0.000 NA
ATOM     29  C   UNL     1       0.895  10.683  20.733  0.00  0.00    +0.000 A 
ENDBRANCH  23  24
ENDBRANCH  21  23
ENDBRANCH  20  21
ENDBRANCH   1  20
TORSDOF 5
ENDMDL
MODEL 5
REMARK VINA RESULT:      -8.1      0.122      1.627
REMARK  Name = 
REMARK  5 active torsions:
REMARK  status: ('A' for Active; 'I' for Inactive)
REMARK    1  A    between atoms: C_2  and  O_3
REMARK    2  A    between atoms: C_2  and  C_24
REMARK    3  A    between atoms: O_3  and  C_4
REMARK    4  A    between atoms: C_4  and  N_5
REMARK    5  A    between atoms: C_10  and  N_11
REMARK                            x       y       z     vdW  Elec       q    Type
REMARK                         _______ _______ _______ _____ _____    ______ ____
ROOT
ATOM      1  N   UNL     1       4.897   5.395  18.920  0.00  0.00    +0.000 N 
ATOM      2  C   UNL     1       4.251   4.221  19.292  0.00  0.00    +0.000 C 
ATOM      3  O   UNL     1       4.839   3.262  19.798  0.00  0.00    +0.000 OA
ATOM      4  C   UNL     1       2.759   4.134  19.062  0.00  0.00    +0.000 C 
ATOM      5  C   UNL     1       2.292   4.958  17.885  0.00  0.00    +0.000 C 
ATOM      6  C   UNL     1       2.870   6.363  17.859  0.00  0.00    +0.000 C 
ATOM      7  C   UNL     1       4.379   6.370  18.070  0.00  0.00    +0.000 C 
ATOM      8  O   UNL     1       5.075   7.236  17.534  0.00  0.00    +0.000 OA
ENDROOT
BRANCH   6   9
ATOM      9  N   UNL     1       2.251   7.336  18.749  0.00  0.00    +0.000 N 
ATOM     10  C   UNL     1       1.896   8.616  18.422  0.00  0.00    +0.000 C 
ATOM     11  O   UNL     1       1.994   9.206  17.367  0.00  0.00    +0.000 OA
ATOM     12  C   UNL     1       1.326   9.221  19.617  0.00  0.00    +0.000 A 
ATOM     13  C   UNL     1       0.890  10.513  19.827  0.00  0.00    +0.000 A 
ATOM     14  C   UNL     1       0.401  10.817  21.097  0.00  0.00    +0.000 A 
ATOM     15  C   UNL     1       0.355   9.833  22.108  0.00  0.00    +0.000 A 
ATOM     16  C   UNL     1       0.812   8.530  21.867  0.00  0.00    +0.000 A 
ATOM     17  C   UNL     1       1.302   8.258  20.604  0.00  0.00    +0.000 A 
ATOM     18  C   UNL     1       1.896   7.044  20.046  0.00  0.00    +0.000 C 
ATOM     19  O   UNL     1       2.060   6.015  20.669  0.00  0.00    +0.000 OA
ENDBRANCH   6   9
BRANCH   1  20
ATOM     20  C   UNL     1       6.311   5.496  19.227  0.00  0.00    +0.000 C 
BRANCH  20  21
ATOM     21  O   UNL     1       7.086   5.779  18.053  0.00  0.00    +0.000 OA
BRANCH  21  23
ATOM     22  O   UNL     1       8.519   3.993  17.886  0.00  0.00    +0.000 OA
ATOM     23  C   UNL     1       7.640   4.711  17.436  0.00  0.00    +0.000 C 
BRANCH  23  24
ATOM     24  C   UNL     1       7.016   4.517  16.109  0.00  0.00    +0.000 A 
ATOM     25  C   UNL     1       5.857   3.764  15.899  0.00  0.00    +0.000 A 
ATOM     26  C   UNL     1       5.328   3.660  14.614  0.00  0.00    +0.000 A 
ATOM     27  C   UNL     1       5.978   4.311  13.578  0.00  0.00    +0.000 A 
ATOM     28  N   UNL     1       7.103   5.042  13.741  0.00  0.00    +0.000 NA
ATOM     29  C   UNL     1       7.598   5.127  15.004  0.00  0.00    +0.000 A 
ENDBRANCH  23  24
ENDBRANCH  21  23
ENDBRANCH  20  21
ENDBRANCH   1  20
TORSDOF 5
ENDMDL
MODEL 6
REMARK VINA RESULT:      -7.8      1.777      7.847
REMARK  Name = 
REMARK  5 active torsions:
REMARK  status: ('A' for Active; 'I' for Inactive)
REMARK    1  A    between atoms: C_2  and  O_3
REMARK    2  A    between atoms: C_2  and  C_24
REMARK    3  A    between atoms: O_3  and  C_4
REMARK    4  A    between atoms: C_4  and  N_5
REMARK    5  A    between atoms: C_10  and  N_11
REMARK                            x       y       z     vdW  Elec       q    Type
REMARK                         _______ _______ _______ _____ _____    ______ ____
ROOT
ATOM      1  N   UNL     1       3.288   5.682  18.317  0.00  0.00    +0.000 N 
ATOM      2  C   UNL     1       3.208   4.444  18.947  0.00  0.00    +0.000 C 
ATOM      3  O   UNL     1       2.187   4.042  19.511  0.00  0.00    +0.000 OA
ATOM      4  C   UNL     1       4.437   3.564  18.928  0.00  0.00    +0.000 C 
ATOM      5  C   UNL     1       5.727   4.348  18.880  0.00  0.00    +0.000 C 
ATOM      6  C   UNL     1       5.718   5.469  17.854  0.00  0.00    +0.000 C 
ATOM      7  C   UNL     1       4.465   6.330  17.951  0.00  0.00    +0.000 C 
ATOM      8  O   UNL     1       4.514   7.530  17.671  0.00  0.00    +0.000 OA
ENDROOT
BRANCH   6   9
ATOM      9  N   UNL     1       5.935   5.082  16.467  0.00  0.00    +0.000 N 
ATOM     10  C   UNL     1       5.156   4.226  15.737  0.00  0.00    +0.000 C 
ATOM     11  O   UNL     1       4.146   3.633  16.051  0.00  0.00    +0.000 OA
ATOM     12  C   UNL     1       5.752   4.127  14.414  0.00  0.00    +0.000 A 
ATOM     13  C   UNL     1       5.390   3.338  13.342  0.00  0.00    +0.000 A 
ATOM     14  C   UNL     1       6.167   3.441  12.188  0.00  0.00    +0.000 A 
ATOM     15  C   UNL     1       7.267   4.324  12.136  0.00  0.00    +0.000 A 
ATOM     16  C   UNL     1       7.616   5.107  13.243  0.00  0.00    +0.000 A 
ATOM     17  C   UNL     1       6.837   4.978  14.377  0.00  0.00    +0.000 A 
ATOM     18  C   UNL     1       6.955   5.594  15.697  0.00  0.00    +0.000 C 
ATOM     19  O   UNL     1       7.832   6.372  16.013  0.00  0.00    +0.000 OA
ENDBRANCH   6   9
BRANCH   1  20
ATOM     20  C   UNL     1       2.075   6.477  18.270  0.00  0.00    +0.000 C 
BRANCH  20  21
ATOM     21  O   UNL     1       2.195   7.669  19.061  0.00  0.00    +0.000 OA
BRANCH  21  23
ATOM     22  O   UNL     1       1.502   6.671  21.008  0.00  0.00    +0.000 OA
ATOM     23  C   UNL     1       1.594   7.640  20.272  0.00  0.00    +0.000 C 
BRANCH  23  24
ATOM     24  C   UNL     1       1.057   8.979  20.598  0.00  0.00    +0.000 A 
ATOM     25  C   UNL     1       0.651   9.908  19.635  0.00  0.00    +0.000 A 
ATOM     26  C   UNL     1       0.132  11.136  20.040  0.00  0.00    +0.000 A 
ATOM     27  C   UNL     1       0.040  11.398  21.398  0.00  0.00    +0.000 A 
ATOM     28  N   UNL     1       0.427  10.528  22.356  0.00  0.00    +0.000 NA
ATOM     29  C   UNL     1       0.929   9.337  21.934  0.00  0.00    +0.000 A 
ENDBRANCH  23  24
ENDBRANCH  21  23
ENDBRANCH  20  21
ENDBRANCH   1  20
TORSDOF 5
ENDMDL
MODEL 7
REMARK VINA RESULT:      -7.7      1.044      2.133
REMARK  Name = 
REMARK  5 active torsions:
REMARK  status: ('A' for Active; 'I' for Inactive)
REMARK    1  A    between atoms: C_2  and  O_3
REMARK    2  A    between atoms: C_2  and  C_24
REMARK    3  A    between atoms: O_3  and  C_4
REMARK    4  A    between atoms: C_4  and  N_5
REMARK    5  A    between atoms: C_10  and  N_11
REMARK                            x       y       z     vdW  Elec       q    Type
REMARK                         _______ _______ _______ _____ _____    ______ ____
ROOT
ATOM      1  N   UNL     1       5.282   6.041  18.115  0.00  0.00    +0.000 N 
ATOM      2  C   UNL     1       5.265   4.955  18.985  0.00  0.00    +0.000 C 
ATOM      3  O   UNL     1       6.290   4.387  19.370  0.00  0.00    +0.000 OA
ATOM      4  C   UNL     1       3.921   4.463  19.471  0.00  0.00    +0.000 C 
ATOM      5  C   UNL     1       2.807   4.703  18.479  0.00  0.00    +0.000 C 
ATOM      6  C   UNL     1       2.810   6.103  17.890  0.00  0.00    +0.000 C 
ATOM      7  C   UNL     1       4.190   6.520  17.396  0.00  0.00    +0.000 C 
ATOM      8  O   UNL     1       4.299   7.278  16.430  0.00  0.00    +0.000 OA
ENDROOT
BRANCH   6   9
ATOM      9  N   UNL     1       2.254   7.160  18.725  0.00  0.00    +0.000 N 
ATOM     10  C   UNL     1       1.948   8.430  18.321  0.00  0.00    +0.000 C 
ATOM     11  O   UNL     1       2.048   8.945  17.227  0.00  0.00    +0.000 OA
ATOM     12  C   UNL     1       1.432   9.137  19.483  0.00  0.00    +0.000 A 
ATOM     13  C   UNL     1       1.058  10.459  19.615  0.00  0.00    +0.000 A 
ATOM     14  C   UNL     1       0.611  10.867  20.871  0.00  0.00    +0.000 A 
ATOM     15  C   UNL     1       0.545   9.955  21.946  0.00  0.00    +0.000 A 
ATOM     16  C   UNL     1       0.939   8.620  21.783  0.00  0.00    +0.000 A 
ATOM     17  C   UNL     1       1.388   8.244  20.533  0.00  0.00    +0.000 A 
ATOM     18  C   UNL     1       1.915   6.970  20.045  0.00  0.00    +0.000 C 
ATOM     19  O   UNL     1       2.048   5.978  20.732  0.00  0.00    +0.000 OA
ENDBRANCH   6   9
BRANCH   1  20
ATOM     20  C   UNL     1       6.582   6.554  17.727  0.00  0.00    +0.000 C 
BRANCH  20  21
ATOM     21  O   UNL     1       6.856   6.300  16.341  0.00  0.00    +0.000 OA
BRANCH  21  23
ATOM     22  O   UNL     1       8.032   4.385  16.808  0.00  0.00    +0.000 OA
ATOM     23  C   UNL     1       7.381   5.088  16.051  0.00  0.00    +0.000 C 
BRANCH  23  24
ATOM     24  C   UNL     1       7.044   4.714  14.661  0.00  0.00    +0.000 A 
ATOM     25  C   UNL     1       7.779   5.128  13.546  0.00  0.00    +0.000 A 
ATOM     26  C   UNL     1       7.399   4.702  12.274  0.00  0.00    +0.000 A 
ATOM     27  C   UNL     1       6.291   3.877  12.159  0.00  0.00    +0.000 A 
ATOM     28  N   UNL     1       5.554   3.462  13.212  0.00  0.00    +0.000 NA
ATOM     29  C   UNL     1       5.946   3.892  14.440  0.00  0.00    +0.000 A 
ENDBRANCH  23  24
ENDBRANCH  21  23
ENDBRANCH  20  21
ENDBRANCH   1  20
TORSDOF 5
ENDMDL
MODEL 8
REMARK VINA RESULT:      -7.6      1.740      7.990
REMARK  Name = 
REMARK  5 active torsions:
REMARK  status: ('A' for Active; 'I' for Inactive)
REMARK    1  A    between atoms: C_2  and  O_3
REMARK    2  A    between atoms: C_2  and  C_24
REMARK    3  A    between atoms: O_3  and  C_4
REMARK    4  A    between atoms: C_4  and  N_5
REMARK    5  A    between atoms: C_10  and  N_11
REMARK                            x       y       z     vdW  Elec       q    Type
REMARK                         _______ _______ _______ _____ _____    ______ ____
ROOT
ATOM      1  N   UNL     1       3.258   5.811  18.334  0.00  0.00    +0.000 N 
ATOM      2  C   UNL     1       3.109   4.572  18.950  0.00  0.00    +0.000 C 
ATOM      3  O   UNL     1       2.057   4.208  19.481  0.00  0.00    +0.000 OA
ATOM      4  C   UNL     1       4.301   3.641  18.956  0.00  0.00    +0.000 C 
ATOM      5  C   UNL     1       5.623   4.371  18.950  0.00  0.00    +0.000 C 
ATOM      6  C   UNL     1       5.689   5.501  17.936  0.00  0.00    +0.000 C 
ATOM      7  C   UNL     1       4.470   6.413  18.007  0.00  0.00    +0.000 C 
ATOM      8  O   UNL     1       4.578   7.612  17.740  0.00  0.00    +0.000 OA
ENDROOT
BRANCH   6   9
ATOM      9  N   UNL     1       5.929   5.117  16.551  0.00  0.00    +0.000 N 
ATOM     10  C   UNL     1       6.941   5.572  15.752  0.00  0.00    +0.000 C 
ATOM     11  O   UNL     1       7.840   6.349  15.999  0.00  0.00    +0.000 OA
ATOM     12  C   UNL     1       6.784   4.932  14.455  0.00  0.00    +0.000 A 
ATOM     13  C   UNL     1       7.501   5.114  13.291  0.00  0.00    +0.000 A 
ATOM     14  C   UNL     1       7.109   4.364  12.182  0.00  0.00    +0.000 A 
ATOM     15  C   UNL     1       6.028   3.460  12.267  0.00  0.00    +0.000 A 
ATOM     16  C   UNL     1       5.314   3.302  13.462  0.00  0.00    +0.000 A 
ATOM     17  C   UNL     1       5.715   4.064  14.542  0.00  0.00    +0.000 A 
ATOM     18  C   UNL     1       5.165   4.182  15.891  0.00  0.00    +0.000 C 
ATOM     19  O   UNL     1       4.190   3.576  16.287  0.00  0.00    +0.000 OA
ENDBRANCH   6   9
BRANCH   1  20
ATOM     20  C   UNL     1       2.081   6.656  18.261  0.00  0.00    +0.000 C 
BRANCH  20  21
ATOM     21  O   UNL     1       1.999   7.544  19.386  0.00  0.00    +0.000 OA
BRANCH  21  23
ATOM     22  O   UNL     1       1.644   9.395  18.077  0.00  0.00    +0.000 OA
ATOM     23  C   UNL     1       1.532   8.786  19.129  0.00  0.00    +0.000 C 
BRANCH  23  24
ATOM     24  C   UNL     1       0.840   9.321  20.322  0.00  0.00    +0.000 A 
ATOM     25  C   UNL     1       0.948   8.759  21.597  0.00  0.00    +0.000 A 
ATOM     26  C   UNL     1       0.278   9.349  22.668  0.00  0.00    +0.000 A 
ATOM     27  C   UNL     1      -0.483  10.482  22.426  0.00  0.00    +0.000 A 
ATOM     28  N   UNL     1      -0.615  11.049  21.207  0.00  0.00    +0.000 NA
ATOM     29  C   UNL     1       0.049  10.453  20.181  0.00  0.00    +0.000 A 
ENDBRANCH  23  24
ENDBRANCH  21  23
ENDBRANCH  20  21
ENDBRANCH   1  20
TORSDOF 5
ENDMDL
MODEL 9
REMARK VINA RESULT:      -7.6      2.829      4.840
REMARK  Name = 
REMARK  5 active torsions:
REMARK  status: ('A' for Active; 'I' for Inactive)
REMARK    1  A    between atoms: C_2  and  O_3
REMARK    2  A    between atoms: C_2  and  C_24
REMARK    3  A    between atoms: O_3  and  C_4
REMARK    4  A    between atoms: C_4  and  N_5
REMARK    5  A    between atoms: C_10  and  N_11
REMARK                            x       y       z     vdW  Elec       q    Type
REMARK                         _______ _______ _______ _____ _____    ______ ____
ROOT
ATOM      1  N   UNL     1       6.830   5.700  16.527  0.00  0.00    +0.000 N 
ATOM      2  C   UNL     1       7.408   6.730  17.261  0.00  0.00    +0.000 C 
ATOM      3  O   UNL     1       7.849   7.759  16.743  0.00  0.00    +0.000 OA
ATOM      4  C   UNL     1       7.489   6.565  18.762  0.00  0.00    +0.000 C 
ATOM      5  C   UNL     1       7.600   5.122  19.195  0.00  0.00    +0.000 C 
ATOM      6  C   UNL     1       6.616   4.201  18.494  0.00  0.00    +0.000 C 
ATOM      7  C   UNL     1       6.609   4.403  16.984  0.00  0.00    +0.000 C 
ATOM      8  O   UNL     1       6.374   3.454  16.233  0.00  0.00    +0.000 OA
ENDROOT
BRANCH   6   9
ATOM      9  N   UNL     1       5.246   4.215  18.992  0.00  0.00    +0.000 N 
ATOM     10  C   UNL     1       4.338   5.224  18.825  0.00  0.00    +0.000 C 
ATOM     11  O   UNL     1       4.447   6.282  18.242  0.00  0.00    +0.000 OA
ATOM     12  C   UNL     1       3.113   4.812  19.494  0.00  0.00    +0.000 A 
ATOM     13  C   UNL     1       1.935   5.506  19.677  0.00  0.00    +0.000 A 
ATOM     14  C   UNL     1       0.921   4.857  20.382  0.00  0.00    +0.000 A 
ATOM     15  C   UNL     1       1.108   3.547  20.873  0.00  0.00    +0.000 A 
ATOM     16  C   UNL     1       2.319   2.870  20.678  0.00  0.00    +0.000 A 
ATOM     17  C   UNL     1       3.311   3.539  19.986  0.00  0.00    +0.000 A 
ATOM     18  C   UNL     1       4.683   3.153  19.663  0.00  0.00    +0.000 C 
ATOM     19  O   UNL     1       5.191   2.099  19.987  0.00  0.00    +0.000 OA
ENDBRANCH   6   9
BRANCH   1  20
ATOM     20  C   UNL     1       6.682   5.911  15.099  0.00  0.00    +0.000 C 
BRANCH  20  21
ATOM     21  O   UNL     1       7.622   5.126  14.350  0.00  0.00    +0.000 OA
BRANCH  21  23
ATOM     22  O   UNL     1       8.022   6.139  12.330  0.00  0.00    +0.000 OA
ATOM     23  C   UNL     1       7.549   5.238  13.004  0.00  0.00    +0.000 C 
BRANCH  23  24
ATOM     24  C   UNL     1       6.808   4.088  12.443  0.00  0.00    +0.000 A 
ATOM     25  C   UNL     1       5.416   3.967  12.484  0.00  0.00    +0.000 A 
ATOM     26  C   UNL     1       4.804   2.857  11.905  0.00  0.00    +0.000 A 
ATOM     27  C   UNL     1       5.607   1.900  11.305  0.00  0.00    +0.000 A 
ATOM     28  N   UNL     1       6.954   1.980  11.251  0.00  0.00    +0.000 NA
ATOM     29  C   UNL     1       7.525   3.072  11.824  0.00  0.00    +0.000 A 
ENDBRANCH  23  24
ENDBRANCH  21  23
ENDBRANCH  20  21
ENDBRANCH   1  20
TORSDOF 5
ENDMDL
