MODEL 1
REMARK VINA RESULT:      -9.1      0.000      0.000
REMARK  Name = 
REMARK  5 active torsions:
REMARK  status: ('A' for Active; 'I' for Inactive)
REMARK    1  A    between atoms: C_2  and  C_20
REMARK    2  A    between atoms: N_3  and  C_4
REMARK    3  A    between atoms: C_4  and  C_5
REMARK    4  A    between atoms: C_10  and  O_11
REMARK    5  A    between atoms: O_11  and  C_12
REMARK                            x       y       z     vdW  Elec       q    Type
REMARK                         _______ _______ _______ _____ _____    ______ ____
ROOT
ATOM      1  C   UNL     1       3.723   4.455  18.283  0.00  0.00    +0.000 A 
ATOM      2  C   UNL     1       3.424   3.214  17.695  0.00  0.00    +0.000 A 
ATOM      3  C   UNL     1       2.203   2.591  17.931  0.00  0.00    +0.000 A 
ATOM      4  C   UNL     1       1.287   3.246  18.725  0.00  0.00    +0.000 A 
ATOM      5  N   UNL     1       1.523   4.441  19.295  0.00  0.00    +0.000 NA
ATOM      6  C   UNL     1       2.744   5.009  19.105  0.00  0.00    +0.000 A 
ENDROOT
BRANCH   1   7
ATOM      7  C   UNL     1       5.057   5.091  18.010  0.00  0.00    +0.000 C 
BRANCH   7  10
ATOM      8  O   UNL     1       7.673   4.536  16.957  0.00  0.00    +0.000 OA
ATOM      9  C   UNL     1       6.728   4.724  16.196  0.00  0.00    +0.000 C 
ATOM     10  N   UNL     1       5.442   5.007  16.615  0.00  0.00    +0.000 N 
ATOM     11  H   UNL     1       4.732   5.143  15.900  0.00  0.00    +0.000 HD
BRANCH   9  12
ATOM     12  C   UNL     1       6.919   4.663  14.713  0.00  0.00    +0.000 A 
ATOM     13  C   UNL     1       6.183   3.784  13.934  0.00  0.00    +0.000 A 
ATOM     14  C   UNL     1       6.407   3.774  12.562  0.00  0.00    +0.000 A 
ATOM     15  C   UNL     1       7.354   4.645  12.053  0.00  0.00    +0.000 A 
ATOM     16  N   UNL     1       8.058   5.492  12.830  0.00  0.00    +0.000 NA
ATOM     17  N   UNL     1       7.837   5.508  14.179  0.00  0.00    +0.000 NA
ENDBRANCH   9  12
ENDBRANCH   7  10
ENDBRANCH   1   7
BRANCH   6  18
ATOM     18  O   UNL     1       3.027   6.182  19.803  0.00  0.00    +0.000 OA
BRANCH  18  19
ATOM     19  C   UNL     1       2.359   7.326  19.402  0.00  0.00    +0.000 A 
ATOM     20  C   UNL     1       2.375   7.786  18.077  0.00  0.00    +0.000 A 
ATOM     21  C   UNL     1       1.738   8.981  17.738  0.00  0.00    +0.000 A 
ATOM     22  C   UNL     1       1.037   9.684  18.710  0.00  0.00    +0.000 A 
ATOM     23  F   UNL     1       0.432  10.833  18.381  0.00  0.00    +0.000 F 
ATOM     24  C   UNL     1       0.951   9.209  20.013  0.00  0.00    +0.000 A 
ATOM     25  C   UNL     1       1.614   8.030  20.351  0.00  0.00    +0.000 A 
ATOM     26  F   UNL     1       1.531   7.585  21.614  0.00  0.00    +0.000 F 
ENDBRANCH  18  19
ENDBRANCH   6  18
TORSDOF 5
ENDMDL
MODEL 2
REMARK VINA RESULT:      -9.1      1.136      1.299
REMARK  Name = 
REMARK  5 active torsions:
REMARK  status: ('A' for Active; 'I' for Inactive)
REMARK    1  A    between atoms: C_2  and  C_20
REMARK    2  A    between atoms: N_3  and  C_4
REMARK    3  A    between atoms: C_4  and  C_5
REMARK    4  A    between atoms: C_10  and  O_11
REMARK    5  A    between atoms: O_11  and  C_12
REMARK                            x       y       z     vdW  Elec       q    Type
REMARK                         _______ _______ _______ _____ _____    ______ ____
ROOT
ATOM      1  C   UNL     1       3.376   3.480  19.359  0.00  0.00    +0.000 A 
ATOM      2  C   UNL     1       2.895   2.218  18.970  0.00  0.00    +0.000 A 
ATOM      3  C   UNL     1       1.539   1.918  19.053  0.00  0.00    +0.000 A 
ATOM      4  C   UNL     1       0.685   2.906  19.491  0.00  0.00    +0.000 A 
ATOM      5  N   UNL     1       1.098   4.132  19.858  0.00  0.00    +0.000 NA
ATOM      6  C   UNL     1       2.432   4.391  19.829  0.00  0.00    +0.000 A 
ENDROOT
BRANCH   1   7
ATOM      7  C   UNL     1       4.849   3.761  19.262  0.00  0.00    +0.000 C 
BRANCH   7  10
ATOM      8  O   UNL     1       6.213   5.966  18.020  0.00  0.00    +0.000 OA
ATOM      9  C   UNL     1       5.973   4.947  17.378  0.00  0.00    +0.000 C 
ATOM     10  N   UNL     1       5.314   3.846  17.892  0.00  0.00    +0.000 N 
ATOM     11  H   UNL     1       5.169   3.052  17.274  0.00  0.00    +0.000 HD
BRANCH   9  12
ATOM     12  C   UNL     1       6.388   4.832  15.945  0.00  0.00    +0.000 A 
ATOM     13  C   UNL     1       5.710   3.999  15.070  0.00  0.00    +0.000 A 
ATOM     14  C   UNL     1       6.145   3.936  13.751  0.00  0.00    +0.000 A 
ATOM     15  C   UNL     1       7.233   4.710  13.388  0.00  0.00    +0.000 A 
ATOM     16  N   UNL     1       7.877   5.514  14.258  0.00  0.00    +0.000 NA
ATOM     17  N   UNL     1       7.449   5.583  15.555  0.00  0.00    +0.000 NA
ENDBRANCH   9  12
ENDBRANCH   7  10
ENDBRANCH   1   7
BRANCH   6  18
ATOM     18  O   UNL     1       2.864   5.617  20.333  0.00  0.00    +0.000 OA
BRANCH  18  19
ATOM     19  C   UNL     1       2.525   6.747  19.608  0.00  0.00    +0.000 A 
ATOM     20  C   UNL     1       2.900   6.927  18.268  0.00  0.00    +0.000 A 
ATOM     21  C   UNL     1       2.588   8.113  17.603  0.00  0.00    +0.000 A 
ATOM     22  C   UNL     1       1.850   9.092  18.256  0.00  0.00    +0.000 A 
ATOM     23  F   UNL     1       1.556  10.231  17.615  0.00  0.00    +0.000 F 
ATOM     24  C   UNL     1       1.408   8.904  19.560  0.00  0.00    +0.000 A 
ATOM     25  C   UNL     1       1.749   7.729  20.229  0.00  0.00    +0.000 A 
ATOM     26  F   UNL     1       1.325   7.560  21.490  0.00  0.00    +0.000 F 
ENDBRANCH  18  19
ENDBRANCH   6  18
TORSDOF 5
ENDMDL
MODEL 3
REMARK VINA RESULT:      -9.1      1.074      1.442
REMARK  Name = 
REMARK  5 active torsions:
REMARK  status: ('A' for Active; 'I' for Inactive)
REMARK    1  A    between atoms: C_2  and  C_20
REMARK    2  A    between atoms: N_3  and  C_4
REMARK    3  A    between atoms: C_4  and  C_5
REMARK    4  A    between atoms: C_10  and  O_11
REMARK    5  A    between atoms: O_11  and  C_12
REMARK                            x       y       z     vdW  Elec       q    Type
REMARK                         _______ _______ _______ _____ _____    ______ ____
ROOT
ATOM      1  C   UNL     1       3.771   3.840  18.466  0.00  0.00    +0.000 A 
ATOM      2  C   UNL     1       3.273   2.615  17.989  0.00  0.00    +0.000 A 
ATOM      3  C   UNL     1       1.944   2.260  18.195  0.00  0.00    +0.000 A 
ATOM      4  C   UNL     1       1.128   3.160  18.845  0.00  0.00    +0.000 A 
ATOM      5  N   UNL     1       1.557   4.349  19.304  0.00  0.00    +0.000 NA
ATOM      6  C   UNL     1       2.872   4.657  19.149  0.00  0.00    +0.000 A 
ENDROOT
BRANCH   1   7
ATOM      7  C   UNL     1       5.215   4.183  18.230  0.00  0.00    +0.000 C 
BRANCH   7  10
ATOM      8  O   UNL     1       7.789   4.741  17.079  0.00  0.00    +0.000 OA
ATOM      9  C   UNL     1       6.818   4.540  16.354  0.00  0.00    +0.000 C 
ATOM     10  N   UNL     1       5.545   4.276  16.822  0.00  0.00    +0.000 N 
ATOM     11  H   UNL     1       4.813   4.122  16.134  0.00  0.00    +0.000 HD
BRANCH   9  12
ATOM     12  C   UNL     1       6.958   4.577  14.864  0.00  0.00    +0.000 A 
ATOM     13  C   UNL     1       6.221   3.725  14.057  0.00  0.00    +0.000 A 
ATOM     14  C   UNL     1       6.397   3.808  12.680  0.00  0.00    +0.000 A 
ATOM     15  C   UNL     1       7.299   4.737  12.195  0.00  0.00    +0.000 A 
ATOM     16  N   UNL     1       8.005   5.557  13.000  0.00  0.00    +0.000 NA
ATOM     17  N   UNL     1       7.831   5.482  14.355  0.00  0.00    +0.000 NA
ENDBRANCH   9  12
ENDBRANCH   7  10
ENDBRANCH   1   7
BRANCH   6  18
ATOM     18  O   UNL     1       3.336   5.831  19.740  0.00  0.00    +0.000 OA
BRANCH  18  19
ATOM     19  C   UNL     1       2.669   7.000  19.418  0.00  0.00    +0.000 A 
ATOM     20  C   UNL     1       1.842   7.675  20.330  0.00  0.00    +0.000 A 
ATOM     21  C   UNL     1       1.140   8.815  19.934  0.00  0.00    +0.000 A 
ATOM     22  C   UNL     1       1.311   9.313  18.649  0.00  0.00    +0.000 A 
ATOM     23  F   UNL     1       0.632  10.404  18.271  0.00  0.00    +0.000 F 
ATOM     24  C   UNL     1       2.179   8.700  17.753  0.00  0.00    +0.000 A 
ATOM     25  C   UNL     1       2.854   7.544  18.145  0.00  0.00    +0.000 A 
ATOM     26  F   UNL     1       3.683   6.955  17.271  0.00  0.00    +0.000 F 
ENDBRANCH  18  19
ENDBRANCH   6  18
TORSDOF 5
ENDMDL
MODEL 4
REMARK VINA RESULT:      -8.8      1.440      1.864
REMARK  Name = 
REMARK  5 active torsions:
REMARK  status: ('A' for Active; 'I' for Inactive)
REMARK    1  A    between atoms: C_2  and  C_20
REMARK    2  A    between atoms: N_3  and  C_4
REMARK    3  A    between atoms: C_4  and  C_5
REMARK    4  A    between atoms: C_10  and  O_11
REMARK    5  A    between atoms: O_11  and  C_12
REMARK                            x       y       z     vdW  Elec       q    Type
REMARK                         _______ _______ _______ _____ _____    ______ ____
ROOT
ATOM      1  C   UNL     1       3.341   3.426  19.423  0.00  0.00    +0.000 A 
ATOM      2  C   UNL     1       2.676   2.208  19.199  0.00  0.00    +0.000 A 
ATOM      3  C   UNL     1       1.292   2.125  19.303  0.00  0.00    +0.000 A 
ATOM      4  C   UNL     1       0.595   3.278  19.593  0.00  0.00    +0.000 A 
ATOM      5  N   UNL     1       1.188   4.468  19.799  0.00  0.00    +0.000 NA
ATOM      6  C   UNL     1       2.545   4.521  19.754  0.00  0.00    +0.000 A 
ENDROOT
BRANCH   1   7
ATOM      7  C   UNL     1       4.839   3.472  19.310  0.00  0.00    +0.000 C 
BRANCH   7  10
ATOM      8  O   UNL     1       6.381   5.656  18.254  0.00  0.00    +0.000 OA
ATOM      9  C   UNL     1       6.041   4.730  17.523  0.00  0.00    +0.000 C 
ATOM     10  N   UNL     1       5.292   3.647  17.944  0.00  0.00    +0.000 N 
ATOM     11  H   UNL     1       5.067   2.933  17.256  0.00  0.00    +0.000 HD
BRANCH   9  12
ATOM     12  C   UNL     1       6.426   4.718  16.077  0.00  0.00    +0.000 A 
ATOM     13  C   UNL     1       5.734   3.942  15.160  0.00  0.00    +0.000 A 
ATOM     14  C   UNL     1       6.140   3.974  13.831  0.00  0.00    +0.000 A 
ATOM     15  C   UNL     1       7.215   4.780  13.501  0.00  0.00    +0.000 A 
ATOM     16  N   UNL     1       7.874   5.526  14.410  0.00  0.00    +0.000 NA
ATOM     17  N   UNL     1       7.474   5.501  15.717  0.00  0.00    +0.000 NA
ENDBRANCH   9  12
ENDBRANCH   7  10
ENDBRANCH   1   7
BRANCH   6  18
ATOM     18  O   UNL     1       3.157   5.726  20.096  0.00  0.00    +0.000 OA
BRANCH  18  19
ATOM     19  C   UNL     1       2.549   6.886  19.647  0.00  0.00    +0.000 A 
ATOM     20  C   UNL     1       1.811   7.729  20.492  0.00  0.00    +0.000 A 
ATOM     21  C   UNL     1       1.164   8.853  19.976  0.00  0.00    +0.000 A 
ATOM     22  C   UNL     1       1.304   9.165  18.630  0.00  0.00    +0.000 A 
ATOM     23  F   UNL     1       0.676  10.242  18.137  0.00  0.00    +0.000 F 
ATOM     24  C   UNL     1       2.087   8.383  17.790  0.00  0.00    +0.000 A 
ATOM     25  C   UNL     1       2.706   7.245  18.306  0.00  0.00    +0.000 A 
ATOM     26  F   UNL     1       3.454   6.491  17.487  0.00  0.00    +0.000 F 
ENDBRANCH  18  19
ENDBRANCH   6  18
TORSDOF 5
ENDMDL
MODEL 5
REMARK VINA RESULT:      -8.7      1.186      1.698
REMARK  Name = 
REMARK  5 active torsions:
REMARK  status: ('A' for Active; 'I' for Inactive)
REMARK    1  A    between atoms: C_2  and  C_20
REMARK    2  A    between atoms: N_3  and  C_4
REMARK    3  A    between atoms: C_4  and  C_5
REMARK    4  A    between atoms: C_10  and  O_11
REMARK    5  A    between atoms: O_11  and  C_12
REMARK                            x       y       z     vdW  Elec       q    Type
REMARK                         _______ _______ _______ _____ _____    ______ ____
ROOT
ATOM      1  C   UNL     1       3.772   3.638  18.521  0.00  0.00    +0.000 A 
ATOM      2  C   UNL     1       3.428   2.343  18.945  0.00  0.00    +0.000 A 
ATOM      3  C   UNL     1       2.098   1.992  19.151  0.00  0.00    +0.000 A 
ATOM      4  C   UNL     1       1.132   2.939  18.889  0.00  0.00    +0.000 A 
ATOM      5  N   UNL     1       1.414   4.185  18.467  0.00  0.00    +0.000 NA
ATOM      6  C   UNL     1       2.721   4.532  18.329  0.00  0.00    +0.000 A 
ENDROOT
BRANCH   1   7
ATOM      7  C   UNL     1       5.222   3.980  18.319  0.00  0.00    +0.000 C 
BRANCH   7  10
ATOM      8  O   UNL     1       7.762   4.775  17.235  0.00  0.00    +0.000 OA
ATOM      9  C   UNL     1       6.826   4.512  16.485  0.00  0.00    +0.000 C 
ATOM     10  N   UNL     1       5.570   4.132  16.920  0.00  0.00    +0.000 N 
ATOM     11  H   UNL     1       4.867   3.934  16.214  0.00  0.00    +0.000 HD
BRANCH   9  12
ATOM     12  C   UNL     1       6.992   4.594  15.000  0.00  0.00    +0.000 A 
ATOM     13  C   UNL     1       6.262   3.775  14.154  0.00  0.00    +0.000 A 
ATOM     14  C   UNL     1       6.461   3.899  12.784  0.00  0.00    +0.000 A 
ATOM     15  C   UNL     1       7.379   4.836  12.344  0.00  0.00    +0.000 A 
ATOM     16  N   UNL     1       8.079   5.622  13.186  0.00  0.00    +0.000 NA
ATOM     17  N   UNL     1       7.882   5.506  14.535  0.00  0.00    +0.000 NA
ENDBRANCH   9  12
ENDBRANCH   7  10
ENDBRANCH   1   7
BRANCH   6  18
ATOM     18  O   UNL     1       3.008   5.861  18.016  0.00  0.00    +0.000 OA
BRANCH  18  19
ATOM     19  C   UNL     1       2.432   6.831  18.818  0.00  0.00    +0.000 A 
ATOM     20  C   UNL     1       2.093   6.599  20.160  0.00  0.00    +0.000 A 
ATOM     21  C   UNL     1       1.454   7.591  20.906  0.00  0.00    +0.000 A 
ATOM     22  C   UNL     1       1.209   8.831  20.330  0.00  0.00    +0.000 A 
ATOM     23  F   UNL     1       0.591   9.779  21.049  0.00  0.00    +0.000 F 
ATOM     24  C   UNL     1       1.599   9.104  19.025  0.00  0.00    +0.000 A 
ATOM     25  C   UNL     1       2.210   8.099  18.276  0.00  0.00    +0.000 A 
ATOM     26  F   UNL     1       2.576   8.368  17.014  0.00  0.00    +0.000 F 
ENDBRANCH  18  19
ENDBRANCH   6  18
TORSDOF 5
ENDMDL
MODEL 6
REMARK VINA RESULT:      -8.4      3.847      7.809
REMARK  Name = 
REMARK  5 active torsions:
REMARK  status: ('A' for Active; 'I' for Inactive)
REMARK    1  A    between atoms: C_2  and  C_20
REMARK    2  A    between atoms: N_3  and  C_4
REMARK    3  A    between atoms: C_4  and  C_5
REMARK    4  A    between atoms: C_10  and  O_11
REMARK    5  A    between atoms: O_11  and  C_12
REMARK                            x       y       z     vdW  Elec       q    Type
REMARK                         _______ _______ _______ _____ _____    ______ ____
ROOT
ATOM      1  C   UNL     1       2.559   5.338  19.693  0.00  0.00    +0.000 A 
ATOM      2  C   UNL     1       1.749   4.907  20.757  0.00  0.00    +0.000 A 
ATOM      3  C   UNL     1       1.620   3.553  21.049  0.00  0.00    +0.000 A 
ATOM      4  C   UNL     1       2.340   2.657  20.288  0.00  0.00    +0.000 A 
ATOM      5  N   UNL     1       3.139   3.026  19.270  0.00  0.00    +0.000 NA
ATOM      6  C   UNL     1       3.207   4.348  18.959  0.00  0.00    +0.000 A 
ENDROOT
BRANCH   1   7
ATOM      7  C   UNL     1       2.664   6.810  19.405  0.00  0.00    +0.000 C 
BRANCH   7  10
ATOM      8  O   UNL     1       1.422   9.353  18.901  0.00  0.00    +0.000 OA
ATOM      9  C   UNL     1       1.334   8.831  20.009  0.00  0.00    +0.000 C 
ATOM     10  N   UNL     1       1.908   7.618  20.341  0.00  0.00    +0.000 N 
ATOM     11  H   UNL     1       1.771   7.276  21.288  0.00  0.00    +0.000 HD
BRANCH   9  12
ATOM     12  C   UNL     1       0.577   9.504  21.111  0.00  0.00    +0.000 A 
ATOM     13  C   UNL     1      -0.382  10.466  20.834  0.00  0.00    +0.000 A 
ATOM     14  C   UNL     1      -1.050  11.055  21.901  0.00  0.00    +0.000 A 
ATOM     15  C   UNL     1      -0.718  10.646  23.180  0.00  0.00    +0.000 A 
ATOM     16  N   UNL     1       0.219   9.709  23.425  0.00  0.00    +0.000 NA
ATOM     17  N   UNL     1       0.875   9.123  22.378  0.00  0.00    +0.000 NA
ENDBRANCH   9  12
ENDBRANCH   7  10
ENDBRANCH   1   7
BRANCH   6  18
ATOM     18  O   UNL     1       3.934   4.708  17.825  0.00  0.00    +0.000 OA
BRANCH  18  19
ATOM     19  C   UNL     1       5.154   5.328  18.034  0.00  0.00    +0.000 A 
ATOM     20  C   UNL     1       6.025   4.954  19.068  0.00  0.00    +0.000 A 
ATOM     21  C   UNL     1       7.214   5.655  19.275  0.00  0.00    +0.000 A 
ATOM     22  C   UNL     1       7.559   6.689  18.414  0.00  0.00    +0.000 A 
ATOM     23  F   UNL     1       8.699   7.362  18.620  0.00  0.00    +0.000 F 
ATOM     24  C   UNL     1       6.744   7.029  17.342  0.00  0.00    +0.000 A 
ATOM     25  C   UNL     1       5.543   6.345  17.158  0.00  0.00    +0.000 A 
ATOM     26  F   UNL     1       4.759   6.686  16.125  0.00  0.00    +0.000 F 
ENDBRANCH  18  19
ENDBRANCH   6  18
TORSDOF 5
ENDMDL
MODEL 7
REMARK VINA RESULT:      -8.4      3.886      8.002
REMARK  Name = 
REMARK  5 active torsions:
REMARK  status: ('A' for Active; 'I' for Inactive)
REMARK    1  A    between atoms: C_2  and  C_20
REMARK    2  A    between atoms: N_3  and  C_4
REMARK    3  A    between atoms: C_4  and  C_5
REMARK    4  A    between atoms: C_10  and  O_11
REMARK    5  A    between atoms: O_11  and  C_12
REMARK                            x       y       z     vdW  Elec       q    Type
REMARK                         _______ _______ _______ _____ _____    ______ ____
ROOT
ATOM      1  C   UNL     1       2.604   5.291  19.823  0.00  0.00    +0.000 A 
ATOM      2  C   UNL     1       1.325   4.763  20.071  0.00  0.00    +0.000 A 
ATOM      3  C   UNL     1       1.155   3.407  20.333  0.00  0.00    +0.000 A 
ATOM      4  C   UNL     1       2.279   2.612  20.380  0.00  0.00    +0.000 A 
ATOM      5  N   UNL     1       3.523   3.077  20.165  0.00  0.00    +0.000 NA
ATOM      6  C   UNL     1       3.668   4.391  19.850  0.00  0.00    +0.000 A 
ENDROOT
BRANCH   1   7
ATOM      7  C   UNL     1       2.745   6.759  19.534  0.00  0.00    +0.000 C 
BRANCH   7  10
ATOM      8  O   UNL     1       1.469   9.264  18.936  0.00  0.00    +0.000 OA
ATOM      9  C   UNL     1       1.375   8.776  20.059  0.00  0.00    +0.000 C 
ATOM     10  N   UNL     1       1.964   7.583  20.435  0.00  0.00    +0.000 N 
ATOM     11  H   UNL     1       1.821   7.268  21.390  0.00  0.00    +0.000 HD
BRANCH   9  12
ATOM     12  C   UNL     1       0.594   9.470  21.130  0.00  0.00    +0.000 A 
ATOM     13  C   UNL     1      -0.371  10.413  20.812  0.00  0.00    +0.000 A 
ATOM     14  C   UNL     1      -1.062  11.023  21.853  0.00  0.00    +0.000 A 
ATOM     15  C   UNL     1      -0.744  10.654  23.148  0.00  0.00    +0.000 A 
ATOM     16  N   UNL     1       0.200   9.734  23.433  0.00  0.00    +0.000 NA
ATOM     17  N   UNL     1       0.878   9.128  22.412  0.00  0.00    +0.000 NA
ENDBRANCH   9  12
ENDBRANCH   7  10
ENDBRANCH   1   7
BRANCH   6  18
ATOM     18  O   UNL     1       4.943   4.836  19.502  0.00  0.00    +0.000 OA
BRANCH  18  19
ATOM     19  C   UNL     1       5.346   4.622  18.195  0.00  0.00    +0.000 A 
ATOM     20  C   UNL     1       4.442   4.326  17.164  0.00  0.00    +0.000 A 
ATOM     21  C   UNL     1       4.907   4.055  15.876  0.00  0.00    +0.000 A 
ATOM     22  C   UNL     1       6.267   4.137  15.607  0.00  0.00    +0.000 A 
ATOM     23  F   UNL     1       6.710   3.870  14.371  0.00  0.00    +0.000 F 
ATOM     24  C   UNL     1       7.172   4.496  16.598  0.00  0.00    +0.000 A 
ATOM     25  C   UNL     1       6.704   4.737  17.889  0.00  0.00    +0.000 A 
ATOM     26  F   UNL     1       7.586   5.075  18.842  0.00  0.00    +0.000 F 
ENDBRANCH  18  19
ENDBRANCH   6  18
TORSDOF 5
ENDMDL
MODEL 8
REMARK VINA RESULT:      -8.4      1.071      1.187
REMARK  Name = 
REMARK  5 active torsions:
REMARK  status: ('A' for Active; 'I' for Inactive)
REMARK    1  A    between atoms: C_2  and  C_20
REMARK    2  A    between atoms: N_3  and  C_4
REMARK    3  A    between atoms: C_4  and  C_5
REMARK    4  A    between atoms: C_10  and  O_11
REMARK    5  A    between atoms: O_11  and  C_12
REMARK                            x       y       z     vdW  Elec       q    Type
REMARK                         _______ _______ _______ _____ _____    ______ ____
ROOT
ATOM      1  C   UNL     1       3.645   3.488  18.315  0.00  0.00    +0.000 A 
ATOM      2  C   UNL     1       3.056   2.263  18.674  0.00  0.00    +0.000 A 
ATOM      3  C   UNL     1       1.674   2.143  18.779  0.00  0.00    +0.000 A 
ATOM      4  C   UNL     1       0.905   3.247  18.482  0.00  0.00    +0.000 A 
ATOM      5  N   UNL     1       1.425   4.434  18.118  0.00  0.00    +0.000 NA
ATOM      6  C   UNL     1       2.778   4.553  18.080  0.00  0.00    +0.000 A 
ENDROOT
BRANCH   1   7
ATOM      7  C   UNL     1       5.142   3.579  18.222  0.00  0.00    +0.000 C 
BRANCH   7  10
ATOM      8  O   UNL     1       6.674   5.748  17.123  0.00  0.00    +0.000 OA
ATOM      9  C   UNL     1       6.354   4.798  16.415  0.00  0.00    +0.000 C 
ATOM     10  N   UNL     1       5.610   3.720  16.858  0.00  0.00    +0.000 N 
ATOM     11  H   UNL     1       5.402   2.984  16.188  0.00  0.00    +0.000 HD
BRANCH   9  12
ATOM     12  C   UNL     1       6.757   4.749  14.975  0.00  0.00    +0.000 A 
ATOM     13  C   UNL     1       6.091   3.933  14.074  0.00  0.00    +0.000 A 
ATOM     14  C   UNL     1       6.514   3.932  12.750  0.00  0.00    +0.000 A 
ATOM     15  C   UNL     1       7.578   4.747  12.408  0.00  0.00    +0.000 A 
ATOM     16  N   UNL     1       8.211   5.533  13.301  0.00  0.00    +0.000 NA
ATOM     17  N   UNL     1       7.795   5.541  14.604  0.00  0.00    +0.000 NA
ENDBRANCH   9  12
ENDBRANCH   7  10
ENDBRANCH   1   7
BRANCH   6  18
ATOM     18  O   UNL     1       3.309   5.818  17.829  0.00  0.00    +0.000 OA
BRANCH  18  19
ATOM     19  C   UNL     1       2.627   6.899  18.359  0.00  0.00    +0.000 A 
ATOM     20  C   UNL     1       2.154   7.957  17.567  0.00  0.00    +0.000 A 
ATOM     21  C   UNL     1       1.529   9.055  18.159  0.00  0.00    +0.000 A 
ATOM     22  C   UNL     1       1.324   9.069  19.532  0.00  0.00    +0.000 A 
ATOM     23  F   UNL     1       0.728  10.128  20.097  0.00  0.00    +0.000 F 
ATOM     24  C   UNL     1       1.722   8.000  20.326  0.00  0.00    +0.000 A 
ATOM     25  C   UNL     1       2.372   6.919  19.732  0.00  0.00    +0.000 A 
ATOM     26  F   UNL     1       2.760   5.896  20.508  0.00  0.00    +0.000 F 
ENDBRANCH  18  19
ENDBRANCH   6  18
TORSDOF 5
ENDMDL
MODEL 9
REMARK VINA RESULT:      -8.4      1.510      1.972
REMARK  Name = 
REMARK  5 active torsions:
REMARK  status: ('A' for Active; 'I' for Inactive)
REMARK    1  A    between atoms: C_2  and  C_20
REMARK    2  A    between atoms: N_3  and  C_4
REMARK    3  A    between atoms: C_4  and  C_5
REMARK    4  A    between atoms: C_10  and  O_11
REMARK    5  A    between atoms: O_11  and  C_12
REMARK                            x       y       z     vdW  Elec       q    Type
REMARK                         _______ _______ _______ _____ _____    ______ ____
ROOT
ATOM      1  C   UNL     1       3.576   4.638  19.672  0.00  0.00    +0.000 A 
ATOM      2  C   UNL     1       3.425   3.449  20.406  0.00  0.00    +0.000 A 
ATOM      3  C   UNL     1       2.161   2.955  20.708  0.00  0.00    +0.000 A 
ATOM      4  C   UNL     1       1.067   3.646  20.233  0.00  0.00    +0.000 A 
ATOM      5  N   UNL     1       1.163   4.778  19.514  0.00  0.00    +0.000 NA
ATOM      6  C   UNL     1       2.404   5.282  19.278  0.00  0.00    +0.000 A 
ENDROOT
BRANCH   1   7
ATOM      7  C   UNL     1       4.960   5.143  19.374  0.00  0.00    +0.000 C 
BRANCH   7  10
ATOM      8  O   UNL     1       7.487   4.404  18.221  0.00  0.00    +0.000 OA
ATOM      9  C   UNL     1       6.537   4.688  17.496  0.00  0.00    +0.000 C 
ATOM     10  N   UNL     1       5.292   5.064  17.966  0.00  0.00    +0.000 N 
ATOM     11  H   UNL     1       4.574   5.276  17.278  0.00  0.00    +0.000 HD
BRANCH   9  12
ATOM     12  C   UNL     1       6.676   4.651  16.007  0.00  0.00    +0.000 A 
ATOM     13  C   UNL     1       5.903   3.794  15.239  0.00  0.00    +0.000 A 
ATOM     14  C   UNL     1       6.079   3.806  13.860  0.00  0.00    +0.000 A 
ATOM     15  C   UNL     1       7.018   4.674  13.334  0.00  0.00    +0.000 A 
ATOM     16  N   UNL     1       7.759   5.499  14.100  0.00  0.00    +0.000 NA
ATOM     17  N   UNL     1       7.585   5.494  15.457  0.00  0.00    +0.000 NA
ENDBRANCH   9  12
ENDBRANCH   7  10
ENDBRANCH   1   7
BRANCH   6  18
ATOM     18  O   UNL     1       2.490   6.521  18.645  0.00  0.00    +0.000 OA
BRANCH  18  19
ATOM     19  C   UNL     1       1.972   7.609  19.326  0.00  0.00    +0.000 A 
ATOM     20  C   UNL     1       1.739   7.594  20.710  0.00  0.00    +0.000 A 
ATOM     21  C   UNL     1       1.155   8.695  21.338  0.00  0.00    +0.000 A 
ATOM     22  C   UNL     1       0.859   9.831  20.594  0.00  0.00    +0.000 A 
ATOM     23  F   UNL     1       0.294  10.884  21.200  0.00  0.00    +0.000 F 
ATOM     24  C   UNL     1       1.146   9.892  19.236  0.00  0.00    +0.000 A 
ATOM     25  C   UNL     1       1.703   8.777  18.610  0.00  0.00    +0.000 A 
ATOM     26  F   UNL     1       1.969   8.843  17.297  0.00  0.00    +0.000 F 
ENDBRANCH  18  19
ENDBRANCH   6  18
TORSDOF 5
ENDMDL
