MODEL 1
REMARK VINA RESULT:      -8.7      0.000      0.000
REMARK  Name = 
REMARK  5 active torsions:
REMARK  status: ('A' for Active; 'I' for Inactive)
REMARK    1  A    between atoms: N_2  and  C_3
REMARK    2  A    between atoms: C_8  and  C_9
REMARK    3  A    between atoms: C_15  and  C_17
REMARK    4  A    between atoms: C_22  and  N_23
REMARK    5  A    between atoms: C_35  and  C_36
REMARK                            x       y       z     vdW  Elec       q    Type
REMARK                         _______ _______ _______ _____ _____    ______ ____
ROOT
ATOM      1  C   UNL     1       0.653  10.933  19.635  0.00  0.00    +0.000 C 
ATOM      2  C   UNL     1       1.385  10.188  18.462  0.00  0.00    +0.000 C 
ATOM      3  N   UNL     1       1.595   8.725  18.559  0.00  0.00    +0.000 NA
ATOM      4  C   UNL     1       2.816   8.311  17.831  0.00  0.00    +0.000 C 
ATOM      5  C   UNL     1       3.091   6.793  17.900  0.00  0.00    +0.000 C 
ATOM      6  N   UNL     1       3.014   6.264  19.258  0.00  0.00    +0.000 N 
ATOM      7  C   UNL     1       3.677   5.135  19.701  0.00  0.00    +0.000 C 
ATOM      8  O   UNL     1       3.262   4.573  20.730  0.00  0.00    +0.000 OA
ATOM      9  C   UNL     1       1.810   6.723  20.003  0.00  0.00    +0.000 C 
ATOM     10  C   UNL     1       1.702   8.267  19.964  0.00  0.00    +0.000 C 
ATOM     11  C   UNL     1       0.518   8.827  20.757  0.00  0.00    +0.000 C 
ATOM     12  O   UNL     1       0.711  10.243  20.902  0.00  0.00    +0.000 OA
ENDROOT
BRANCH   7  13
ATOM     13  C   UNL     1       5.034   4.655  19.203  0.00  0.00    +0.000 C 
ATOM     14  C   UNL     1       6.042   5.821  19.386  0.00  0.00    +0.000 C 
ATOM     15  C   UNL     1       7.363   5.250  18.888  0.00  0.00    +0.000 C 
ATOM     16  C   UNL     1       6.828   4.593  17.661  0.00  0.00    +0.000 A 
ATOM     17  C   UNL     1       7.457   4.531  16.439  0.00  0.00    +0.000 A 
ATOM     18  C   UNL     1       6.687   4.127  15.354  0.00  0.00    +0.000 A 
ATOM     19  C   UNL     1       5.414   3.594  15.601  0.00  0.00    +0.000 A 
ATOM     20  N   UNL     1       4.789   3.625  16.824  0.00  0.00    +0.000 NA
ATOM     21  C   UNL     1       5.484   4.215  17.812  0.00  0.00    +0.000 A 
BRANCH  18  22
ATOM     22  N   UNL     1       7.134   4.472  14.063  0.00  0.00    +0.000 N 
ATOM     23  C   UNL     1       6.741   4.025  12.828  0.00  0.00    +0.000 A 
ATOM     24  N   UNL     1       7.226   4.820  11.903  0.00  0.00    +0.000 NA
ATOM     25  N   UNL     1       7.960   5.765  12.563  0.00  0.00    +0.000 NA
ATOM     26  N   UNL     1       7.953   5.538  13.867  0.00  0.00    +0.000 NA
ENDBRANCH  18  22
ENDBRANCH   7  13
BRANCH   1  32
ATOM     27  C   UNL     1       1.481  14.500  20.915  0.00  0.00    +0.000 A 
ATOM     28  C   UNL     1       2.530  14.851  20.052  0.00  0.00    +0.000 A 
ATOM     29  F   UNL     1       3.134  16.037  20.179  0.00  0.00    +0.000 F 
ATOM     30  C   UNL     1       2.928  13.974  19.073  0.00  0.00    +0.000 A 
ATOM     31  C   UNL     1       2.308  12.725  18.962  0.00  0.00    +0.000 A 
ATOM     32  C   UNL     1       1.258  12.331  19.832  0.00  0.00    +0.000 A 
ATOM     33  C   UNL     1       0.806  13.263  20.799  0.00  0.00    +0.000 A 
ATOM     34  C   UNL     1      -0.355  12.995  21.721  0.00  0.00    +0.000 C 
BRANCH  27  36
ATOM     35  C   UNL     1       0.826  16.169  22.748  0.00  0.00    +0.000 C 
ATOM     36  N   UNL     1       1.118  15.412  21.905  0.00  0.00    +0.000 NA
ENDBRANCH  27  36
ENDBRANCH   1  32
TORSDOF 4
ENDMDL
MODEL 2
REMARK VINA RESULT:      -8.1      1.159      1.422
REMARK  Name = 
REMARK  5 active torsions:
REMARK  status: ('A' for Active; 'I' for Inactive)
REMARK    1  A    between atoms: N_2  and  C_3
REMARK    2  A    between atoms: C_8  and  C_9
REMARK    3  A    between atoms: C_15  and  C_17
REMARK    4  A    between atoms: C_22  and  N_23
REMARK    5  A    between atoms: C_35  and  C_36
REMARK                            x       y       z     vdW  Elec       q    Type
REMARK                         _______ _______ _______ _____ _____    ______ ____
ROOT
ATOM      1  C   UNL     1       0.621  11.346  19.748  0.00  0.00    +0.000 C 
ATOM      2  C   UNL     1       1.288  10.560  18.563  0.00  0.00    +0.000 C 
ATOM      3  N   UNL     1       1.425   9.089  18.664  0.00  0.00    +0.000 NA
ATOM      4  C   UNL     1       2.607   8.610  17.912  0.00  0.00    +0.000 C 
ATOM      5  C   UNL     1       2.806   7.080  17.983  0.00  0.00    +0.000 C 
ATOM      6  N   UNL     1       2.732   6.561  19.344  0.00  0.00    +0.000 N 
ATOM      7  C   UNL     1       3.347   5.402  19.779  0.00  0.00    +0.000 C 
ATOM      8  O   UNL     1       2.926   4.865  20.819  0.00  0.00    +0.000 OA
ATOM      9  C   UNL     1       1.570   7.084  20.113  0.00  0.00    +0.000 C 
ATOM     10  C   UNL     1       1.540   8.631  20.068  0.00  0.00    +0.000 C 
ATOM     11  C   UNL     1       0.404   9.255  20.884  0.00  0.00    +0.000 C 
ATOM     12  O   UNL     1       0.672  10.660  21.017  0.00  0.00    +0.000 OA
ENDROOT
BRANCH   7  13
ATOM     13  C   UNL     1       4.667   4.851  19.254  0.00  0.00    +0.000 C 
ATOM     14  C   UNL     1       5.714   5.994  19.323  0.00  0.00    +0.000 C 
ATOM     15  C   UNL     1       6.995   5.354  18.805  0.00  0.00    +0.000 C 
ATOM     16  C   UNL     1       6.388   4.641  17.644  0.00  0.00    +0.000 A 
ATOM     17  C   UNL     1       6.960   4.486  16.402  0.00  0.00    +0.000 A 
ATOM     18  C   UNL     1       6.132   4.042  15.378  0.00  0.00    +0.000 A 
ATOM     19  C   UNL     1       4.856   3.564  15.711  0.00  0.00    +0.000 A 
ATOM     20  N   UNL     1       4.287   3.688  16.955  0.00  0.00    +0.000 NA
ATOM     21  C   UNL     1       5.041   4.315  17.875  0.00  0.00    +0.000 A 
BRANCH  18  22
ATOM     22  N   UNL     1       6.531   4.295  14.050  0.00  0.00    +0.000 N 
ATOM     23  C   UNL     1       7.477   5.149  13.546  0.00  0.00    +0.000 A 
ATOM     24  N   UNL     1       7.705   4.852  12.287  0.00  0.00    +0.000 NA
ATOM     25  N   UNL     1       6.869   3.813  11.987  0.00  0.00    +0.000 NA
ATOM     26  N   UNL     1       6.118   3.499  13.030  0.00  0.00    +0.000 NA
ENDBRANCH  18  22
ENDBRANCH   7  13
BRANCH   1  32
ATOM     27  C   UNL     1       1.540  15.111  19.587  0.00  0.00    +0.000 A 
ATOM     28  C   UNL     1       2.680  15.138  20.404  0.00  0.00    +0.000 A 
ATOM     29  F   UNL     1       3.311  16.293  20.637  0.00  0.00    +0.000 F 
ATOM     30  C   UNL     1       3.148  13.972  20.958  0.00  0.00    +0.000 A 
ATOM     31  C   UNL     1       2.467  12.770  20.730  0.00  0.00    +0.000 A 
ATOM     32  C   UNL     1       1.300  12.712  19.925  0.00  0.00    +0.000 A 
ATOM     33  C   UNL     1       0.858  13.905  19.303  0.00  0.00    +0.000 A 
ATOM     34  C   UNL     1      -0.316  13.956  18.360  0.00  0.00    +0.000 C 
BRANCH  27  36
ATOM     35  C   UNL     1       0.701  17.323  18.596  0.00  0.00    +0.000 C 
ATOM     36  N   UNL     1       1.089  16.319  19.057  0.00  0.00    +0.000 NA
ENDBRANCH  27  36
ENDBRANCH   1  32
TORSDOF 4
ENDMDL
MODEL 3
REMARK VINA RESULT:      -8.0      0.879      1.693
REMARK  Name = 
REMARK  5 active torsions:
REMARK  status: ('A' for Active; 'I' for Inactive)
REMARK    1  A    between atoms: N_2  and  C_3
REMARK    2  A    between atoms: C_8  and  C_9
REMARK    3  A    between atoms: C_15  and  C_17
REMARK    4  A    between atoms: C_22  and  N_23
REMARK    5  A    between atoms: C_35  and  C_36
REMARK                            x       y       z     vdW  Elec       q    Type
REMARK                         _______ _______ _______ _____ _____    ______ ____
ROOT
ATOM      1  C   UNL     1       0.646  11.143  19.729  0.00  0.00    +0.000 C 
ATOM      2  C   UNL     1       1.406  10.419  18.560  0.00  0.00    +0.000 C 
ATOM      3  N   UNL     1       1.569   8.948  18.612  0.00  0.00    +0.000 NA
ATOM      4  C   UNL     1       2.807   8.523  17.920  0.00  0.00    +0.000 C 
ATOM      5  C   UNL     1       3.035   6.996  17.944  0.00  0.00    +0.000 C 
ATOM      6  N   UNL     1       2.886   6.421  19.277  0.00  0.00    +0.000 N 
ATOM      7  C   UNL     1       3.497   5.258  19.705  0.00  0.00    +0.000 C 
ATOM      8  O   UNL     1       3.023   4.672  20.695  0.00  0.00    +0.000 OA
ATOM      9  C   UNL     1       1.665   6.890  19.989  0.00  0.00    +0.000 C 
ATOM     10  C   UNL     1       1.604   8.437  20.002  0.00  0.00    +0.000 C 
ATOM     11  C   UNL     1       0.405   9.004  20.766  0.00  0.00    +0.000 C 
ATOM     12  O   UNL     1       0.632  10.408  20.971  0.00  0.00    +0.000 OA
ENDROOT
BRANCH   7  13
ATOM     13  C   UNL     1       4.860   4.755  19.246  0.00  0.00    +0.000 C 
ATOM     14  C   UNL     1       5.875   5.914  19.428  0.00  0.00    +0.000 C 
ATOM     15  C   UNL     1       7.201   5.321  18.969  0.00  0.00    +0.000 C 
ATOM     16  C   UNL     1       6.685   4.644  17.744  0.00  0.00    +0.000 A 
ATOM     17  C   UNL     1       7.339   4.552  16.537  0.00  0.00    +0.000 A 
ATOM     18  C   UNL     1       6.588   4.135  15.444  0.00  0.00    +0.000 A 
ATOM     19  C   UNL     1       5.304   3.619  15.674  0.00  0.00    +0.000 A 
ATOM     20  N   UNL     1       4.654   3.681  16.882  0.00  0.00    +0.000 NA
ATOM     21  C   UNL     1       5.334   4.283  17.873  0.00  0.00    +0.000 A 
BRANCH  18  22
ATOM     22  N   UNL     1       7.066   4.450  14.156  0.00  0.00    +0.000 N 
ATOM     23  C   UNL     1       6.697   3.980  12.922  0.00  0.00    +0.000 A 
ATOM     24  N   UNL     1       7.207   4.753  11.991  0.00  0.00    +0.000 NA
ATOM     25  N   UNL     1       7.933   5.707  12.648  0.00  0.00    +0.000 NA
ATOM     26  N   UNL     1       7.896   5.507  13.956  0.00  0.00    +0.000 NA
ENDBRANCH  18  22
ENDBRANCH   7  13
BRANCH   1  32
ATOM     27  C   UNL     1       2.708  14.421  19.489  0.00  0.00    +0.000 A 
ATOM     28  C   UNL     1       2.314  15.065  20.672  0.00  0.00    +0.000 A 
ATOM     29  F   UNL     1       2.796  16.276  20.967  0.00  0.00    +0.000 F 
ATOM     30  C   UNL     1       1.439  14.442  21.527  0.00  0.00    +0.000 A 
ATOM     31  C   UNL     1       0.920  13.184  21.199  0.00  0.00    +0.000 A 
ATOM     32  C   UNL     1       1.283  12.515  20.001  0.00  0.00    +0.000 A 
ATOM     33  C   UNL     1       2.235  13.131  19.153  0.00  0.00    +0.000 A 
ATOM     34  C   UNL     1       2.762  12.483  17.900  0.00  0.00    +0.000 C 
BRANCH  27  36
ATOM     35  C   UNL     1       4.325  15.674  17.944  0.00  0.00    +0.000 C 
ATOM     36  N   UNL     1       3.587  15.094  18.642  0.00  0.00    +0.000 NA
ENDBRANCH  27  36
ENDBRANCH   1  32
TORSDOF 4
ENDMDL
MODEL 4
REMARK VINA RESULT:      -8.0      2.946      4.878
REMARK  Name = 
REMARK  5 active torsions:
REMARK  status: ('A' for Active; 'I' for Inactive)
REMARK    1  A    between atoms: N_2  and  C_3
REMARK    2  A    between atoms: C_8  and  C_9
REMARK    3  A    between atoms: C_15  and  C_17
REMARK    4  A    between atoms: C_22  and  N_23
REMARK    5  A    between atoms: C_35  and  C_36
REMARK                            x       y       z     vdW  Elec       q    Type
REMARK                         _______ _______ _______ _____ _____    ______ ____
ROOT
ATOM      1  C   UNL     1       3.119  14.793  19.249  0.00  0.00    +0.000 C 
ATOM      2  C   UNL     1       2.670  13.694  18.221  0.00  0.00    +0.000 C 
ATOM      3  N   UNL     1       1.802  12.588  18.687  0.00  0.00    +0.000 NA
ATOM      4  C   UNL     1       2.038  11.356  17.900  0.00  0.00    +0.000 C 
ATOM      5  C   UNL     1       1.163  10.163  18.343  0.00  0.00    +0.000 C 
ATOM      6  N   UNL     1       1.186   9.947  19.785  0.00  0.00    +0.000 N 
ATOM      7  C   UNL     1       0.952   8.732  20.403  0.00  0.00    +0.000 C 
ATOM      8  O   UNL     1       0.632   8.734  21.605  0.00  0.00    +0.000 OA
ATOM      9  C   UNL     1       0.998  11.196  20.573  0.00  0.00    +0.000 C 
ATOM     10  C   UNL     1       2.007  12.280  20.121  0.00  0.00    +0.000 C 
ATOM     11  C   UNL     1       1.918  13.582  20.922  0.00  0.00    +0.000 C 
ATOM     12  O   UNL     1       3.086  14.366  20.627  0.00  0.00    +0.000 OA
ENDROOT
BRANCH   7  13
ATOM     13  C   UNL     1       1.303   7.367  19.828  0.00  0.00    +0.000 C 
ATOM     14  C   UNL     1       1.593   6.414  21.018  0.00  0.00    +0.000 C 
ATOM     15  C   UNL     1       1.910   5.080  20.356  0.00  0.00    +0.000 C 
ATOM     16  C   UNL     1       2.796   5.613  19.282  0.00  0.00    +0.000 A 
ATOM     17  C   UNL     1       3.941   5.015  18.808  0.00  0.00    +0.000 A 
ATOM     18  C   UNL     1       4.775   5.792  18.013  0.00  0.00    +0.000 A 
ATOM     19  C   UNL     1       4.300   7.030  17.557  0.00  0.00    +0.000 A 
ATOM     20  N   UNL     1       3.144   7.623  18.003  0.00  0.00    +0.000 NA
ATOM     21  C   UNL     1       2.463   6.933  18.934  0.00  0.00    +0.000 A 
BRANCH  18  22
ATOM     22  N   UNL     1       6.123   5.397  17.888  0.00  0.00    +0.000 N 
ATOM     23  C   UNL     1       7.118   5.292  18.825  0.00  0.00    +0.000 A 
ATOM     24  N   UNL     1       8.126   4.622  18.317  0.00  0.00    +0.000 NA
ATOM     25  N   UNL     1       7.772   4.325  17.030  0.00  0.00    +0.000 NA
ATOM     26  N   UNL     1       6.583   4.831  16.742  0.00  0.00    +0.000 NA
ENDBRANCH  18  22
ENDBRANCH   7  13
BRANCH   1  32
ATOM     27  C   UNL     1       6.511  16.675  19.192  0.00  0.00    +0.000 A 
ATOM     28  C   UNL     1       7.213  15.922  18.239  0.00  0.00    +0.000 A 
ATOM     29  F   UNL     1       8.475  16.237  17.933  0.00  0.00    +0.000 F 
ATOM     30  C   UNL     1       6.595  14.865  17.618  0.00  0.00    +0.000 A 
ATOM     31  C   UNL     1       5.281  14.526  17.961  0.00  0.00    +0.000 A 
ATOM     32  C   UNL     1       4.551  15.255  18.935  0.00  0.00    +0.000 A 
ATOM     33  C   UNL     1       5.168  16.384  19.527  0.00  0.00    +0.000 A 
ATOM     34  C   UNL     1       4.467  17.286  20.509  0.00  0.00    +0.000 C 
BRANCH  27  36
ATOM     35  C   UNL     1       7.730  18.630  20.318  0.00  0.00    +0.000 C 
ATOM     36  N   UNL     1       7.180  17.731  19.810  0.00  0.00    +0.000 NA
ENDBRANCH  27  36
ENDBRANCH   1  32
TORSDOF 4
ENDMDL
MODEL 5
REMARK VINA RESULT:      -7.9      4.023      6.271
REMARK  Name = 
REMARK  5 active torsions:
REMARK  status: ('A' for Active; 'I' for Inactive)
REMARK    1  A    between atoms: N_2  and  C_3
REMARK    2  A    between atoms: C_8  and  C_9
REMARK    3  A    between atoms: C_15  and  C_17
REMARK    4  A    between atoms: C_22  and  N_23
REMARK    5  A    between atoms: C_35  and  C_36
REMARK                            x       y       z     vdW  Elec       q    Type
REMARK                         _______ _______ _______ _____ _____    ______ ____
ROOT
ATOM      1  C   UNL     1      -2.332  14.237  22.333  0.00  0.00    +0.000 C 
ATOM      2  C   UNL     1      -1.613  12.947  22.868  0.00  0.00    +0.000 C 
ATOM      3  N   UNL     1      -0.440  12.422  22.133  0.00  0.00    +0.000 NA
ATOM      4  C   UNL     1      -0.328  10.953  22.285  0.00  0.00    +0.000 C 
ATOM      5  C   UNL     1       0.878  10.345  21.535  0.00  0.00    +0.000 C 
ATOM      6  N   UNL     1       0.972  10.797  20.151  0.00  0.00    +0.000 N 
ATOM      7  C   UNL     1       1.577  10.087  19.131  0.00  0.00    +0.000 C 
ATOM      8  O   UNL     1       1.926  10.704  18.109  0.00  0.00    +0.000 OA
ATOM      9  C   UNL     1       0.808  12.268  19.998  0.00  0.00    +0.000 C 
ATOM     10  C   UNL     1      -0.493  12.746  20.688  0.00  0.00    +0.000 C 
ATOM     11  C   UNL     1      -0.766  14.244  20.528  0.00  0.00    +0.000 C 
ATOM     12  O   UNL     1      -2.123  14.493  20.928  0.00  0.00    +0.000 OA
ENDROOT
BRANCH   7  13
ATOM     13  C   UNL     1       1.627   8.569  19.020  0.00  0.00    +0.000 C 
ATOM     14  C   UNL     1       1.823   7.998  20.450  0.00  0.00    +0.000 C 
ATOM     15  C   UNL     1       1.839   6.489  20.247  0.00  0.00    +0.000 C 
ATOM     16  C   UNL     1       2.727   6.474  19.049  0.00  0.00    +0.000 A 
ATOM     17  C   UNL     1       3.704   5.543  18.780  0.00  0.00    +0.000 A 
ATOM     18  C   UNL     1       4.606   5.852  17.768  0.00  0.00    +0.000 A 
ATOM     19  C   UNL     1       4.335   6.953  16.945  0.00  0.00    +0.000 A 
ATOM     20  N   UNL     1       3.344   7.873  17.189  0.00  0.00    +0.000 NA
ATOM     21  C   UNL     1       2.618   7.657  18.300  0.00  0.00    +0.000 A 
BRANCH  18  22
ATOM     22  N   UNL     1       5.845   5.178  17.762  0.00  0.00    +0.000 N 
ATOM     23  C   UNL     1       6.693   4.871  16.729  0.00  0.00    +0.000 A 
ATOM     24  N   UNL     1       7.853   4.494  17.216  0.00  0.00    +0.000 NA
ATOM     25  N   UNL     1       7.724   4.537  18.576  0.00  0.00    +0.000 NA
ATOM     26  N   UNL     1       6.499   4.903  18.920  0.00  0.00    +0.000 NA
ENDBRANCH  18  22
ENDBRANCH   7  13
BRANCH   1  32
ATOM     27  C   UNL     1      -6.072  13.213  22.227  0.00  0.00    +0.000 A 
ATOM     28  C   UNL     1      -6.610  14.084  23.185  0.00  0.00    +0.000 A 
ATOM     29  F   UNL     1      -7.914  14.037  23.478  0.00  0.00    +0.000 F 
ATOM     30  C   UNL     1      -5.793  14.990  23.816  0.00  0.00    +0.000 A 
ATOM     31  C   UNL     1      -4.425  15.017  23.523  0.00  0.00    +0.000 A 
ATOM     32  C   UNL     1      -3.847  14.136  22.573  0.00  0.00    +0.000 A 
ATOM     33  C   UNL     1      -4.702  13.247  21.877  0.00  0.00    +0.000 A 
ATOM     34  C   UNL     1      -4.221  12.324  20.788  0.00  0.00    +0.000 C 
BRANCH  27  36
ATOM     35  C   UNL     1      -7.653  11.518  21.128  0.00  0.00    +0.000 C 
ATOM     36  N   UNL     1      -6.933  12.298  21.620  0.00  0.00    +0.000 NA
ENDBRANCH  27  36
ENDBRANCH   1  32
TORSDOF 4
ENDMDL
MODEL 6
REMARK VINA RESULT:      -7.4      3.551      5.952
REMARK  Name = 
REMARK  5 active torsions:
REMARK  status: ('A' for Active; 'I' for Inactive)
REMARK    1  A    between atoms: N_2  and  C_3
REMARK    2  A    between atoms: C_8  and  C_9
REMARK    3  A    between atoms: C_15  and  C_17
REMARK    4  A    between atoms: C_22  and  N_23
REMARK    5  A    between atoms: C_35  and  C_36
REMARK                            x       y       z     vdW  Elec       q    Type
REMARK                         _______ _______ _______ _____ _____    ______ ____
ROOT
ATOM      1  C   UNL     1       4.287  15.613  19.263  0.00  0.00    +0.000 C 
ATOM      2  C   UNL     1       3.534  14.611  18.316  0.00  0.00    +0.000 C 
ATOM      3  N   UNL     1       2.493  13.727  18.887  0.00  0.00    +0.000 NA
ATOM      4  C   UNL     1       2.400  12.455  18.135  0.00  0.00    +0.000 C 
ATOM      5  C   UNL     1       1.332  11.487  18.688  0.00  0.00    +0.000 C 
ATOM      6  N   UNL     1       1.425  11.304  20.132  0.00  0.00    +0.000 N 
ATOM      7  C   UNL     1       0.991  10.181  20.813  0.00  0.00    +0.000 C 
ATOM      8  O   UNL     1       0.776  10.279  22.034  0.00  0.00    +0.000 OA
ATOM      9  C   UNL     1       1.568  12.582  20.881  0.00  0.00    +0.000 C 
ATOM     10  C   UNL     1       2.743  13.416  20.314  0.00  0.00    +0.000 C 
ATOM     11  C   UNL     1       2.996  14.725  21.067  0.00  0.00    +0.000 C 
ATOM     12  O   UNL     1       4.275  15.234  20.656  0.00  0.00    +0.000 OA
ENDROOT
BRANCH   7  13
ATOM     13  C   UNL     1       0.999   8.760  20.267  0.00  0.00    +0.000 C 
ATOM     14  C   UNL     1       1.393   7.811  21.431  0.00  0.00    +0.000 C 
ATOM     15  C   UNL     1       1.354   6.423  20.806  0.00  0.00    +0.000 C 
ATOM     16  C   UNL     1       2.056   6.772  19.537  0.00  0.00    +0.000 A 
ATOM     17  C   UNL     1       2.967   5.982  18.875  0.00  0.00    +0.000 A 
ATOM     18  C   UNL     1       3.716   6.589  17.873  0.00  0.00    +0.000 A 
ATOM     19  C   UNL     1       3.345   7.872  17.447  0.00  0.00    +0.000 A 
ATOM     20  N   UNL     1       2.416   8.658  18.085  0.00  0.00    +0.000 NA
ATOM     21  C   UNL     1       1.858   8.116  19.181  0.00  0.00    +0.000 A 
BRANCH  18  22
ATOM     22  N   UNL     1       4.929   5.979  17.495  0.00  0.00    +0.000 N 
ATOM     23  C   UNL     1       6.229   6.345  17.729  0.00  0.00    +0.000 A 
ATOM     24  N   UNL     1       7.024   5.341  17.438  0.00  0.00    +0.000 NA
ATOM     25  N   UNL     1       6.213   4.337  16.987  0.00  0.00    +0.000 NA
ATOM     26  N   UNL     1       4.948   4.726  16.969  0.00  0.00    +0.000 NA
ENDBRANCH  18  22
ENDBRANCH   7  13
BRANCH   1  32
ATOM     27  C   UNL     1       7.948  16.804  18.789  0.00  0.00    +0.000 A 
ATOM     28  C   UNL     1       8.439  15.808  17.932  0.00  0.00    +0.000 A 
ATOM     29  F   UNL     1       9.714  15.837  17.531  0.00  0.00    +0.000 F 
ATOM     30  C   UNL     1       7.602  14.808  17.501  0.00  0.00    +0.000 A 
ATOM     31  C   UNL     1       6.275  14.771  17.944  0.00  0.00    +0.000 A 
ATOM     32  C   UNL     1       5.753  15.752  18.826  0.00  0.00    +0.000 A 
ATOM     33  C   UNL     1       6.600  16.818  19.217  0.00  0.00    +0.000 A 
ATOM     34  C   UNL     1       6.138  17.963  20.080  0.00  0.00    +0.000 C 
BRANCH  27  36
ATOM     35  C   UNL     1       9.565  18.628  19.587  0.00  0.00    +0.000 C 
ATOM     36  N   UNL     1       8.835  17.793  19.215  0.00  0.00    +0.000 NA
ENDBRANCH  27  36
ENDBRANCH   1  32
TORSDOF 4
ENDMDL
MODEL 7
REMARK VINA RESULT:      -7.4      4.398     11.965
REMARK  Name = 
REMARK  5 active torsions:
REMARK  status: ('A' for Active; 'I' for Inactive)
REMARK    1  A    between atoms: N_2  and  C_3
REMARK    2  A    between atoms: C_8  and  C_9
REMARK    3  A    between atoms: C_15  and  C_17
REMARK    4  A    between atoms: C_22  and  N_23
REMARK    5  A    between atoms: C_35  and  C_36
REMARK                            x       y       z     vdW  Elec       q    Type
REMARK                         _______ _______ _______ _____ _____    ______ ____
ROOT
ATOM      1  C   UNL     1       1.734   8.717  17.857  0.00  0.00    +0.000 C 
ATOM      2  C   UNL     1       0.321   9.161  18.380  0.00  0.00    +0.000 C 
ATOM      3  N   UNL     1       0.006  10.606  18.460  0.00  0.00    +0.000 NA
ATOM      4  C   UNL     1      -0.961  10.882  19.547  0.00  0.00    +0.000 C 
ATOM      5  C   UNL     1      -1.326  12.376  19.683  0.00  0.00    +0.000 C 
ATOM      6  N   UNL     1      -0.156  13.247  19.709  0.00  0.00    +0.000 N 
ATOM      7  C   UNL     1      -0.114  14.491  20.308  0.00  0.00    +0.000 C 
ATOM      8  O   UNL     1       0.779  15.284  19.960  0.00  0.00    +0.000 OA
ATOM      9  C   UNL     1       0.837  12.933  18.645  0.00  0.00    +0.000 C 
ATOM     10  C   UNL     1       1.215  11.432  18.680  0.00  0.00    +0.000 C 
ATOM     11  C   UNL     1       2.278  11.035  17.651  0.00  0.00    +0.000 C 
ATOM     12  O   UNL     1       2.759   9.725  17.992  0.00  0.00    +0.000 OA
ENDROOT
BRANCH   7  13
ATOM     13  C   UNL     1      -0.895  14.901  21.549  0.00  0.00    +0.000 C 
ATOM     14  C   UNL     1      -0.401  14.022  22.729  0.00  0.00    +0.000 C 
ATOM     15  C   UNL     1      -1.213  14.511  23.921  0.00  0.00    +0.000 C 
ATOM     16  C   UNL     1      -2.532  14.582  23.228  0.00  0.00    +0.000 A 
ATOM     17  C   UNL     1      -3.749  14.246  23.774  0.00  0.00    +0.000 A 
ATOM     18  C   UNL     1      -4.818  14.110  22.895  0.00  0.00    +0.000 A 
ATOM     19  C   UNL     1      -4.653  14.542  21.572  0.00  0.00    +0.000 A 
ATOM     20  N   UNL     1      -3.446  14.907  21.025  0.00  0.00    +0.000 NA
ATOM     21  C   UNL     1      -2.390  14.826  21.852  0.00  0.00    +0.000 A 
BRANCH  18  22
ATOM     22  N   UNL     1      -5.929  13.353  23.320  0.00  0.00    +0.000 N 
ATOM     23  C   UNL     1      -6.959  13.669  24.166  0.00  0.00    +0.000 A 
ATOM     24  N   UNL     1      -7.910  12.771  24.050  0.00  0.00    +0.000 NA
ATOM     25  N   UNL     1      -7.458  11.859  23.137  0.00  0.00    +0.000 NA
ATOM     26  N   UNL     1      -6.240  12.172  22.724  0.00  0.00    +0.000 NA
ENDBRANCH  18  22
ENDBRANCH   7  13
BRANCH   1  32
ATOM     27  C   UNL     1       3.701   5.594  19.052  0.00  0.00    +0.000 A 
ATOM     28  C   UNL     1       2.923   5.199  20.150  0.00  0.00    +0.000 A 
ATOM     29  F   UNL     1       3.283   4.137  20.879  0.00  0.00    +0.000 F 
ATOM     30  C   UNL     1       1.787   5.902  20.468  0.00  0.00    +0.000 A 
ATOM     31  C   UNL     1       1.430   7.026  19.715  0.00  0.00    +0.000 A 
ATOM     32  C   UNL     1       2.206   7.463  18.610  0.00  0.00    +0.000 A 
ATOM     33  C   UNL     1       3.340   6.698  18.245  0.00  0.00    +0.000 A 
ATOM     34  C   UNL     1       4.193   7.012  17.044  0.00  0.00    +0.000 C 
BRANCH  27  36
ATOM     35  C   UNL     1       5.827   4.262  18.523  0.00  0.00    +0.000 C 
ATOM     36  N   UNL     1       4.854   4.862  18.772  0.00  0.00    +0.000 NA
ENDBRANCH  27  36
ENDBRANCH   1  32
TORSDOF 4
ENDMDL
MODEL 8
REMARK VINA RESULT:      -7.3      2.701      4.555
REMARK  Name = 
REMARK  5 active torsions:
REMARK  status: ('A' for Active; 'I' for Inactive)
REMARK    1  A    between atoms: N_2  and  C_3
REMARK    2  A    between atoms: C_8  and  C_9
REMARK    3  A    between atoms: C_15  and  C_17
REMARK    4  A    between atoms: C_22  and  N_23
REMARK    5  A    between atoms: C_35  and  C_36
REMARK                            x       y       z     vdW  Elec       q    Type
REMARK                         _______ _______ _______ _____ _____    ______ ____
ROOT
ATOM      1  C   UNL     1      -0.495  14.820  20.298  0.00  0.00    +0.000 C 
ATOM      2  C   UNL     1      -1.104  13.591  19.533  0.00  0.00    +0.000 C 
ATOM      3  N   UNL     1      -1.004  12.244  20.143  0.00  0.00    +0.000 NA
ATOM      4  C   UNL     1      -0.949  11.191  19.104  0.00  0.00    +0.000 C 
ATOM      5  C   UNL     1      -0.839   9.762  19.680  0.00  0.00    +0.000 C 
ATOM      6  N   UNL     1       0.202   9.636  20.693  0.00  0.00    +0.000 N 
ATOM      7  C   UNL     1       0.864   8.462  21.000  0.00  0.00    +0.000 C 
ATOM      8  O   UNL     1       1.443   8.381  22.098  0.00  0.00    +0.000 OA
ATOM      9  C   UNL     1       0.174  10.726  21.707  0.00  0.00    +0.000 C 
ATOM     10  C   UNL     1       0.185  12.111  21.016  0.00  0.00    +0.000 C 
ATOM     11  C   UNL     1       0.214  13.291  21.992  0.00  0.00    +0.000 C 
ATOM     12  O   UNL     1       0.537  14.476  21.247  0.00  0.00    +0.000 OA
ENDROOT
BRANCH   7  13
ATOM     13  C   UNL     1       1.181   7.344  20.016  0.00  0.00    +0.000 C 
ATOM     14  C   UNL     1       1.676   6.122  20.836  0.00  0.00    +0.000 C 
ATOM     15  C   UNL     1       1.945   5.055  19.783  0.00  0.00    +0.000 C 
ATOM     16  C   UNL     1       2.646   5.935  18.804  0.00  0.00    +0.000 A 
ATOM     17  C   UNL     1       3.733   5.584  18.037  0.00  0.00    +0.000 A 
ATOM     18  C   UNL     1       4.413   6.615  17.400  0.00  0.00    +0.000 A 
ATOM     19  C   UNL     1       3.830   7.890  17.383  0.00  0.00    +0.000 A 
ATOM     20  N   UNL     1       2.728   8.243  18.124  0.00  0.00    +0.000 NA
ATOM     21  C   UNL     1       2.215   7.269  18.896  0.00  0.00    +0.000 A 
BRANCH  18  22
ATOM     22  N   UNL     1       5.743   6.378  16.996  0.00  0.00    +0.000 N 
ATOM     23  C   UNL     1       6.267   5.443  16.141  0.00  0.00    +0.000 A 
ATOM     24  N   UNL     1       7.504   5.769  15.845  0.00  0.00    +0.000 NA
ATOM     25  N   UNL     1       7.773   6.910  16.548  0.00  0.00    +0.000 NA
ATOM     26  N   UNL     1       6.732   7.262  17.286  0.00  0.00    +0.000 NA
ENDBRANCH  18  22
ENDBRANCH   7  13
BRANCH   1  32
ATOM     27  C   UNL     1       1.878  16.787  17.943  0.00  0.00    +0.000 A 
ATOM     28  C   UNL     1       0.992  17.737  17.413  0.00  0.00    +0.000 A 
ATOM     29  F   UNL     1       1.423  18.625  16.510  0.00  0.00    +0.000 F 
ATOM     30  C   UNL     1      -0.316  17.756  17.830  0.00  0.00    +0.000 A 
ATOM     31  C   UNL     1      -0.765  16.809  18.757  0.00  0.00    +0.000 A 
ATOM     32  C   UNL     1       0.100  15.822  19.297  0.00  0.00    +0.000 A 
ATOM     33  C   UNL     1       1.463  15.846  18.914  0.00  0.00    +0.000 A 
ATOM     34  C   UNL     1       2.495  14.907  19.482  0.00  0.00    +0.000 C 
BRANCH  27  36
ATOM     35  C   UNL     1       4.292  16.810  17.078  0.00  0.00    +0.000 C 
ATOM     36  N   UNL     1       3.193  16.793  17.481  0.00  0.00    +0.000 NA
ENDBRANCH  27  36
ENDBRANCH   1  32
TORSDOF 4
ENDMDL
MODEL 9
REMARK VINA RESULT:      -7.3      4.029      6.143
REMARK  Name = 
REMARK  5 active torsions:
REMARK  status: ('A' for Active; 'I' for Inactive)
REMARK    1  A    between atoms: N_2  and  C_3
REMARK    2  A    between atoms: C_8  and  C_9
REMARK    3  A    between atoms: C_15  and  C_17
REMARK    4  A    between atoms: C_22  and  N_23
REMARK    5  A    between atoms: C_35  and  C_36
REMARK                            x       y       z     vdW  Elec       q    Type
REMARK                         _______ _______ _______ _____ _____    ______ ____
ROOT
ATOM      1  C   UNL     1      -2.197  13.986  22.175  0.00  0.00    +0.000 C 
ATOM      2  C   UNL     1      -1.171  12.900  22.659  0.00  0.00    +0.000 C 
ATOM      3  N   UNL     1      -0.143  12.410  21.712  0.00  0.00    +0.000 NA
ATOM      4  C   UNL     1       0.239  11.012  22.015  0.00  0.00    +0.000 C 
ATOM      5  C   UNL     1       1.306  10.441  21.056  0.00  0.00    +0.000 C 
ATOM      6  N   UNL     1       0.985  10.666  19.651  0.00  0.00    +0.000 N 
ATOM      7  C   UNL     1       1.429   9.877  18.606  0.00  0.00    +0.000 C 
ATOM      8  O   UNL     1       1.413  10.356  17.458  0.00  0.00    +0.000 OA
ATOM      9  C   UNL     1       0.553  12.060  19.360  0.00  0.00    +0.000 C 
ATOM     10  C   UNL     1      -0.599  12.481  20.304  0.00  0.00    +0.000 C 
ATOM     11  C   UNL     1      -1.142  13.887  20.033  0.00  0.00    +0.000 C 
ATOM     12  O   UNL     1      -2.383  14.029  20.744  0.00  0.00    +0.000 OA
ENDROOT
BRANCH   7  13
ATOM     13  C   UNL     1       1.696   8.380  18.680  0.00  0.00    +0.000 C 
ATOM     14  C   UNL     1       1.868   8.006  20.177  0.00  0.00    +0.000 C 
ATOM     15  C   UNL     1       2.106   6.502  20.158  0.00  0.00    +0.000 C 
ATOM     16  C   UNL     1       3.069   6.483  19.019  0.00  0.00    +0.000 A 
ATOM     17  C   UNL     1       4.181   5.679  18.916  0.00  0.00    +0.000 A 
ATOM     18  C   UNL     1       5.100   6.001  17.924  0.00  0.00    +0.000 A 
ATOM     19  C   UNL     1       4.738   6.954  16.961  0.00  0.00    +0.000 A 
ATOM     20  N   UNL     1       3.615   7.741  17.040  0.00  0.00    +0.000 NA
ATOM     21  C   UNL     1       2.850   7.547  18.129  0.00  0.00    +0.000 A 
BRANCH  18  22
ATOM     22  N   UNL     1       6.418   5.518  18.064  0.00  0.00    +0.000 N 
ATOM     23  C   UNL     1       7.328   5.677  19.077  0.00  0.00    +0.000 A 
ATOM     24  N   UNL     1       8.314   4.825  18.912  0.00  0.00    +0.000 NA
ATOM     25  N   UNL     1       8.034   4.140  17.763  0.00  0.00    +0.000 NA
ATOM     26  N   UNL     1       6.914   4.583  17.213  0.00  0.00    +0.000 NA
ENDBRANCH  18  22
ENDBRANCH   7  13
BRANCH   1  32
ATOM     27  C   UNL     1      -5.880  14.288  23.356  0.00  0.00    +0.000 A 
ATOM     28  C   UNL     1      -6.032  13.079  24.051  0.00  0.00    +0.000 A 
ATOM     29  F   UNL     1      -7.206  12.772  24.613  0.00  0.00    +0.000 F 
ATOM     30  C   UNL     1      -4.969  12.217  24.158  0.00  0.00    +0.000 A 
ATOM     31  C   UNL     1      -3.751  12.534  23.546  0.00  0.00    +0.000 A 
ATOM     32  C   UNL     1      -3.570  13.739  22.819  0.00  0.00    +0.000 A 
ATOM     33  C   UNL     1      -4.648  14.656  22.766  0.00  0.00    +0.000 A 
ATOM     34  C   UNL     1      -4.551  16.003  22.099  0.00  0.00    +0.000 C 
BRANCH  27  36
ATOM     35  C   UNL     1      -7.911  15.845  23.193  0.00  0.00    +0.000 C 
ATOM     36  N   UNL     1      -6.988  15.128  23.259  0.00  0.00    +0.000 NA
ENDBRANCH  27  36
ENDBRANCH   1  32
TORSDOF 4
ENDMDL
