MODEL 1
REMARK VINA RESULT:      -7.5      0.000      0.000
REMARK  Name = 
REMARK  11 active torsions:
REMARK  status: ('A' for Active; 'I' for Inactive)
REMARK    1  A    between atoms: C_1  and  C_2
REMARK    2  A    between atoms: C_2  and  C_3
REMARK    3  A    between atoms: C_7  and  O_8
REMARK    4  A    between atoms: O_8  and  C_9
REMARK    5  A    between atoms: C_9  and  C_10
REMARK    6  A    between atoms: C_10  and  S_11
REMARK    7  A    between atoms: S_11  and  C_12
REMARK    8  A    between atoms: N_20  and  C_21
REMARK    9  A    between atoms: C_21  and  C_22
REMARK   10  A    between atoms: C_22  and  O_24
REMARK   11  A    between atoms: O_24  and  C_25
REMARK                            x       y       z     vdW  Elec       q    Type
REMARK                         _______ _______ _______ _____ _____    ______ ____
ROOT
ATOM      1  C   UNL     1       4.568   5.285  18.747  0.00  0.00    +0.000 A 
ATOM      2  N   UNL     1       4.640   4.458  19.761  0.00  0.00    +0.000 NA
ATOM      3  C   UNL     1       3.405   3.868  19.827  0.00  0.00    +0.000 A 
ATOM      4  C   UNL     1       2.937   2.894  20.722  0.00  0.00    +0.000 A 
ATOM      5  C   UNL     1       1.659   2.362  20.530  0.00  0.00    +0.000 A 
ATOM      6  C   UNL     1       0.857   2.803  19.476  0.00  0.00    +0.000 A 
ATOM      7  C   UNL     1       1.277   3.830  18.616  0.00  0.00    +0.000 A 
ATOM      8  C   UNL     1       2.563   4.348  18.824  0.00  0.00    +0.000 A 
ATOM      9  N   UNL     1       3.288   5.379  18.245  0.00  0.00    +0.000 N 
ENDROOT
BRANCH   1  10
ATOM     10  S   UNL     1       5.899   6.190  18.110  0.00  0.00    +0.000 S 
BRANCH  10  11
ATOM     11  C   UNL     1       7.233   4.937  18.153  0.00  0.00    +0.000 C 
BRANCH  11  12
ATOM     12  C   UNL     1       7.486   4.427  16.734  0.00  0.00    +0.000 C 
BRANCH  12  13
ATOM     13  O   UNL     1       6.339   4.671  15.912  0.00  0.00    +0.000 OA
BRANCH  13  18
ATOM     14  C   UNL     1       6.014   3.493  12.384  0.00  0.00    +0.000 A 
ATOM     15  C   UNL     1       7.047   4.246  11.817  0.00  0.00    +0.000 A 
ATOM     16  C   UNL     1       7.798   5.114  12.608  0.00  0.00    +0.000 A 
ATOM     17  C   UNL     1       7.524   5.228  13.975  0.00  0.00    +0.000 A 
ATOM     18  C   UNL     1       6.506   4.477  14.562  0.00  0.00    +0.000 A 
ATOM     19  C   UNL     1       5.755   3.609  13.761  0.00  0.00    +0.000 A 
BRANCH  14  21
ATOM     20  C   UNL     1       3.926   3.203  11.011  0.00  0.00    +0.000 C 
ATOM     21  C   UNL     1       5.197   2.551  11.534  0.00  0.00    +0.000 C 
ENDBRANCH  14  21
ENDBRANCH  13  18
ENDBRANCH  12  13
ENDBRANCH  11  12
ENDBRANCH  10  11
ENDBRANCH   1  10
BRANCH   9  22
ATOM     22  C   UNL     1       2.701   6.584  17.677  0.00  0.00    +0.000 C 
BRANCH  22  23
ATOM     23  C   UNL     1       2.360   7.702  18.629  0.00  0.00    +0.000 C 
ATOM     24  O   UNL     1       2.181   7.627  19.827  0.00  0.00    +0.000 OA
BRANCH  23  25
ATOM     25  O   UNL     1       2.357   8.862  17.891  0.00  0.00    +0.000 OA
ATOM     26  C   UNL     1       1.299   9.791  18.145  0.00  0.00    +0.000 C 
ENDBRANCH  23  25
ENDBRANCH  22  23
ENDBRANCH   9  22
TORSDOF 9
ENDMDL
MODEL 2
REMARK VINA RESULT:      -7.4      1.931      7.318
REMARK  Name = 
REMARK  11 active torsions:
REMARK  status: ('A' for Active; 'I' for Inactive)
REMARK    1  A    between atoms: C_1  and  C_2
REMARK    2  A    between atoms: C_2  and  C_3
REMARK    3  A    between atoms: C_7  and  O_8
REMARK    4  A    between atoms: O_8  and  C_9
REMARK    5  A    between atoms: C_9  and  C_10
REMARK    6  A    between atoms: C_10  and  S_11
REMARK    7  A    between atoms: S_11  and  C_12
REMARK    8  A    between atoms: N_20  and  C_21
REMARK    9  A    between atoms: C_21  and  C_22
REMARK   10  A    between atoms: C_22  and  O_24
REMARK   11  A    between atoms: O_24  and  C_25
REMARK                            x       y       z     vdW  Elec       q    Type
REMARK                         _______ _______ _______ _____ _____    ______ ____
ROOT
ATOM      1  C   UNL     1       4.919   4.009  18.397  0.00  0.00    +0.000 A 
ATOM      2  N   UNL     1       5.886   4.190  19.264  0.00  0.00    +0.000 NA
ATOM      3  C   UNL     1       6.587   5.268  18.793  0.00  0.00    +0.000 A 
ATOM      4  C   UNL     1       7.717   5.896  19.341  0.00  0.00    +0.000 A 
ATOM      5  C   UNL     1       8.204   7.055  18.732  0.00  0.00    +0.000 A 
ATOM      6  C   UNL     1       7.590   7.570  17.589  0.00  0.00    +0.000 A 
ATOM      7  C   UNL     1       6.506   6.915  16.983  0.00  0.00    +0.000 A 
ATOM      8  C   UNL     1       6.031   5.756  17.611  0.00  0.00    +0.000 A 
ATOM      9  N   UNL     1       5.054   4.824  17.294  0.00  0.00    +0.000 N 
ENDROOT
BRANCH   1  10
ATOM     10  S   UNL     1       3.630   2.868  18.575  0.00  0.00    +0.000 S 
BRANCH  10  11
ATOM     11  C   UNL     1       2.173   3.976  18.588  0.00  0.00    +0.000 C 
BRANCH  11  12
ATOM     12  C   UNL     1       2.117   4.713  19.926  0.00  0.00    +0.000 C 
BRANCH  12  13
ATOM     13  O   UNL     1       2.995   5.846  19.901  0.00  0.00    +0.000 OA
BRANCH  13  18
ATOM     14  C   UNL     1       1.118   9.073  19.900  0.00  0.00    +0.000 A 
ATOM     15  C   UNL     1       1.370   9.459  18.579  0.00  0.00    +0.000 A 
ATOM     16  C   UNL     1       2.150   8.656  17.750  0.00  0.00    +0.000 A 
ATOM     17  C   UNL     1       2.678   7.455  18.235  0.00  0.00    +0.000 A 
ATOM     18  C   UNL     1       2.428   7.046  19.545  0.00  0.00    +0.000 A 
ATOM     19  C   UNL     1       1.646   7.859  20.372  0.00  0.00    +0.000 A 
BRANCH  14  21
ATOM     20  C   UNL     1      -0.761  10.740  20.029  0.00  0.00    +0.000 C 
ATOM     21  C   UNL     1       0.274   9.938  20.803  0.00  0.00    +0.000 C 
ENDBRANCH  14  21
ENDBRANCH  13  18
ENDBRANCH  12  13
ENDBRANCH  11  12
ENDBRANCH  10  11
ENDBRANCH   1  10
BRANCH   9  22
ATOM     22  C   UNL     1       4.665   4.463  15.938  0.00  0.00    +0.000 C 
BRANCH  22  23
ATOM     23  C   UNL     1       5.769   4.096  14.978  0.00  0.00    +0.000 C 
ATOM     24  O   UNL     1       6.884   3.700  15.246  0.00  0.00    +0.000 OA
BRANCH  23  25
ATOM     25  O   UNL     1       5.252   4.230  13.712  0.00  0.00    +0.000 OA
ATOM     26  C   UNL     1       5.819   3.409  12.687  0.00  0.00    +0.000 C 
ENDBRANCH  23  25
ENDBRANCH  22  23
ENDBRANCH   9  22
TORSDOF 9
ENDMDL
MODEL 3
REMARK VINA RESULT:      -7.4      2.285      7.885
REMARK  Name = 
REMARK  11 active torsions:
REMARK  status: ('A' for Active; 'I' for Inactive)
REMARK    1  A    between atoms: C_1  and  C_2
REMARK    2  A    between atoms: C_2  and  C_3
REMARK    3  A    between atoms: C_7  and  O_8
REMARK    4  A    between atoms: O_8  and  C_9
REMARK    5  A    between atoms: C_9  and  C_10
REMARK    6  A    between atoms: C_10  and  S_11
REMARK    7  A    between atoms: S_11  and  C_12
REMARK    8  A    between atoms: N_20  and  C_21
REMARK    9  A    between atoms: C_21  and  C_22
REMARK   10  A    between atoms: C_22  and  O_24
REMARK   11  A    between atoms: O_24  and  C_25
REMARK                            x       y       z     vdW  Elec       q    Type
REMARK                         _______ _______ _______ _____ _____    ______ ____
ROOT
ATOM      1  C   UNL     1       5.163   4.416  17.659  0.00  0.00    +0.000 A 
ATOM      2  N   UNL     1       5.988   4.350  18.676  0.00  0.00    +0.000 NA
ATOM      3  C   UNL     1       6.788   5.456  18.556  0.00  0.00    +0.000 A 
ATOM      4  C   UNL     1       7.836   5.884  19.386  0.00  0.00    +0.000 A 
ATOM      5  C   UNL     1       8.449   7.111  19.119  0.00  0.00    +0.000 A 
ATOM      6  C   UNL     1       8.036   7.890  18.037  0.00  0.00    +0.000 A 
ATOM      7  C   UNL     1       7.041   7.446  17.152  0.00  0.00    +0.000 A 
ATOM      8  C   UNL     1       6.437   6.214  17.439  0.00  0.00    +0.000 A 
ATOM      9  N   UNL     1       5.494   5.432  16.790  0.00  0.00    +0.000 N 
ENDROOT
BRANCH   1  10
ATOM     10  S   UNL     1       3.828   3.346  17.397  0.00  0.00    +0.000 S 
BRANCH  10  11
ATOM     11  C   UNL     1       2.519   4.165  18.380  0.00  0.00    +0.000 C 
BRANCH  11  12
ATOM     12  C   UNL     1       2.669   5.681  18.249  0.00  0.00    +0.000 C 
BRANCH  12  13
ATOM     13  O   UNL     1       2.828   6.274  19.544  0.00  0.00    +0.000 OA
BRANCH  13  18
ATOM     14  C   UNL     1       0.779   8.966  21.122  0.00  0.00    +0.000 A 
ATOM     15  C   UNL     1       0.669   9.818  20.018  0.00  0.00    +0.000 A 
ATOM     16  C   UNL     1       1.277   9.482  18.810  0.00  0.00    +0.000 A 
ATOM     17  C   UNL     1       1.994   8.287  18.695  0.00  0.00    +0.000 A 
ATOM     18  C   UNL     1       2.105   7.418  19.781  0.00  0.00    +0.000 A 
ATOM     19  C   UNL     1       1.494   7.763  20.991  0.00  0.00    +0.000 A 
BRANCH  14  21
ATOM     20  C   UNL     1      -0.620  10.649  22.362  0.00  0.00    +0.000 C 
ATOM     21  C   UNL     1       0.123   9.323  22.433  0.00  0.00    +0.000 C 
ENDBRANCH  14  21
ENDBRANCH  13  18
ENDBRANCH  12  13
ENDBRANCH  11  12
ENDBRANCH  10  11
ENDBRANCH   1  10
BRANCH   9  22
ATOM     22  C   UNL     1       5.311   5.387  15.346  0.00  0.00    +0.000 C 
BRANCH  22  23
ATOM     23  C   UNL     1       6.442   4.821  14.524  0.00  0.00    +0.000 C 
ATOM     24  O   UNL     1       7.569   5.256  14.414  0.00  0.00    +0.000 OA
BRANCH  23  25
ATOM     25  O   UNL     1       5.976   3.657  13.961  0.00  0.00    +0.000 OA
ATOM     26  C   UNL     1       6.234   3.459  12.567  0.00  0.00    +0.000 C 
ENDBRANCH  23  25
ENDBRANCH  22  23
ENDBRANCH   9  22
TORSDOF 9
ENDMDL
MODEL 4
REMARK VINA RESULT:      -7.3      4.948      7.429
REMARK  Name = 
REMARK  11 active torsions:
REMARK  status: ('A' for Active; 'I' for Inactive)
REMARK    1  A    between atoms: C_1  and  C_2
REMARK    2  A    between atoms: C_2  and  C_3
REMARK    3  A    between atoms: C_7  and  O_8
REMARK    4  A    between atoms: O_8  and  C_9
REMARK    5  A    between atoms: C_9  and  C_10
REMARK    6  A    between atoms: C_10  and  S_11
REMARK    7  A    between atoms: S_11  and  C_12
REMARK    8  A    between atoms: N_20  and  C_21
REMARK    9  A    between atoms: C_21  and  C_22
REMARK   10  A    between atoms: C_22  and  O_24
REMARK   11  A    between atoms: O_24  and  C_25
REMARK                            x       y       z     vdW  Elec       q    Type
REMARK                         _______ _______ _______ _____ _____    ______ ____
ROOT
ATOM      1  C   UNL     1       6.064   5.762  18.137  0.00  0.00    +0.000 A 
ATOM      2  N   UNL     1       4.929   6.311  18.495  0.00  0.00    +0.000 NA
ATOM      3  C   UNL     1       3.966   5.414  18.116  0.00  0.00    +0.000 A 
ATOM      4  C   UNL     1       2.573   5.494  18.269  0.00  0.00    +0.000 A 
ATOM      5  C   UNL     1       1.790   4.400  17.893  0.00  0.00    +0.000 A 
ATOM      6  C   UNL     1       2.381   3.254  17.359  0.00  0.00    +0.000 A 
ATOM      7  C   UNL     1       3.764   3.183  17.128  0.00  0.00    +0.000 A 
ATOM      8  C   UNL     1       4.531   4.290  17.514  0.00  0.00    +0.000 A 
ATOM      9  N   UNL     1       5.874   4.617  17.396  0.00  0.00    +0.000 N 
ENDROOT
BRANCH   1  10
ATOM     10  S   UNL     1       7.631   6.395  18.510  0.00  0.00    +0.000 S 
BRANCH  10  11
ATOM     11  C   UNL     1       7.798   7.702  17.239  0.00  0.00    +0.000 C 
BRANCH  11  12
ATOM     12  C   UNL     1       7.801   9.069  17.925  0.00  0.00    +0.000 C 
BRANCH  12  13
ATOM     13  O   UNL     1       8.891   9.152  18.851  0.00  0.00    +0.000 OA
BRANCH  13  18
ATOM     14  C   UNL     1      10.527  12.452  18.241  0.00  0.00    +0.000 A 
ATOM     15  C   UNL     1      10.613  12.889  19.567  0.00  0.00    +0.000 A 
ATOM     16  C   UNL     1      10.123  12.094  20.601  0.00  0.00    +0.000 A 
ATOM     17  C   UNL     1       9.551  10.851  20.317  0.00  0.00    +0.000 A 
ATOM     18  C   UNL     1       9.467  10.390  19.003  0.00  0.00    +0.000 A 
ATOM     19  C   UNL     1       9.958  11.195  17.969  0.00  0.00    +0.000 A 
BRANCH  14  21
ATOM     20  C   UNL     1      11.324  14.738  17.560  0.00  0.00    +0.000 C 
ATOM     21  C   UNL     1      11.055  13.308  17.117  0.00  0.00    +0.000 C 
ENDBRANCH  14  21
ENDBRANCH  13  18
ENDBRANCH  12  13
ENDBRANCH  11  12
ENDBRANCH  10  11
ENDBRANCH   1  10
BRANCH   9  22
ATOM     22  C   UNL     1       6.740   4.169  16.314  0.00  0.00    +0.000 C 
BRANCH  22  23
ATOM     23  C   UNL     1       6.464   4.717  14.937  0.00  0.00    +0.000 C 
ATOM     24  O   UNL     1       5.423   4.669  14.314  0.00  0.00    +0.000 OA
BRANCH  23  25
ATOM     25  O   UNL     1       7.610   5.356  14.529  0.00  0.00    +0.000 OA
ATOM     26  C   UNL     1       7.915   5.317  13.132  0.00  0.00    +0.000 C 
ENDBRANCH  23  25
ENDBRANCH  22  23
ENDBRANCH   9  22
TORSDOF 9
ENDMDL
MODEL 5
REMARK VINA RESULT:      -7.3      4.924      7.344
REMARK  Name = 
REMARK  11 active torsions:
REMARK  status: ('A' for Active; 'I' for Inactive)
REMARK    1  A    between atoms: C_1  and  C_2
REMARK    2  A    between atoms: C_2  and  C_3
REMARK    3  A    between atoms: C_7  and  O_8
REMARK    4  A    between atoms: O_8  and  C_9
REMARK    5  A    between atoms: C_9  and  C_10
REMARK    6  A    between atoms: C_10  and  S_11
REMARK    7  A    between atoms: S_11  and  C_12
REMARK    8  A    between atoms: N_20  and  C_21
REMARK    9  A    between atoms: C_21  and  C_22
REMARK   10  A    between atoms: C_22  and  O_24
REMARK   11  A    between atoms: O_24  and  C_25
REMARK                            x       y       z     vdW  Elec       q    Type
REMARK                         _______ _______ _______ _____ _____    ______ ____
ROOT
ATOM      1  C   UNL     1       5.845   5.471  18.300  0.00  0.00    +0.000 A 
ATOM      2  N   UNL     1       5.050   5.494  19.343  0.00  0.00    +0.000 NA
ATOM      3  C   UNL     1       3.892   4.898  18.919  0.00  0.00    +0.000 A 
ATOM      4  C   UNL     1       2.711   4.651  19.636  0.00  0.00    +0.000 A 
ATOM      5  C   UNL     1       1.686   3.930  19.018  0.00  0.00    +0.000 A 
ATOM      6  C   UNL     1       1.828   3.479  17.704  0.00  0.00    +0.000 A 
ATOM      7  C   UNL     1       2.969   3.781  16.945  0.00  0.00    +0.000 A 
ATOM      8  C   UNL     1       3.987   4.502  17.585  0.00  0.00    +0.000 A 
ATOM      9  N   UNL     1       5.198   5.031  17.167  0.00  0.00    +0.000 N 
ENDROOT
BRANCH   1  10
ATOM     10  S   UNL     1       7.505   5.961  18.310  0.00  0.00    +0.000 S 
BRANCH  10  11
ATOM     11  C   UNL     1       7.364   7.704  17.767  0.00  0.00    +0.000 C 
BRANCH  11  12
ATOM     12  C   UNL     1       8.549   8.497  18.318  0.00  0.00    +0.000 C 
BRANCH  12  13
ATOM     13  O   UNL     1       8.269   9.901  18.266  0.00  0.00    +0.000 OA
BRANCH  13  18
ATOM     14  C   UNL     1      11.171  12.247  18.386  0.00  0.00    +0.000 A 
ATOM     15  C   UNL     1      11.262  12.393  19.774  0.00  0.00    +0.000 A 
ATOM     16  C   UNL     1      10.366  11.730  20.610  0.00  0.00    +0.000 A 
ATOM     17  C   UNL     1       9.377  10.908  20.063  0.00  0.00    +0.000 A 
ATOM     18  C   UNL     1       9.276  10.738  18.682  0.00  0.00    +0.000 A 
ATOM     19  C   UNL     1      10.178  11.410  17.849  0.00  0.00    +0.000 A 
BRANCH  14  21
ATOM     20  C   UNL     1      12.028  14.475  17.594  0.00  0.00    +0.000 C 
ATOM     21  C   UNL     1      12.138  12.962  17.476  0.00  0.00    +0.000 C 
ENDBRANCH  14  21
ENDBRANCH  13  18
ENDBRANCH  12  13
ENDBRANCH  11  12
ENDBRANCH  10  11
ENDBRANCH   1  10
BRANCH   9  22
ATOM     22  C   UNL     1       5.472   5.499  15.815  0.00  0.00    +0.000 C 
BRANCH  22  23
ATOM     23  C   UNL     1       6.635   4.871  15.089  0.00  0.00    +0.000 C 
ATOM     24  O   UNL     1       7.770   5.290  15.005  0.00  0.00    +0.000 OA
BRANCH  23  25
ATOM     25  O   UNL     1       6.186   3.674  14.584  0.00  0.00    +0.000 OA
ATOM     26  C   UNL     1       5.350   3.730  13.424  0.00  0.00    +0.000 C 
ENDBRANCH  23  25
ENDBRANCH  22  23
ENDBRANCH   9  22
TORSDOF 9
ENDMDL
MODEL 6
REMARK VINA RESULT:      -7.2      1.727      3.702
REMARK  Name = 
REMARK  11 active torsions:
REMARK  status: ('A' for Active; 'I' for Inactive)
REMARK    1  A    between atoms: C_1  and  C_2
REMARK    2  A    between atoms: C_2  and  C_3
REMARK    3  A    between atoms: C_7  and  O_8
REMARK    4  A    between atoms: O_8  and  C_9
REMARK    5  A    between atoms: C_9  and  C_10
REMARK    6  A    between atoms: C_10  and  S_11
REMARK    7  A    between atoms: S_11  and  C_12
REMARK    8  A    between atoms: N_20  and  C_21
REMARK    9  A    between atoms: C_21  and  C_22
REMARK   10  A    between atoms: C_22  and  O_24
REMARK   11  A    between atoms: O_24  and  C_25
REMARK                            x       y       z     vdW  Elec       q    Type
REMARK                         _______ _______ _______ _____ _____    ______ ____
ROOT
ATOM      1  C   UNL     1       3.969   5.543  18.824  0.00  0.00    +0.000 A 
ATOM      2  N   UNL     1       3.763   6.338  17.801  0.00  0.00    +0.000 NA
ATOM      3  C   UNL     1       2.867   7.270  18.252  0.00  0.00    +0.000 A 
ATOM      4  C   UNL     1       2.310   8.364  17.570  0.00  0.00    +0.000 A 
ATOM      5  C   UNL     1       1.488   9.248  18.273  0.00  0.00    +0.000 A 
ATOM      6  C   UNL     1       1.212   9.039  19.626  0.00  0.00    +0.000 A 
ATOM      7  C   UNL     1       1.698   7.911  20.306  0.00  0.00    +0.000 A 
ATOM      8  C   UNL     1       2.523   7.038  19.584  0.00  0.00    +0.000 A 
ATOM      9  N   UNL     1       3.125   5.824  19.875  0.00  0.00    +0.000 N 
ENDROOT
BRANCH   1  10
ATOM     10  S   UNL     1       5.136   4.265  18.865  0.00  0.00    +0.000 S 
BRANCH  10  11
ATOM     11  C   UNL     1       6.572   5.069  18.063  0.00  0.00    +0.000 C 
BRANCH  11  12
ATOM     12  C   UNL     1       6.834   4.396  16.715  0.00  0.00    +0.000 C 
BRANCH  12  13
ATOM     13  O   UNL     1       7.204   5.377  15.739  0.00  0.00    +0.000 OA
BRANCH  13  18
ATOM     14  C   UNL     1       6.236   3.695  12.549  0.00  0.00    +0.000 A 
ATOM     15  C   UNL     1       7.107   4.369  11.686  0.00  0.00    +0.000 A 
ATOM     16  C   UNL     1       7.965   5.349  12.181  0.00  0.00    +0.000 A 
ATOM     17  C   UNL     1       7.962   5.658  13.544  0.00  0.00    +0.000 A 
ATOM     18  C   UNL     1       7.110   4.990  14.423  0.00  0.00    +0.000 A 
ATOM     19  C   UNL     1       6.250   4.008  13.919  0.00  0.00    +0.000 A 
BRANCH  14  21
ATOM     20  C   UNL     1       4.148   3.223  11.227  0.00  0.00    +0.000 C 
ATOM     21  C   UNL     1       5.305   2.633  12.020  0.00  0.00    +0.000 C 
ENDBRANCH  14  21
ENDBRANCH  13  18
ENDBRANCH  12  13
ENDBRANCH  11  12
ENDBRANCH  10  11
ENDBRANCH   1  10
BRANCH   9  22
ATOM     22  C   UNL     1       2.584   4.834  20.797  0.00  0.00    +0.000 C 
BRANCH  22  23
ATOM     23  C   UNL     1       1.628   3.814  20.233  0.00  0.00    +0.000 C 
ATOM     24  O   UNL     1       0.499   3.998  19.828  0.00  0.00    +0.000 OA
BRANCH  23  25
ATOM     25  O   UNL     1       2.306   2.618  20.193  0.00  0.00    +0.000 OA
ATOM     26  C   UNL     1       3.028   2.240  21.368  0.00  0.00    +0.000 C 
ENDBRANCH  23  25
ENDBRANCH  22  23
ENDBRANCH   9  22
TORSDOF 9
ENDMDL
MODEL 7
REMARK VINA RESULT:      -7.1      4.788      7.213
REMARK  Name = 
REMARK  11 active torsions:
REMARK  status: ('A' for Active; 'I' for Inactive)
REMARK    1  A    between atoms: C_1  and  C_2
REMARK    2  A    between atoms: C_2  and  C_3
REMARK    3  A    between atoms: C_7  and  O_8
REMARK    4  A    between atoms: O_8  and  C_9
REMARK    5  A    between atoms: C_9  and  C_10
REMARK    6  A    between atoms: C_10  and  S_11
REMARK    7  A    between atoms: S_11  and  C_12
REMARK    8  A    between atoms: N_20  and  C_21
REMARK    9  A    between atoms: C_21  and  C_22
REMARK   10  A    between atoms: C_22  and  O_24
REMARK   11  A    between atoms: O_24  and  C_25
REMARK                            x       y       z     vdW  Elec       q    Type
REMARK                         _______ _______ _______ _____ _____    ______ ____
ROOT
ATOM      1  C   UNL     1       5.942   5.315  18.554  0.00  0.00    +0.000 A 
ATOM      2  N   UNL     1       4.952   5.718  19.314  0.00  0.00    +0.000 NA
ATOM      3  C   UNL     1       3.861   5.014  18.878  0.00  0.00    +0.000 A 
ATOM      4  C   UNL     1       2.539   5.049  19.350  0.00  0.00    +0.000 A 
ATOM      5  C   UNL     1       1.608   4.158  18.812  0.00  0.00    +0.000 A 
ATOM      6  C   UNL     1       1.981   3.259  17.811  0.00  0.00    +0.000 A 
ATOM      7  C   UNL     1       3.278   3.260  17.273  0.00  0.00    +0.000 A 
ATOM      8  C   UNL     1       4.197   4.160  17.828  0.00  0.00    +0.000 A 
ATOM      9  N   UNL     1       5.510   4.495  17.534  0.00  0.00    +0.000 N 
ENDROOT
BRANCH   1  10
ATOM     10  S   UNL     1       7.599   5.768  18.764  0.00  0.00    +0.000 S 
BRANCH  10  11
ATOM     11  C   UNL     1       7.664   7.328  17.808  0.00  0.00    +0.000 C 
BRANCH  11  12
ATOM     12  C   UNL     1       8.466   8.364  18.596  0.00  0.00    +0.000 C 
BRANCH  12  13
ATOM     13  O   UNL     1       8.667   9.539  17.802  0.00  0.00    +0.000 OA
BRANCH  13  18
ATOM     14  C   UNL     1       9.727  13.006  18.695  0.00  0.00    +0.000 A 
ATOM     15  C   UNL     1      10.045  12.786  20.039  0.00  0.00    +0.000 A 
ATOM     16  C   UNL     1       9.890  11.519  20.599  0.00  0.00    +0.000 A 
ATOM     17  C   UNL     1       9.422  10.460  19.815  0.00  0.00    +0.000 A 
ATOM     18  C   UNL     1       9.110  10.656  18.469  0.00  0.00    +0.000 A 
ATOM     19  C   UNL     1       9.267  11.931  17.915  0.00  0.00    +0.000 A 
BRANCH  14  21
ATOM     20  C   UNL     1       8.672  15.255  18.303  0.00  0.00    +0.000 C 
ATOM     21  C   UNL     1       9.893  14.375  18.083  0.00  0.00    +0.000 C 
ENDBRANCH  14  21
ENDBRANCH  13  18
ENDBRANCH  12  13
ENDBRANCH  11  12
ENDBRANCH  10  11
ENDBRANCH   1  10
BRANCH   9  22
ATOM     22  C   UNL     1       6.099   4.438  16.204  0.00  0.00    +0.000 C 
BRANCH  22  23
ATOM     23  C   UNL     1       5.779   5.568  15.258  0.00  0.00    +0.000 C 
ATOM     24  O   UNL     1       5.197   6.603  15.509  0.00  0.00    +0.000 OA
BRANCH  23  25
ATOM     25  O   UNL     1       6.337   5.239  14.046  0.00  0.00    +0.000 OA
ATOM     26  C   UNL     1       6.277   3.865  13.653  0.00  0.00    +0.000 C 
ENDBRANCH  23  25
ENDBRANCH  22  23
ENDBRANCH   9  22
TORSDOF 9
ENDMDL
MODEL 8
REMARK VINA RESULT:      -7.0      1.013      1.154
REMARK  Name = 
REMARK  11 active torsions:
REMARK  status: ('A' for Active; 'I' for Inactive)
REMARK    1  A    between atoms: C_1  and  C_2
REMARK    2  A    between atoms: C_2  and  C_3
REMARK    3  A    between atoms: C_7  and  O_8
REMARK    4  A    between atoms: O_8  and  C_9
REMARK    5  A    between atoms: C_9  and  C_10
REMARK    6  A    between atoms: C_10  and  S_11
REMARK    7  A    between atoms: S_11  and  C_12
REMARK    8  A    between atoms: N_20  and  C_21
REMARK    9  A    between atoms: C_21  and  C_22
REMARK   10  A    between atoms: C_22  and  O_24
REMARK   11  A    between atoms: O_24  and  C_25
REMARK                            x       y       z     vdW  Elec       q    Type
REMARK                         _______ _______ _______ _____ _____    ______ ____
ROOT
ATOM      1  C   UNL     1       5.082   4.716  19.196  0.00  0.00    +0.000 A 
ATOM      2  N   UNL     1       4.886   3.526  19.711  0.00  0.00    +0.000 NA
ATOM      3  C   UNL     1       3.600   3.199  19.369  0.00  0.00    +0.000 A 
ATOM      4  C   UNL     1       2.880   2.029  19.656  0.00  0.00    +0.000 A 
ATOM      5  C   UNL     1       1.603   1.875  19.110  0.00  0.00    +0.000 A 
ATOM      6  C   UNL     1       1.047   2.873  18.308  0.00  0.00    +0.000 A 
ATOM      7  C   UNL     1       1.721   4.082  18.072  0.00  0.00    +0.000 A 
ATOM      8  C   UNL     1       3.001   4.216  18.626  0.00  0.00    +0.000 A 
ATOM      9  N   UNL     1       3.925   5.249  18.670  0.00  0.00    +0.000 N 
ENDROOT
BRANCH   1  10
ATOM     10  S   UNL     1       6.595   5.557  19.193  0.00  0.00    +0.000 S 
BRANCH  10  11
ATOM     11  C   UNL     1       7.229   5.139  17.527  0.00  0.00    +0.000 C 
BRANCH  11  12
ATOM     12  C   UNL     1       6.170   4.331  16.776  0.00  0.00    +0.000 C 
BRANCH  12  13
ATOM     13  O   UNL     1       5.684   5.078  15.654  0.00  0.00    +0.000 OA
BRANCH  13  18
ATOM     14  C   UNL     1       6.090   3.330  12.380  0.00  0.00    +0.000 A 
ATOM     15  C   UNL     1       7.217   4.016  11.917  0.00  0.00    +0.000 A 
ATOM     16  C   UNL     1       7.789   5.027  12.687  0.00  0.00    +0.000 A 
ATOM     17  C   UNL     1       7.242   5.353  13.931  0.00  0.00    +0.000 A 
ATOM     18  C   UNL     1       6.125   4.672  14.418  0.00  0.00    +0.000 A 
ATOM     19  C   UNL     1       5.555   3.660  13.638  0.00  0.00    +0.000 A 
BRANCH  14  21
ATOM     20  C   UNL     1       6.504   1.278  10.986  0.00  0.00    +0.000 C 
ATOM     21  C   UNL     1       5.466   2.235  11.552  0.00  0.00    +0.000 C 
ENDBRANCH  14  21
ENDBRANCH  13  18
ENDBRANCH  12  13
ENDBRANCH  11  12
ENDBRANCH  10  11
ENDBRANCH   1  10
BRANCH   9  22
ATOM     22  C   UNL     1       3.582   6.664  18.671  0.00  0.00    +0.000 C 
BRANCH  22  23
ATOM     23  C   UNL     1       2.459   7.102  19.576  0.00  0.00    +0.000 C 
ATOM     24  O   UNL     1       2.091   6.579  20.608  0.00  0.00    +0.000 OA
BRANCH  23  25
ATOM     25  O   UNL     1       1.957   8.267  19.048  0.00  0.00    +0.000 OA
ATOM     26  C   UNL     1       2.368   8.612  17.722  0.00  0.00    +0.000 C 
ENDBRANCH  23  25
ENDBRANCH  22  23
ENDBRANCH   9  22
TORSDOF 9
ENDMDL
MODEL 9
REMARK VINA RESULT:      -7.0      2.127      6.986
REMARK  Name = 
REMARK  11 active torsions:
REMARK  status: ('A' for Active; 'I' for Inactive)
REMARK    1  A    between atoms: C_1  and  C_2
REMARK    2  A    between atoms: C_2  and  C_3
REMARK    3  A    between atoms: C_7  and  O_8
REMARK    4  A    between atoms: O_8  and  C_9
REMARK    5  A    between atoms: C_9  and  C_10
REMARK    6  A    between atoms: C_10  and  S_11
REMARK    7  A    between atoms: S_11  and  C_12
REMARK    8  A    between atoms: N_20  and  C_21
REMARK    9  A    between atoms: C_21  and  C_22
REMARK   10  A    between atoms: C_22  and  O_24
REMARK   11  A    between atoms: O_24  and  C_25
REMARK                            x       y       z     vdW  Elec       q    Type
REMARK                         _______ _______ _______ _____ _____    ______ ____
ROOT
ATOM      1  C   UNL     1       5.458   4.230  17.607  0.00  0.00    +0.000 A 
ATOM      2  N   UNL     1       6.276   4.345  18.626  0.00  0.00    +0.000 NA
ATOM      3  C   UNL     1       6.932   5.530  18.422  0.00  0.00    +0.000 A 
ATOM      4  C   UNL     1       7.912   6.146  19.216  0.00  0.00    +0.000 A 
ATOM      5  C   UNL     1       8.369   7.417  18.856  0.00  0.00    +0.000 A 
ATOM      6  C   UNL     1       7.872   8.055  17.718  0.00  0.00    +0.000 A 
ATOM      7  C   UNL     1       6.948   7.424  16.870  0.00  0.00    +0.000 A 
ATOM      8  C   UNL     1       6.500   6.151  17.250  0.00  0.00    +0.000 A 
ATOM      9  N   UNL     1       5.667   5.211  16.663  0.00  0.00    +0.000 N 
ENDROOT
BRANCH   1  10
ATOM     10  S   UNL     1       4.269   2.985  17.427  0.00  0.00    +0.000 S 
BRANCH  10  11
ATOM     11  C   UNL     1       4.155   2.353  19.142  0.00  0.00    +0.000 C 
BRANCH  11  12
ATOM     12  C   UNL     1       2.957   3.002  19.836  0.00  0.00    +0.000 C 
BRANCH  12  13
ATOM     13  O   UNL     1       2.222   3.802  18.902  0.00  0.00    +0.000 OA
BRANCH  13  18
ATOM     14  C   UNL     1       2.246   7.529  18.681  0.00  0.00    +0.000 A 
ATOM     15  C   UNL     1       1.912   7.818  20.008  0.00  0.00    +0.000 A 
ATOM     16  C   UNL     1       1.684   6.785  20.915  0.00  0.00    +0.000 A 
ATOM     17  C   UNL     1       1.794   5.454  20.501  0.00  0.00    +0.000 A 
ATOM     18  C   UNL     1       2.137   5.144  19.185  0.00  0.00    +0.000 A 
ATOM     19  C   UNL     1       2.364   6.187  18.280  0.00  0.00    +0.000 A 
BRANCH  14  21
ATOM     20  C   UNL     1       1.784   9.929  18.086  0.00  0.00    +0.000 C 
ATOM     21  C   UNL     1       2.495   8.642  17.694  0.00  0.00    +0.000 C 
ENDBRANCH  14  21
ENDBRANCH  13  18
ENDBRANCH  12  13
ENDBRANCH  11  12
ENDBRANCH  10  11
ENDBRANCH   1  10
BRANCH   9  22
ATOM     22  C   UNL     1       5.505   5.035  15.227  0.00  0.00    +0.000 C 
BRANCH  22  23
ATOM     23  C   UNL     1       6.758   4.866  14.405  0.00  0.00    +0.000 C 
ATOM     24  O   UNL     1       7.894   5.158  14.716  0.00  0.00    +0.000 OA
BRANCH  23  25
ATOM     25  O   UNL     1       6.384   4.243  13.238  0.00  0.00    +0.000 OA
ATOM     26  C   UNL     1       5.178   3.475  13.267  0.00  0.00    +0.000 C 
ENDBRANCH  23  25
ENDBRANCH  22  23
ENDBRANCH   9  22
TORSDOF 9
ENDMDL
