MODEL 1
REMARK VINA RESULT:      -8.0      0.000      0.000
REMARK  Name = 
REMARK  4 active torsions:
REMARK  status: ('A' for Active; 'I' for Inactive)
REMARK    1  A    between atoms: C_1  and  C_2
REMARK    2  A    between atoms: C_7  and  C_9
REMARK    3  A    between atoms: C_12  and  C_13
REMARK    4  A    between atoms: C_16  and  N_17
REMARK                            x       y       z     vdW  Elec       q    Type
REMARK                         _______ _______ _______ _____ _____    ______ ____
ROOT
ATOM      1  C   UNL     1       1.853   7.158  20.314  0.00  0.00    +0.000 A 
ATOM      2  C   UNL     1       1.446   5.874  20.613  0.00  0.00    +0.000 A 
ATOM      3  C   UNL     1       2.118   5.013  19.715  0.00  0.00    +0.000 A 
ATOM      4  C   UNL     1       2.901   5.815  18.906  0.00  0.00    +0.000 A 
ATOM      5  O   UNL     1       2.748   7.125  19.278  0.00  0.00    +0.000 OA
ENDROOT
BRANCH   1  12
ATOM      6  C   UNL     1      -0.786  14.132  19.997  0.00  0.00    +0.000 C 
ATOM      7  C   UNL     1      -0.141  12.835  20.323  0.00  0.00    +0.000 A 
ATOM      8  N   UNL     1       0.227  12.471  21.533  0.00  0.00    +0.000 NA
ATOM      9  N   UNL     1       0.740  11.189  21.553  0.00  0.00    +0.000 NA
ATOM     10  C   UNL     1       0.758  10.646  20.361  0.00  0.00    +0.000 A 
ATOM     11  N   UNL     1       1.158   9.397  19.977  0.00  0.00    +0.000 N 
ATOM     12  C   UNL     1       1.461   8.425  20.904  0.00  0.00    +0.000 C 
ATOM     13  O   UNL     1       1.395   8.563  22.123  0.00  0.00    +0.000 OA
ATOM     14  S   UNL     1       0.177  11.654  19.109  0.00  0.00    +0.000 S 
ATOM     15  H   UNL     1       1.165   9.165  18.994  0.00  0.00    +0.000 HD
ENDBRANCH   1  12
BRANCH   4  16
ATOM     16  C   UNL     1       3.778   5.559  17.765  0.00  0.00    +0.000 A 
ATOM     17  C   UNL     1       4.408   6.622  17.094  0.00  0.00    +0.000 A 
ATOM     18  C   UNL     1       5.304   6.385  16.044  0.00  0.00    +0.000 A 
ATOM     19  C   UNL     1       5.575   5.070  15.652  0.00  0.00    +0.000 A 
ATOM     20  C   UNL     1       4.938   3.998  16.287  0.00  0.00    +0.000 A 
ATOM     21  C   UNL     1       4.045   4.248  17.334  0.00  0.00    +0.000 A 
BRANCH  19  22
ATOM     22  N   UNL     1       6.546   4.810  14.583  0.00  0.00    +0.000 N 
ATOM     23  O   UNL     1       6.241   3.977  13.718  0.00  0.00    +0.000 OA
ATOM     24  O   UNL     1       7.610   5.445  14.604  0.00  0.00    +0.000 OA
ENDBRANCH  19  22
ENDBRANCH   4  16
TORSDOF 3
ENDMDL
MODEL 2
REMARK VINA RESULT:      -7.9      0.126      1.016
REMARK  Name = 
REMARK  4 active torsions:
REMARK  status: ('A' for Active; 'I' for Inactive)
REMARK    1  A    between atoms: C_1  and  C_2
REMARK    2  A    between atoms: C_7  and  C_9
REMARK    3  A    between atoms: C_12  and  C_13
REMARK    4  A    between atoms: C_16  and  N_17
REMARK                            x       y       z     vdW  Elec       q    Type
REMARK                         _______ _______ _______ _____ _____    ______ ____
ROOT
ATOM      1  C   UNL     1       1.862   7.095  20.325  0.00  0.00    +0.000 A 
ATOM      2  C   UNL     1       1.403   5.816  20.562  0.00  0.00    +0.000 A 
ATOM      3  C   UNL     1       2.109   4.959  19.687  0.00  0.00    +0.000 A 
ATOM      4  C   UNL     1       2.965   5.759  18.952  0.00  0.00    +0.000 A 
ATOM      5  O   UNL     1       2.822   7.063  19.349  0.00  0.00    +0.000 OA
ENDROOT
BRANCH   1  12
ATOM      6  C   UNL     1      -0.849  14.043  20.054  0.00  0.00    +0.000 C 
ATOM      7  C   UNL     1      -0.186  12.752  20.369  0.00  0.00    +0.000 A 
ATOM      8  N   UNL     1       0.200  12.390  21.573  0.00  0.00    +0.000 NA
ATOM      9  N   UNL     1       0.726  11.113  21.585  0.00  0.00    +0.000 NA
ATOM     10  C   UNL     1       0.733  10.572  20.392  0.00  0.00    +0.000 A 
ATOM     11  N   UNL     1       1.141   9.327  20.000  0.00  0.00    +0.000 N 
ATOM     12  C   UNL     1       1.466   8.357  20.922  0.00  0.00    +0.000 C 
ATOM     13  O   UNL     1       1.414   8.493  22.142  0.00  0.00    +0.000 OA
ATOM     14  S   UNL     1       0.126  11.576  19.149  0.00  0.00    +0.000 S 
ATOM     15  H   UNL     1       1.137   9.097  19.018  0.00  0.00    +0.000 HD
ENDBRANCH   1  12
BRANCH   4  16
ATOM     16  C   UNL     1       3.908   5.507  17.864  0.00  0.00    +0.000 A 
ATOM     17  C   UNL     1       4.248   4.191  17.501  0.00  0.00    +0.000 A 
ATOM     18  C   UNL     1       5.096   3.937  16.417  0.00  0.00    +0.000 A 
ATOM     19  C   UNL     1       5.619   5.007  15.684  0.00  0.00    +0.000 A 
ATOM     20  C   UNL     1       5.317   6.325  16.045  0.00  0.00    +0.000 A 
ATOM     21  C   UNL     1       4.468   6.566  17.130  0.00  0.00    +0.000 A 
BRANCH  19  22
ATOM     22  N   UNL     1       6.473   4.749  14.519  0.00  0.00    +0.000 N 
ATOM     23  O   UNL     1       6.058   3.953  13.665  0.00  0.00    +0.000 OA
ATOM     24  O   UNL     1       7.555   5.349  14.453  0.00  0.00    +0.000 OA
ENDBRANCH  19  22
ENDBRANCH   4  16
TORSDOF 3
ENDMDL
MODEL 3
REMARK VINA RESULT:      -7.7      1.689      1.734
REMARK  Name = 
REMARK  4 active torsions:
REMARK  status: ('A' for Active; 'I' for Inactive)
REMARK    1  A    between atoms: C_1  and  C_2
REMARK    2  A    between atoms: C_7  and  C_9
REMARK    3  A    between atoms: C_12  and  C_13
REMARK    4  A    between atoms: C_16  and  N_17
REMARK                            x       y       z     vdW  Elec       q    Type
REMARK                         _______ _______ _______ _____ _____    ______ ____
ROOT
ATOM      1  C   UNL     1       1.789   7.899  19.691  0.00  0.00    +0.000 A 
ATOM      2  C   UNL     1       1.826   6.794  20.517  0.00  0.00    +0.000 A 
ATOM      3  C   UNL     1       2.671   5.846  19.895  0.00  0.00    +0.000 A 
ATOM      4  C   UNL     1       3.107   6.417  18.714  0.00  0.00    +0.000 A 
ATOM      5  O   UNL     1       2.578   7.676  18.593  0.00  0.00    +0.000 OA
ENDROOT
BRANCH   1  12
ATOM      6  C   UNL     1      -2.178  12.917  23.534  0.00  0.00    +0.000 C 
ATOM      7  C   UNL     1      -1.514  12.051  22.528  0.00  0.00    +0.000 A 
ATOM      8  N   UNL     1      -1.360  12.368  21.260  0.00  0.00    +0.000 NA
ATOM      9  N   UNL     1      -0.650  11.406  20.569  0.00  0.00    +0.000 NA
ATOM     10  C   UNL     1      -0.316  10.396  21.334  0.00  0.00    +0.000 A 
ATOM     11  N   UNL     1       0.407   9.275  21.033  0.00  0.00    +0.000 N 
ATOM     12  C   UNL     1       1.062   9.147  19.829  0.00  0.00    +0.000 C 
ATOM     13  O   UNL     1       1.080   9.993  18.939  0.00  0.00    +0.000 OA
ATOM     14  S   UNL     1      -0.855  10.516  22.951  0.00  0.00    +0.000 S 
ATOM     15  H   UNL     1       0.516   8.559  21.736  0.00  0.00    +0.000 HD
ENDBRANCH   1  12
BRANCH   4  16
ATOM     16  C   UNL     1       3.941   5.951  17.608  0.00  0.00    +0.000 A 
ATOM     17  C   UNL     1       4.591   6.871  16.765  0.00  0.00    +0.000 A 
ATOM     18  C   UNL     1       5.447   6.437  15.745  0.00  0.00    +0.000 A 
ATOM     19  C   UNL     1       5.657   5.067  15.557  0.00  0.00    +0.000 A 
ATOM     20  C   UNL     1       4.998   4.134  16.365  0.00  0.00    +0.000 A 
ATOM     21  C   UNL     1       4.146   4.580  17.380  0.00  0.00    +0.000 A 
BRANCH  19  22
ATOM     22  N   UNL     1       6.586   4.605  14.520  0.00  0.00    +0.000 N 
ATOM     23  O   UNL     1       6.264   3.607  13.860  0.00  0.00    +0.000 OA
ATOM     24  O   UNL     1       7.636   5.244  14.360  0.00  0.00    +0.000 OA
ENDBRANCH  19  22
ENDBRANCH   4  16
TORSDOF 3
ENDMDL
MODEL 4
REMARK VINA RESULT:      -7.6      1.662      1.981
REMARK  Name = 
REMARK  4 active torsions:
REMARK  status: ('A' for Active; 'I' for Inactive)
REMARK    1  A    between atoms: C_1  and  C_2
REMARK    2  A    between atoms: C_7  and  C_9
REMARK    3  A    between atoms: C_12  and  C_13
REMARK    4  A    between atoms: C_16  and  N_17
REMARK                            x       y       z     vdW  Elec       q    Type
REMARK                         _______ _______ _______ _____ _____    ______ ____
ROOT
ATOM      1  C   UNL     1       1.845   7.781  19.733  0.00  0.00    +0.000 A 
ATOM      2  C   UNL     1       1.786   6.638  20.504  0.00  0.00    +0.000 A 
ATOM      3  C   UNL     1       2.656   5.697  19.906  0.00  0.00    +0.000 A 
ATOM      4  C   UNL     1       3.202   6.310  18.794  0.00  0.00    +0.000 A 
ATOM      5  O   UNL     1       2.716   7.588  18.694  0.00  0.00    +0.000 OA
ENDROOT
BRANCH   1  12
ATOM      6  C   UNL     1      -2.100  12.827  23.563  0.00  0.00    +0.000 C 
ATOM      7  C   UNL     1      -1.433  11.961  22.559  0.00  0.00    +0.000 A 
ATOM      8  N   UNL     1      -1.246  12.291  21.299  0.00  0.00    +0.000 NA
ATOM      9  N   UNL     1      -0.542  11.324  20.610  0.00  0.00    +0.000 NA
ATOM     10  C   UNL     1      -0.243  10.298  21.368  0.00  0.00    +0.000 A 
ATOM     11  N   UNL     1       0.463   9.167  21.066  0.00  0.00    +0.000 N 
ATOM     12  C   UNL     1       1.141   9.041  19.874  0.00  0.00    +0.000 C 
ATOM     13  O   UNL     1       1.194   9.899  18.996  0.00  0.00    +0.000 OA
ATOM     14  S   UNL     1      -0.814  10.408  22.974  0.00  0.00    +0.000 S 
ATOM     15  H   UNL     1       0.544   8.440  21.761  0.00  0.00    +0.000 HD
ENDBRANCH   1  12
BRANCH   4  16
ATOM     16  C   UNL     1       4.112   5.873  17.738  0.00  0.00    +0.000 A 
ATOM     17  C   UNL     1       4.201   4.514  17.385  0.00  0.00    +0.000 A 
ATOM     18  C   UNL     1       5.018   4.093  16.329  0.00  0.00    +0.000 A 
ATOM     19  C   UNL     1       5.762   5.037  15.613  0.00  0.00    +0.000 A 
ATOM     20  C   UNL     1       5.710   6.391  15.965  0.00  0.00    +0.000 A 
ATOM     21  C   UNL     1       4.891   6.798  17.022  0.00  0.00    +0.000 A 
BRANCH  19  22
ATOM     22  N   UNL     1       6.586   4.611  14.477  0.00  0.00    +0.000 N 
ATOM     23  O   UNL     1       6.170   3.673  13.783  0.00  0.00    +0.000 OA
ATOM     24  O   UNL     1       7.645   5.221  14.272  0.00  0.00    +0.000 OA
ENDBRANCH  19  22
ENDBRANCH   4  16
TORSDOF 3
ENDMDL
MODEL 5
REMARK VINA RESULT:      -7.6      1.873      2.756
REMARK  Name = 
REMARK  4 active torsions:
REMARK  status: ('A' for Active; 'I' for Inactive)
REMARK    1  A    between atoms: C_1  and  C_2
REMARK    2  A    between atoms: C_7  and  C_9
REMARK    3  A    between atoms: C_12  and  C_13
REMARK    4  A    between atoms: C_16  and  N_17
REMARK                            x       y       z     vdW  Elec       q    Type
REMARK                         _______ _______ _______ _____ _____    ______ ____
ROOT
ATOM      1  C   UNL     1       3.260   4.938  19.454  0.00  0.00    +0.000 A 
ATOM      2  C   UNL     1       3.518   3.615  19.749  0.00  0.00    +0.000 A 
ATOM      3  C   UNL     1       4.428   3.148  18.774  0.00  0.00    +0.000 A 
ATOM      4  C   UNL     1       4.680   4.209  17.925  0.00  0.00    +0.000 A 
ATOM      5  O   UNL     1       3.975   5.307  18.346  0.00  0.00    +0.000 OA
ENDROOT
BRANCH   1  12
ATOM      6  C   UNL     1      -0.381  11.436  19.916  0.00  0.00    +0.000 C 
ATOM      7  C   UNL     1       0.310  10.138  20.125  0.00  0.00    +0.000 A 
ATOM      8  N   UNL     1       0.162   9.380  21.191  0.00  0.00    +0.000 NA
ATOM      9  N   UNL     1       0.872   8.201  21.089  0.00  0.00    +0.000 NA
ATOM     10  C   UNL     1       1.541   8.124  19.965  0.00  0.00    +0.000 A 
ATOM     11  N   UNL     1       2.329   7.115  19.485  0.00  0.00    +0.000 N 
ATOM     12  C   UNL     1       2.383   5.889  20.111  0.00  0.00    +0.000 C 
ATOM     13  O   UNL     1       1.747   5.577  21.114  0.00  0.00    +0.000 OA
ATOM     14  S   UNL     1       1.385   9.487  18.947  0.00  0.00    +0.000 S 
ATOM     15  H   UNL     1       2.827   7.252  18.619  0.00  0.00    +0.000 HD
ENDBRANCH   1  12
BRANCH   4  16
ATOM     16  C   UNL     1       5.473   4.371  16.707  0.00  0.00    +0.000 A 
ATOM     17  C   UNL     1       4.906   4.118  15.445  0.00  0.00    +0.000 A 
ATOM     18  C   UNL     1       5.633   4.336  14.269  0.00  0.00    +0.000 A 
ATOM     19  C   UNL     1       6.947   4.809  14.348  0.00  0.00    +0.000 A 
ATOM     20  C   UNL     1       7.541   5.041  15.594  0.00  0.00    +0.000 A 
ATOM     21  C   UNL     1       6.803   4.819  16.762  0.00  0.00    +0.000 A 
BRANCH  19  22
ATOM     22  N   UNL     1       7.702   5.083  13.120  0.00  0.00    +0.000 N 
ATOM     23  O   UNL     1       8.634   5.897  13.186  0.00  0.00    +0.000 OA
ATOM     24  O   UNL     1       7.369   4.477  12.091  0.00  0.00    +0.000 OA
ENDBRANCH  19  22
ENDBRANCH   4  16
TORSDOF 3
ENDMDL
MODEL 6
REMARK VINA RESULT:      -7.5      3.074      8.853
REMARK  Name = 
REMARK  4 active torsions:
REMARK  status: ('A' for Active; 'I' for Inactive)
REMARK    1  A    between atoms: C_1  and  C_2
REMARK    2  A    between atoms: C_7  and  C_9
REMARK    3  A    between atoms: C_12  and  C_13
REMARK    4  A    between atoms: C_16  and  N_17
REMARK                            x       y       z     vdW  Elec       q    Type
REMARK                         _______ _______ _______ _____ _____    ______ ____
ROOT
ATOM      1  C   UNL     1       4.042   6.075  18.347  0.00  0.00    +0.000 A 
ATOM      2  C   UNL     1       3.578   5.027  19.116  0.00  0.00    +0.000 A 
ATOM      3  C   UNL     1       2.534   5.540  19.919  0.00  0.00    +0.000 A 
ATOM      4  C   UNL     1       2.413   6.881  19.606  0.00  0.00    +0.000 A 
ATOM      5  O   UNL     1       3.327   7.206  18.637  0.00  0.00    +0.000 OA
ENDROOT
BRANCH   1  12
ATOM      6  C   UNL     1       7.332   4.060  11.959  0.00  0.00    +0.000 C 
ATOM      7  C   UNL     1       6.958   4.538  13.314  0.00  0.00    +0.000 A 
ATOM      8  N   UNL     1       7.687   5.358  14.040  0.00  0.00    +0.000 NA
ATOM      9  N   UNL     1       7.066   5.687  15.229  0.00  0.00    +0.000 NA
ATOM     10  C   UNL     1       5.907   5.090  15.361  0.00  0.00    +0.000 A 
ATOM     11  N   UNL     1       4.989   5.180  16.370  0.00  0.00    +0.000 N 
ATOM     12  C   UNL     1       5.115   6.116  17.372  0.00  0.00    +0.000 C 
ATOM     13  O   UNL     1       6.018   6.945  17.457  0.00  0.00    +0.000 OA
ATOM     14  S   UNL     1       5.484   4.059  14.066  0.00  0.00    +0.000 S 
ATOM     15  H   UNL     1       4.169   4.593  16.340  0.00  0.00    +0.000 HD
ENDBRANCH   1  12
BRANCH   4  16
ATOM     16  C   UNL     1       1.578   7.970  20.107  0.00  0.00    +0.000 A 
ATOM     17  C   UNL     1       0.993   7.895  21.384  0.00  0.00    +0.000 A 
ATOM     18  C   UNL     1       0.249   8.961  21.903  0.00  0.00    +0.000 A 
ATOM     19  C   UNL     1       0.078  10.120  21.138  0.00  0.00    +0.000 A 
ATOM     20  C   UNL     1       0.628  10.206  19.854  0.00  0.00    +0.000 A 
ATOM     21  C   UNL     1       1.370   9.134  19.347  0.00  0.00    +0.000 A 
BRANCH  19  22
ATOM     22  N   UNL     1      -0.662  11.260  21.690  0.00  0.00    +0.000 N 
ATOM     23  O   UNL     1      -1.490  11.819  20.958  0.00  0.00    +0.000 OA
ATOM     24  O   UNL     1      -0.422  11.591  22.860  0.00  0.00    +0.000 OA
ENDBRANCH  19  22
ENDBRANCH   4  16
TORSDOF 3
ENDMDL
MODEL 7
REMARK VINA RESULT:      -7.5      3.064      8.872
REMARK  Name = 
REMARK  4 active torsions:
REMARK  status: ('A' for Active; 'I' for Inactive)
REMARK    1  A    between atoms: C_1  and  C_2
REMARK    2  A    between atoms: C_7  and  C_9
REMARK    3  A    between atoms: C_12  and  C_13
REMARK    4  A    between atoms: C_16  and  N_17
REMARK                            x       y       z     vdW  Elec       q    Type
REMARK                         _______ _______ _______ _____ _____    ______ ____
ROOT
ATOM      1  C   UNL     1       3.875   6.163  18.249  0.00  0.00    +0.000 A 
ATOM      2  C   UNL     1       3.249   5.098  18.865  0.00  0.00    +0.000 A 
ATOM      3  C   UNL     1       2.241   5.640  19.695  0.00  0.00    +0.000 A 
ATOM      4  C   UNL     1       2.302   7.014  19.549  0.00  0.00    +0.000 A 
ATOM      5  O   UNL     1       3.292   7.334  18.657  0.00  0.00    +0.000 OA
ENDROOT
BRANCH   1  12
ATOM      6  C   UNL     1       7.394   4.075  12.008  0.00  0.00    +0.000 C 
ATOM      7  C   UNL     1       6.971   4.564  13.345  0.00  0.00    +0.000 A 
ATOM      8  N   UNL     1       7.683   5.373  14.100  0.00  0.00    +0.000 NA
ATOM      9  N   UNL     1       7.019   5.715  15.261  0.00  0.00    +0.000 NA
ATOM     10  C   UNL     1       5.846   5.138  15.345  0.00  0.00    +0.000 A 
ATOM     11  N   UNL     1       4.888   5.247  16.315  0.00  0.00    +0.000 N 
ATOM     12  C   UNL     1       4.988   6.184  17.320  0.00  0.00    +0.000 C 
ATOM     13  O   UNL     1       5.900   6.998  17.441  0.00  0.00    +0.000 OA
ATOM     14  S   UNL     1       5.459   4.111  14.036  0.00  0.00    +0.000 S 
ATOM     15  H   UNL     1       4.060   4.674  16.252  0.00  0.00    +0.000 HD
ENDBRANCH   1  12
BRANCH   4  16
ATOM     16  C   UNL     1       1.586   8.133  20.159  0.00  0.00    +0.000 A 
ATOM     17  C   UNL     1       1.197   9.241  19.384  0.00  0.00    +0.000 A 
ATOM     18  C   UNL     1       0.452  10.286  19.941  0.00  0.00    +0.000 A 
ATOM     19  C   UNL     1       0.090  10.233  21.291  0.00  0.00    +0.000 A 
ATOM     20  C   UNL     1       0.491   9.154  22.087  0.00  0.00    +0.000 A 
ATOM     21  C   UNL     1       1.235   8.116  21.519  0.00  0.00    +0.000 A 
BRANCH  19  22
ATOM     22  N   UNL     1      -0.729  11.302  21.873  0.00  0.00    +0.000 N 
ATOM     23  O   UNL     1      -0.610  11.524  23.086  0.00  0.00    +0.000 OA
ATOM     24  O   UNL     1      -1.485  11.926  21.115  0.00  0.00    +0.000 OA
ENDBRANCH  19  22
ENDBRANCH   4  16
TORSDOF 3
ENDMDL
MODEL 8
REMARK VINA RESULT:      -7.5      2.862      3.620
REMARK  Name = 
REMARK  4 active torsions:
REMARK  status: ('A' for Active; 'I' for Inactive)
REMARK    1  A    between atoms: C_1  and  C_2
REMARK    2  A    between atoms: C_7  and  C_9
REMARK    3  A    between atoms: C_12  and  C_13
REMARK    4  A    between atoms: C_16  and  N_17
REMARK                            x       y       z     vdW  Elec       q    Type
REMARK                         _______ _______ _______ _____ _____    ______ ____
ROOT
ATOM      1  C   UNL     1       1.259   9.411  19.788  0.00  0.00    +0.000 A 
ATOM      2  C   UNL     1       1.479   9.660  18.449  0.00  0.00    +0.000 A 
ATOM      3  C   UNL     1       1.983   8.464  17.888  0.00  0.00    +0.000 A 
ATOM      4  C   UNL     1       2.051   7.541  18.915  0.00  0.00    +0.000 A 
ATOM      5  O   UNL     1       1.598   8.115  20.074  0.00  0.00    +0.000 OA
ENDROOT
BRANCH   1  12
ATOM      6  C   UNL     1      -3.550  14.341  22.663  0.00  0.00    +0.000 C 
ATOM      7  C   UNL     1      -2.402  13.473  22.297  0.00  0.00    +0.000 A 
ATOM      8  N   UNL     1      -1.382  13.216  23.088  0.00  0.00    +0.000 NA
ATOM      9  N   UNL     1      -0.495  12.327  22.516  0.00  0.00    +0.000 NA
ATOM     10  C   UNL     1      -0.868  11.963  21.314  0.00  0.00    +0.000 A 
ATOM     11  N   UNL     1      -0.280  11.086  20.446  0.00  0.00    +0.000 N 
ATOM     12  C   UNL     1       0.774  10.290  20.835  0.00  0.00    +0.000 C 
ATOM     13  O   UNL     1       1.270  10.272  21.959  0.00  0.00    +0.000 OA
ATOM     14  S   UNL     1      -2.314  12.690  20.765  0.00  0.00    +0.000 S 
ATOM     15  H   UNL     1      -0.673  10.972  19.523  0.00  0.00    +0.000 HD
ENDBRANCH   1  12
BRANCH   4  16
ATOM     16  C   UNL     1       2.525   6.162  19.012  0.00  0.00    +0.000 A 
ATOM     17  C   UNL     1       3.358   5.619  18.017  0.00  0.00    +0.000 A 
ATOM     18  C   UNL     1       3.874   4.323  18.134  0.00  0.00    +0.000 A 
ATOM     19  C   UNL     1       3.555   3.552  19.256  0.00  0.00    +0.000 A 
ATOM     20  C   UNL     1       2.706   4.061  20.245  0.00  0.00    +0.000 A 
ATOM     21  C   UNL     1       2.196   5.358  20.116  0.00  0.00    +0.000 A 
BRANCH  19  22
ATOM     22  N   UNL     1       4.127   2.209  19.409  0.00  0.00    +0.000 N 
ATOM     23  O   UNL     1       3.725   1.321  18.645  0.00  0.00    +0.000 OA
ATOM     24  O   UNL     1       4.984   2.045  20.289  0.00  0.00    +0.000 OA
ENDBRANCH  19  22
ENDBRANCH   4  16
TORSDOF 3
ENDMDL
MODEL 9
REMARK VINA RESULT:      -7.5      2.820      3.667
REMARK  Name = 
REMARK  4 active torsions:
REMARK  status: ('A' for Active; 'I' for Inactive)
REMARK    1  A    between atoms: C_1  and  C_2
REMARK    2  A    between atoms: C_7  and  C_9
REMARK    3  A    between atoms: C_12  and  C_13
REMARK    4  A    between atoms: C_16  and  N_17
REMARK                            x       y       z     vdW  Elec       q    Type
REMARK                         _______ _______ _______ _____ _____    ______ ____
ROOT
ATOM      1  C   UNL     1       1.267   9.411  19.778  0.00  0.00    +0.000 A 
ATOM      2  C   UNL     1       1.413   9.633  18.424  0.00  0.00    +0.000 A 
ATOM      3  C   UNL     1       1.957   8.450  17.873  0.00  0.00    +0.000 A 
ATOM      4  C   UNL     1       2.122   7.562  18.919  0.00  0.00    +0.000 A 
ATOM      5  O   UNL     1       1.690   8.144  20.083  0.00  0.00    +0.000 OA
ENDROOT
BRANCH   1  12
ATOM      6  C   UNL     1      -3.545  14.347  22.638  0.00  0.00    +0.000 C 
ATOM      7  C   UNL     1      -2.397  13.478  22.275  0.00  0.00    +0.000 A 
ATOM      8  N   UNL     1      -1.378  13.223  23.068  0.00  0.00    +0.000 NA
ATOM      9  N   UNL     1      -0.491  12.332  22.499  0.00  0.00    +0.000 NA
ATOM     10  C   UNL     1      -0.862  11.967  21.296  0.00  0.00    +0.000 A 
ATOM     11  N   UNL     1      -0.273  11.087  20.431  0.00  0.00    +0.000 N 
ATOM     12  C   UNL     1       0.780  10.292  20.823  0.00  0.00    +0.000 C 
ATOM     13  O   UNL     1       1.275  10.276  21.948  0.00  0.00    +0.000 OA
ATOM     14  S   UNL     1      -2.307  12.693  20.744  0.00  0.00    +0.000 S 
ATOM     15  H   UNL     1      -0.664  10.972  19.508  0.00  0.00    +0.000 HD
ENDBRANCH   1  12
BRANCH   4  16
ATOM     16  C   UNL     1       2.675   6.214  19.031  0.00  0.00    +0.000 A 
ATOM     17  C   UNL     1       2.467   5.449  20.192  0.00  0.00    +0.000 A 
ATOM     18  C   UNL     1       2.933   4.132  20.283  0.00  0.00    +0.000 A 
ATOM     19  C   UNL     1       3.622   3.567  19.204  0.00  0.00    +0.000 A 
ATOM     20  C   UNL     1       3.865   4.320  18.050  0.00  0.00    +0.000 A 
ATOM     21  C   UNL     1       3.394   5.635  17.971  0.00  0.00    +0.000 A 
BRANCH  19  22
ATOM     22  N   UNL     1       4.075   2.174  19.273  0.00  0.00    +0.000 N 
ATOM     23  O   UNL     1       4.869   1.869  20.175  0.00  0.00    +0.000 OA
ATOM     24  O   UNL     1       3.632   1.381  18.430  0.00  0.00    +0.000 OA
ENDBRANCH  19  22
ENDBRANCH   4  16
TORSDOF 3
ENDMDL
