MODEL 1
REMARK VINA RESULT:      -7.8      0.000      0.000
REMARK  Name = 
REMARK  7 active torsions:
REMARK  status: ('A' for Active; 'I' for Inactive)
REMARK    1  A    between atoms: N_3  and  C_4
REMARK    2  A    between atoms: C_7  and  C_8
REMARK    3  A    between atoms: N_16  and  CA_17
REMARK    4  A    between atoms: CA_17  and  C_18
REMARK    5  A    between atoms: CA_17  and  CB_20
REMARK    6  A    between atoms: C_18  and  O_19
REMARK    7  A    between atoms: CB_20  and  CG_21
REMARK                            x       y       z     vdW  Elec       q    Type
REMARK                         _______ _______ _______ _____ _____    ______ ____
ROOT
ATOM      1  O   UNK A   0       4.968   7.361  17.732  0.00  0.00    +0.000 OA
ATOM      2  C   UNK A   0       4.204   6.405  17.740  0.00  0.00    +0.000 C 
ATOM      3  N   UNK A   0       2.919   6.374  18.234  0.00  0.00    +0.000 N 
ATOM      4  N   PHE A   1       4.580   5.182  17.243  0.00  0.00    +0.000 N 
ATOM      5  H   UNK A   0       2.373   5.561  17.997  0.00  0.00    +0.000 HD
ATOM      6  H   PHE A   1       4.024   4.373  17.462  0.00  0.00    +0.000 HD
ENDROOT
BRANCH   3   7
ATOM      7  C   UNK A   0       2.239   7.418  18.897  0.00  0.00    +0.000 A 
ATOM      8  C   UNK A   0       1.904   8.620  18.282  0.00  0.00    +0.000 A 
ATOM      9  C   UNK A   0       1.221   9.615  18.987  0.00  0.00    +0.000 A 
ATOM     10  C   UNK A   0       0.841   9.446  20.327  0.00  0.00    +0.000 A 
ATOM     11  C   UNK A   0       1.206   8.238  20.944  0.00  0.00    +0.000 A 
ATOM     12  C   UNK A   0       1.896   7.236  20.239  0.00  0.00    +0.000 A 
BRANCH  10  13
ATOM     13  C   UNK A   0       0.085  10.502  21.033  0.00  0.00    +0.000 A 
ATOM     14  C   UNK A   0      -0.149  11.749  20.431  0.00  0.00    +0.000 A 
ATOM     15  C   UNK A   0      -0.836  12.731  21.130  0.00  0.00    +0.000 A 
ATOM     16  N   UNK A   0      -1.320  12.561  22.375  0.00  0.00    +0.000 NA
ATOM     17  C   UNK A   0      -1.102  11.359  22.943  0.00  0.00    +0.000 A 
ATOM     18  C   UNK A   0      -0.419  10.319  22.327  0.00  0.00    +0.000 A 
ENDBRANCH  10  13
ENDBRANCH   3   7
BRANCH   4  19
ATOM     19  CA  PHE A   1       5.908   4.961  16.659  0.00  0.00    +0.000 C 
BRANCH  19  20
ATOM     20  C   PHE A   1       6.987   4.768  17.748  0.00  0.00    +0.000 C 
BRANCH  20  21
ATOM     21  O   PHE A   1       8.126   4.080  17.228  0.00  0.00    +0.000 OA
ATOM     22  H   PHE A   1       8.483   4.655  16.526  0.00  0.00    +0.000 HD
ENDBRANCH  20  21
ENDBRANCH  19  20
BRANCH  19  23
ATOM     23  CB  PHE A   1       5.883   3.740  15.717  0.00  0.00    +0.000 C 
BRANCH  23  24
ATOM     24  CG  PHE A   1       6.403   4.009  14.321  0.00  0.00    +0.000 A 
ATOM     25  CD1 PHE A   1       5.928   3.281  13.222  0.00  0.00    +0.000 A 
ATOM     26  CE1 PHE A   1       6.365   3.581  11.930  0.00  0.00    +0.000 A 
ATOM     27  CZ  PHE A   1       7.280   4.611  11.723  0.00  0.00    +0.000 A 
ATOM     28  CE2 PHE A   1       7.770   5.334  12.809  0.00  0.00    +0.000 A 
ATOM     29  CD2 PHE A   1       7.336   5.034  14.101  0.00  0.00    +0.000 A 
ENDBRANCH  23  24
ENDBRANCH  19  23
ENDBRANCH   4  19
TORSDOF 7
ENDMDL
MODEL 2
REMARK VINA RESULT:      -7.8      6.811      8.190
REMARK  Name = 
REMARK  7 active torsions:
REMARK  status: ('A' for Active; 'I' for Inactive)
REMARK    1  A    between atoms: N_3  and  C_4
REMARK    2  A    between atoms: C_7  and  C_8
REMARK    3  A    between atoms: N_16  and  CA_17
REMARK    4  A    between atoms: CA_17  and  C_18
REMARK    5  A    between atoms: CA_17  and  CB_20
REMARK    6  A    between atoms: C_18  and  O_19
REMARK    7  A    between atoms: CB_20  and  CG_21
REMARK                            x       y       z     vdW  Elec       q    Type
REMARK                         _______ _______ _______ _____ _____    ______ ____
ROOT
ATOM      1  O   UNK A   0       7.159   8.504  17.307  0.00  0.00    +0.000 OA
ATOM      2  C   UNK A   0       7.830   7.941  18.160  0.00  0.00    +0.000 C 
ATOM      3  N   UNK A   0       8.777   8.510  18.982  0.00  0.00    +0.000 N 
ATOM      4  N   PHE A   1       7.713   6.592  18.388  0.00  0.00    +0.000 N 
ATOM      5  H   UNK A   0       9.102   7.938  19.746  0.00  0.00    +0.000 HD
ATOM      6  H   PHE A   1       8.422   6.123  18.928  0.00  0.00    +0.000 HD
ENDROOT
BRANCH   3   7
ATOM      7  C   UNK A   0       9.223   9.849  18.963  0.00  0.00    +0.000 A 
ATOM      8  C   UNK A   0       9.461  10.556  17.788  0.00  0.00    +0.000 A 
ATOM      9  C   UNK A   0       9.893  11.885  17.831  0.00  0.00    +0.000 A 
ATOM     10  C   UNK A   0      10.095  12.559  19.045  0.00  0.00    +0.000 A 
ATOM     11  C   UNK A   0       9.873  11.827  20.224  0.00  0.00    +0.000 A 
ATOM     12  C   UNK A   0       9.442  10.490  20.184  0.00  0.00    +0.000 A 
BRANCH  10  13
ATOM     13  C   UNK A   0      10.513  13.977  19.056  0.00  0.00    +0.000 A 
ATOM     14  C   UNK A   0      10.393  14.775  17.907  0.00  0.00    +0.000 A 
ATOM     15  C   UNK A   0      10.821  16.094  17.940  0.00  0.00    +0.000 A 
ATOM     16  N   UNK A   0      11.348  16.681  19.031  0.00  0.00    +0.000 NA
ATOM     17  C   UNK A   0      11.452  15.913  20.133  0.00  0.00    +0.000 A 
ATOM     18  C   UNK A   0      11.058  14.584  20.195  0.00  0.00    +0.000 A 
ENDBRANCH  10  13
ENDBRANCH   3   7
BRANCH   4  19
ATOM     19  CA  PHE A   1       6.766   5.760  17.636  0.00  0.00    +0.000 C 
BRANCH  19  20
ATOM     20  C   PHE A   1       7.475   4.939  16.536  0.00  0.00    +0.000 C 
BRANCH  20  21
ATOM     21  O   PHE A   1       7.570   5.682  15.320  0.00  0.00    +0.000 OA
ATOM     22  H   PHE A   1       8.502   5.961  15.254  0.00  0.00    +0.000 HD
ENDBRANCH  20  21
ENDBRANCH  19  20
BRANCH  19  23
ATOM     23  CB  PHE A   1       6.005   4.819  18.591  0.00  0.00    +0.000 C 
BRANCH  23  24
ATOM     24  CG  PHE A   1       4.527   4.678  18.293  0.00  0.00    +0.000 A 
ATOM     25  CD1 PHE A   1       3.632   5.719  18.579  0.00  0.00    +0.000 A 
ATOM     26  CE1 PHE A   1       2.282   5.605  18.240  0.00  0.00    +0.000 A 
ATOM     27  CZ  PHE A   1       1.813   4.453  17.611  0.00  0.00    +0.000 A 
ATOM     28  CE2 PHE A   1       2.690   3.407  17.334  0.00  0.00    +0.000 A 
ATOM     29  CD2 PHE A   1       4.040   3.517  17.674  0.00  0.00    +0.000 A 
ENDBRANCH  23  24
ENDBRANCH  19  23
ENDBRANCH   4  19
TORSDOF 7
ENDMDL
MODEL 3
REMARK VINA RESULT:      -7.7      0.282      1.636
REMARK  Name = 
REMARK  7 active torsions:
REMARK  status: ('A' for Active; 'I' for Inactive)
REMARK    1  A    between atoms: N_3  and  C_4
REMARK    2  A    between atoms: C_7  and  C_8
REMARK    3  A    between atoms: N_16  and  CA_17
REMARK    4  A    between atoms: CA_17  and  C_18
REMARK    5  A    between atoms: CA_17  and  CB_20
REMARK    6  A    between atoms: C_18  and  O_19
REMARK    7  A    between atoms: CB_20  and  CG_21
REMARK                            x       y       z     vdW  Elec       q    Type
REMARK                         _______ _______ _______ _____ _____    ______ ____
ROOT
ATOM      1  O   UNK A   0       4.884   7.513  17.590  0.00  0.00    +0.000 OA
ATOM      2  C   UNK A   0       4.323   6.448  17.810  0.00  0.00    +0.000 C 
ATOM      3  N   UNK A   0       3.135   6.257  18.478  0.00  0.00    +0.000 N 
ATOM      4  N   PHE A   1       4.867   5.255  17.401  0.00  0.00    +0.000 N 
ATOM      5  H   UNK A   0       2.731   5.336  18.410  0.00  0.00    +0.000 HD
ATOM      6  H   PHE A   1       4.506   4.397  17.783  0.00  0.00    +0.000 HD
ENDROOT
BRANCH   3   7
ATOM      7  C   UNK A   0       2.349   7.244  19.112  0.00  0.00    +0.000 A 
ATOM      8  C   UNK A   0       1.955   7.163  20.444  0.00  0.00    +0.000 A 
ATOM      9  C   UNK A   0       1.184   8.176  21.021  0.00  0.00    +0.000 A 
ATOM     10  C   UNK A   0       0.786   9.309  20.295  0.00  0.00    +0.000 A 
ATOM     11  C   UNK A   0       1.171   9.367  18.945  0.00  0.00    +0.000 A 
ATOM     12  C   UNK A   0       1.943   8.349  18.361  0.00  0.00    +0.000 A 
BRANCH  10  13
ATOM     13  C   UNK A   0       0.005  10.382  20.946  0.00  0.00    +0.000 A 
ATOM     14  C   UNK A   0      -0.349  10.299  22.302  0.00  0.00    +0.000 A 
ATOM     15  C   UNK A   0      -1.107  11.307  22.878  0.00  0.00    +0.000 A 
ATOM     16  N   UNK A   0      -1.530  12.397  22.210  0.00  0.00    +0.000 NA
ATOM     17  C   UNK A   0      -1.179  12.477  20.911  0.00  0.00    +0.000 A 
ATOM     18  C   UNK A   0      -0.430  11.516  20.247  0.00  0.00    +0.000 A 
ENDBRANCH  10  13
ENDBRANCH   3   7
BRANCH   4  19
ATOM     19  CA  PHE A   1       6.135   5.196  16.665  0.00  0.00    +0.000 C 
BRANCH  19  20
ATOM     20  C   PHE A   1       7.351   5.248  17.616  0.00  0.00    +0.000 C 
BRANCH  20  21
ATOM     21  O   PHE A   1       8.120   4.047  17.536  0.00  0.00    +0.000 OA
ATOM     22  H   PHE A   1       8.636   4.009  18.362  0.00  0.00    +0.000 HD
ENDBRANCH  20  21
ENDBRANCH  19  20
BRANCH  19  23
ATOM     23  CB  PHE A   1       6.194   3.920  15.802  0.00  0.00    +0.000 C 
BRANCH  23  24
ATOM     24  CG  PHE A   1       6.530   4.158  14.345  0.00  0.00    +0.000 A 
ATOM     25  CD1 PHE A   1       7.490   5.111  13.973  0.00  0.00    +0.000 A 
ATOM     26  CE1 PHE A   1       7.840   5.277  12.632  0.00  0.00    +0.000 A 
ATOM     27  CZ  PHE A   1       7.238   4.494  11.649  0.00  0.00    +0.000 A 
ATOM     28  CE2 PHE A   1       6.274   3.554  12.005  0.00  0.00    +0.000 A 
ATOM     29  CD2 PHE A   1       5.920   3.387  13.345  0.00  0.00    +0.000 A 
ENDBRANCH  23  24
ENDBRANCH  19  23
ENDBRANCH   4  19
TORSDOF 7
ENDMDL
MODEL 4
REMARK VINA RESULT:      -7.7      1.083      1.576
REMARK  Name = 
REMARK  7 active torsions:
REMARK  status: ('A' for Active; 'I' for Inactive)
REMARK    1  A    between atoms: N_3  and  C_4
REMARK    2  A    between atoms: C_7  and  C_8
REMARK    3  A    between atoms: N_16  and  CA_17
REMARK    4  A    between atoms: CA_17  and  C_18
REMARK    5  A    between atoms: CA_17  and  CB_20
REMARK    6  A    between atoms: C_18  and  O_19
REMARK    7  A    between atoms: CB_20  and  CG_21
REMARK                            x       y       z     vdW  Elec       q    Type
REMARK                         _______ _______ _______ _____ _____    ______ ____
ROOT
ATOM      1  O   UNK A   0       4.538   7.257  16.715  0.00  0.00    +0.000 OA
ATOM      2  C   UNK A   0       4.329   6.440  17.602  0.00  0.00    +0.000 C 
ATOM      3  N   UNK A   0       3.359   6.503  18.578  0.00  0.00    +0.000 N 
ATOM      4  N   PHE A   1       5.102   5.313  17.734  0.00  0.00    +0.000 N 
ATOM      5  H   UNK A   0       3.214   5.661  19.112  0.00  0.00    +0.000 HD
ATOM      6  H   PHE A   1       5.052   4.782  18.588  0.00  0.00    +0.000 HD
ENDROOT
BRANCH   3   7
ATOM      7  C   UNK A   0       2.449   7.557  18.802  0.00  0.00    +0.000 A 
ATOM      8  C   UNK A   0       2.021   8.421  17.799  0.00  0.00    +0.000 A 
ATOM      9  C   UNK A   0       1.109   9.442  18.079  0.00  0.00    +0.000 A 
ATOM     10  C   UNK A   0       0.586   9.636  19.366  0.00  0.00    +0.000 A 
ATOM     11  C   UNK A   0       1.044   8.773  20.375  0.00  0.00    +0.000 A 
ATOM     12  C   UNK A   0       1.963   7.746  20.098  0.00  0.00    +0.000 A 
BRANCH  10  13
ATOM     13  C   UNK A   0      -0.408  10.701  19.621  0.00  0.00    +0.000 A 
ATOM     14  C   UNK A   0      -1.487  10.908  18.747  0.00  0.00    +0.000 A 
ATOM     15  C   UNK A   0      -2.386  11.933  18.997  0.00  0.00    +0.000 A 
ATOM     16  N   UNK A   0      -2.300  12.761  20.055  0.00  0.00    +0.000 NA
ATOM     17  C   UNK A   0      -1.268  12.552  20.896  0.00  0.00    +0.000 A 
ATOM     18  C   UNK A   0      -0.315  11.558  20.725  0.00  0.00    +0.000 A 
ENDBRANCH  10  13
ENDBRANCH   3   7
BRANCH   4  19
ATOM     19  CA  PHE A   1       6.204   5.019  16.811  0.00  0.00    +0.000 C 
BRANCH  19  20
ATOM     20  C   PHE A   1       7.480   4.583  17.564  0.00  0.00    +0.000 C 
BRANCH  20  21
ATOM     21  O   PHE A   1       7.296   4.662  18.978  0.00  0.00    +0.000 OA
ATOM     22  H   PHE A   1       7.733   5.487  19.255  0.00  0.00    +0.000 HD
ENDBRANCH  20  21
ENDBRANCH  19  20
BRANCH  19  23
ATOM     23  CB  PHE A   1       5.784   3.927  15.806  0.00  0.00    +0.000 C 
BRANCH  23  24
ATOM     24  CG  PHE A   1       6.286   4.142  14.394  0.00  0.00    +0.000 A 
ATOM     25  CD1 PHE A   1       7.293   5.079  14.121  0.00  0.00    +0.000 A 
ATOM     26  CE1 PHE A   1       7.795   5.223  12.826  0.00  0.00    +0.000 A 
ATOM     27  CZ  PHE A   1       7.298   4.434  11.791  0.00  0.00    +0.000 A 
ATOM     28  CE2 PHE A   1       6.288   3.509  12.047  0.00  0.00    +0.000 A 
ATOM     29  CD2 PHE A   1       5.783   3.365  13.340  0.00  0.00    +0.000 A 
ENDBRANCH  23  24
ENDBRANCH  19  23
ENDBRANCH   4  19
TORSDOF 7
ENDMDL
MODEL 5
REMARK VINA RESULT:      -7.7      6.619      8.021
REMARK  Name = 
REMARK  7 active torsions:
REMARK  status: ('A' for Active; 'I' for Inactive)
REMARK    1  A    between atoms: N_3  and  C_4
REMARK    2  A    between atoms: C_7  and  C_8
REMARK    3  A    between atoms: N_16  and  CA_17
REMARK    4  A    between atoms: CA_17  and  C_18
REMARK    5  A    between atoms: CA_17  and  CB_20
REMARK    6  A    between atoms: C_18  and  O_19
REMARK    7  A    between atoms: CB_20  and  CG_21
REMARK                            x       y       z     vdW  Elec       q    Type
REMARK                         _______ _______ _______ _____ _____    ______ ____
ROOT
ATOM      1  O   UNK A   0       7.005   8.378  17.219  0.00  0.00    +0.000 OA
ATOM      2  C   UNK A   0       7.724   7.808  18.029  0.00  0.00    +0.000 C 
ATOM      3  N   UNK A   0       8.659   8.384  18.859  0.00  0.00    +0.000 N 
ATOM      4  N   PHE A   1       7.682   6.445  18.188  0.00  0.00    +0.000 N 
ATOM      5  H   UNK A   0       9.030   7.792  19.586  0.00  0.00    +0.000 HD
ATOM      6  H   PHE A   1       8.426   5.987  18.689  0.00  0.00    +0.000 HD
ENDROOT
BRANCH   3   7
ATOM      7  C   UNK A   0       9.034   9.744  18.901  0.00  0.00    +0.000 A 
ATOM      8  C   UNK A   0       9.640  10.332  20.007  0.00  0.00    +0.000 A 
ATOM      9  C   UNK A   0       9.999  11.683  19.988  0.00  0.00    +0.000 A 
ATOM     10  C   UNK A   0       9.774  12.494  18.865  0.00  0.00    +0.000 A 
ATOM     11  C   UNK A   0       9.140  11.893  17.764  0.00  0.00    +0.000 A 
ATOM     12  C   UNK A   0       8.775  10.536  17.781  0.00  0.00    +0.000 A 
BRANCH  10  13
ATOM     13  C   UNK A   0      10.201  13.909  18.862  0.00  0.00    +0.000 A 
ATOM     14  C   UNK A   0       9.433  14.895  18.222  0.00  0.00    +0.000 A 
ATOM     15  C   UNK A   0       9.875  16.209  18.210  0.00  0.00    +0.000 A 
ATOM     16  N   UNK A   0      11.015  16.619  18.798  0.00  0.00    +0.000 NA
ATOM     17  C   UNK A   0      11.743  15.671  19.419  0.00  0.00    +0.000 A 
ATOM     18  C   UNK A   0      11.387  14.330  19.477  0.00  0.00    +0.000 A 
ENDBRANCH  10  13
ENDBRANCH   3   7
BRANCH   4  19
ATOM     19  CA  PHE A   1       6.763   5.604  17.413  0.00  0.00    +0.000 C 
BRANCH  19  20
ATOM     20  C   PHE A   1       7.508   4.781  16.339  0.00  0.00    +0.000 C 
BRANCH  20  21
ATOM     21  O   PHE A   1       7.600   5.503  15.110  0.00  0.00    +0.000 OA
ATOM     22  H   PHE A   1       7.328   4.877  14.415  0.00  0.00    +0.000 HD
ENDBRANCH  20  21
ENDBRANCH  19  20
BRANCH  19  23
ATOM     23  CB  PHE A   1       5.979   4.663  18.350  0.00  0.00    +0.000 C 
BRANCH  23  24
ATOM     24  CG  PHE A   1       4.495   4.577  18.061  0.00  0.00    +0.000 A 
ATOM     25  CD1 PHE A   1       3.922   3.392  17.580  0.00  0.00    +0.000 A 
ATOM     26  CE1 PHE A   1       2.543   3.302  17.379  0.00  0.00    +0.000 A 
ATOM     27  CZ  PHE A   1       1.723   4.394  17.657  0.00  0.00    +0.000 A 
ATOM     28  CE2 PHE A   1       2.282   5.582  18.123  0.00  0.00    +0.000 A 
ATOM     29  CD2 PHE A   1       3.661   5.674  18.323  0.00  0.00    +0.000 A 
ENDBRANCH  23  24
ENDBRANCH  19  23
ENDBRANCH   4  19
TORSDOF 7
ENDMDL
MODEL 6
REMARK VINA RESULT:      -7.7      6.848      8.196
REMARK  Name = 
REMARK  7 active torsions:
REMARK  status: ('A' for Active; 'I' for Inactive)
REMARK    1  A    between atoms: N_3  and  C_4
REMARK    2  A    between atoms: C_7  and  C_8
REMARK    3  A    between atoms: N_16  and  CA_17
REMARK    4  A    between atoms: CA_17  and  C_18
REMARK    5  A    between atoms: CA_17  and  CB_20
REMARK    6  A    between atoms: C_18  and  O_19
REMARK    7  A    between atoms: CB_20  and  CG_21
REMARK                            x       y       z     vdW  Elec       q    Type
REMARK                         _______ _______ _______ _____ _____    ______ ____
ROOT
ATOM      1  O   UNK A   0       7.142   8.680  17.435  0.00  0.00    +0.000 OA
ATOM      2  C   UNK A   0       7.888   8.092  18.206  0.00  0.00    +0.000 C 
ATOM      3  N   UNK A   0       8.892   8.641  18.972  0.00  0.00    +0.000 N 
ATOM      4  N   PHE A   1       7.807   6.733  18.383  0.00  0.00    +0.000 N 
ATOM      5  H   UNK A   0       9.284   8.042  19.681  0.00  0.00    +0.000 HD
ATOM      6  H   PHE A   1       8.563   6.253  18.843  0.00  0.00    +0.000 HD
ENDROOT
BRANCH   3   7
ATOM      7  C   UNK A   0       9.317   9.987  18.976  0.00  0.00    +0.000 A 
ATOM      8  C   UNK A   0       9.745  10.653  17.832  0.00  0.00    +0.000 A 
ATOM      9  C   UNK A   0      10.146  11.990  17.894  0.00  0.00    +0.000 A 
ATOM     10  C   UNK A   0      10.128  12.714  19.097  0.00  0.00    +0.000 A 
ATOM     11  C   UNK A   0       9.716  12.022  20.249  0.00  0.00    +0.000 A 
ATOM     12  C   UNK A   0       9.316  10.677  20.190  0.00  0.00    +0.000 A 
BRANCH  10  13
ATOM     13  C   UNK A   0      10.521  14.139  19.122  0.00  0.00    +0.000 A 
ATOM     14  C   UNK A   0       9.580  15.153  18.881  0.00  0.00    +0.000 A 
ATOM     15  C   UNK A   0       9.984  16.479  18.883  0.00  0.00    +0.000 A 
ATOM     16  N   UNK A   0      11.250  16.874  19.118  0.00  0.00    +0.000 NA
ATOM     17  C   UNK A   0      12.147  15.897  19.359  0.00  0.00    +0.000 A 
ATOM     18  C   UNK A   0      11.839  14.544  19.370  0.00  0.00    +0.000 A 
ENDBRANCH  10  13
ENDBRANCH   3   7
BRANCH   4  19
ATOM     19  CA  PHE A   1       6.812   5.919  17.675  0.00  0.00    +0.000 C 
BRANCH  19  20
ATOM     20  C   PHE A   1       7.474   4.973  16.648  0.00  0.00    +0.000 C 
BRANCH  20  21
ATOM     21  O   PHE A   1       7.483   5.553  15.344  0.00  0.00    +0.000 OA
ATOM     22  H   PHE A   1       6.578   5.883  15.195  0.00  0.00    +0.000 HD
ENDBRANCH  20  21
ENDBRANCH  19  20
BRANCH  19  23
ATOM     23  CB  PHE A   1       5.973   5.105  18.680  0.00  0.00    +0.000 C 
BRANCH  23  24
ATOM     24  CG  PHE A   1       4.542   4.856  18.251  0.00  0.00    +0.000 A 
ATOM     25  CD1 PHE A   1       4.163   3.636  17.675  0.00  0.00    +0.000 A 
ATOM     26  CE1 PHE A   1       2.829   3.392  17.344  0.00  0.00    +0.000 A 
ATOM     27  CZ  PHE A   1       1.859   4.363  17.585  0.00  0.00    +0.000 A 
ATOM     28  CE2 PHE A   1       2.225   5.585  18.145  0.00  0.00    +0.000 A 
ATOM     29  CD2 PHE A   1       3.559   5.832  18.475  0.00  0.00    +0.000 A 
ENDBRANCH  23  24
ENDBRANCH  19  23
ENDBRANCH   4  19
TORSDOF 7
ENDMDL
MODEL 7
REMARK VINA RESULT:      -7.6      6.958      8.364
REMARK  Name = 
REMARK  7 active torsions:
REMARK  status: ('A' for Active; 'I' for Inactive)
REMARK    1  A    between atoms: N_3  and  C_4
REMARK    2  A    between atoms: C_7  and  C_8
REMARK    3  A    between atoms: N_16  and  CA_17
REMARK    4  A    between atoms: CA_17  and  C_18
REMARK    5  A    between atoms: CA_17  and  CB_20
REMARK    6  A    between atoms: C_18  and  O_19
REMARK    7  A    between atoms: CB_20  and  CG_21
REMARK                            x       y       z     vdW  Elec       q    Type
REMARK                         _______ _______ _______ _____ _____    ______ ____
ROOT
ATOM      1  O   UNK A   0       7.341   8.494  17.318  0.00  0.00    +0.000 OA
ATOM      2  C   UNK A   0       8.026   8.174  18.281  0.00  0.00    +0.000 C 
ATOM      3  N   UNK A   0       8.907   8.971  18.976  0.00  0.00    +0.000 N 
ATOM      4  N   PHE A   1       7.997   6.898  18.787  0.00  0.00    +0.000 N 
ATOM      5  H   UNK A   0       9.248   8.598  19.848  0.00  0.00    +0.000 HD
ATOM      6  H   PHE A   1       8.720   6.607  19.423  0.00  0.00    +0.000 HD
ENDROOT
BRANCH   3   7
ATOM      7  C   UNK A   0       9.258  10.306  18.681  0.00  0.00    +0.000 A 
ATOM      8  C   UNK A   0       8.524  11.113  17.816  0.00  0.00    +0.000 A 
ATOM      9  C   UNK A   0       8.915  12.432  17.569  0.00  0.00    +0.000 A 
ATOM     10  C   UNK A   0      10.045  12.997  18.179  0.00  0.00    +0.000 A 
ATOM     11  C   UNK A   0      10.790  12.165  19.032  0.00  0.00    +0.000 A 
ATOM     12  C   UNK A   0      10.402  10.837  19.280  0.00  0.00    +0.000 A 
BRANCH  10  13
ATOM     13  C   UNK A   0      10.409  14.407  17.928  0.00  0.00    +0.000 A 
ATOM     14  C   UNK A   0       9.559  15.454  18.320  0.00  0.00    +0.000 A 
ATOM     15  C   UNK A   0       9.913  16.766  18.044  0.00  0.00    +0.000 A 
ATOM     16  N   UNK A   0      11.054  17.116  17.419  0.00  0.00    +0.000 NA
ATOM     17  C   UNK A   0      11.870  16.108  17.054  0.00  0.00    +0.000 A 
ATOM     18  C   UNK A   0      11.598  14.766  17.280  0.00  0.00    +0.000 A 
ENDBRANCH  10  13
ENDBRANCH   3   7
BRANCH   4  19
ATOM     19  CA  PHE A   1       7.132   5.859  18.215  0.00  0.00    +0.000 C 
BRANCH  19  20
ATOM     20  C   PHE A   1       7.931   4.589  17.847  0.00  0.00    +0.000 C 
BRANCH  20  21
ATOM     21  O   PHE A   1       7.912   4.358  16.438  0.00  0.00    +0.000 OA
ATOM     22  H   PHE A   1       8.428   5.085  16.045  0.00  0.00    +0.000 HD
ENDBRANCH  20  21
ENDBRANCH  19  20
BRANCH  19  23
ATOM     23  CB  PHE A   1       5.999   5.504  19.198  0.00  0.00    +0.000 C 
BRANCH  23  24
ATOM     24  CG  PHE A   1       5.014   4.476  18.682  0.00  0.00    +0.000 A 
ATOM     25  CD1 PHE A   1       4.764   3.296  19.395  0.00  0.00    +0.000 A 
ATOM     26  CE1 PHE A   1       3.807   2.384  18.945  0.00  0.00    +0.000 A 
ATOM     27  CZ  PHE A   1       3.088   2.643  17.780  0.00  0.00    +0.000 A 
ATOM     28  CE2 PHE A   1       3.337   3.807  17.055  0.00  0.00    +0.000 A 
ATOM     29  CD2 PHE A   1       4.295   4.718  17.502  0.00  0.00    +0.000 A 
ENDBRANCH  23  24
ENDBRANCH  19  23
ENDBRANCH   4  19
TORSDOF 7
ENDMDL
MODEL 8
REMARK VINA RESULT:      -7.6      0.517      1.013
REMARK  Name = 
REMARK  7 active torsions:
REMARK  status: ('A' for Active; 'I' for Inactive)
REMARK    1  A    between atoms: N_3  and  C_4
REMARK    2  A    between atoms: C_7  and  C_8
REMARK    3  A    between atoms: N_16  and  CA_17
REMARK    4  A    between atoms: CA_17  and  C_18
REMARK    5  A    between atoms: CA_17  and  CB_20
REMARK    6  A    between atoms: C_18  and  O_19
REMARK    7  A    between atoms: CB_20  and  CG_21
REMARK                            x       y       z     vdW  Elec       q    Type
REMARK                         _______ _______ _______ _____ _____    ______ ____
ROOT
ATOM      1  O   UNK A   0       4.518   7.426  17.203  0.00  0.00    +0.000 OA
ATOM      2  C   UNK A   0       4.127   6.396  17.736  0.00  0.00    +0.000 C 
ATOM      3  N   UNK A   0       3.089   6.267  18.632  0.00  0.00    +0.000 N 
ATOM      4  N   PHE A   1       4.733   5.189  17.492  0.00  0.00    +0.000 N 
ATOM      5  H   UNK A   0       2.789   5.325  18.829  0.00  0.00    +0.000 HD
ATOM      6  H   PHE A   1       4.539   4.412  18.101  0.00  0.00    +0.000 HD
ENDROOT
BRANCH   3   7
ATOM      7  C   UNK A   0       2.305   7.306  19.178  0.00  0.00    +0.000 A 
ATOM      8  C   UNK A   0       1.932   8.436  18.458  0.00  0.00    +0.000 A 
ATOM      9  C   UNK A   0       1.145   9.429  19.049  0.00  0.00    +0.000 A 
ATOM     10  C   UNK A   0       0.697   9.328  20.375  0.00  0.00    +0.000 A 
ATOM     11  C   UNK A   0       1.100   8.193  21.098  0.00  0.00    +0.000 A 
ATOM     12  C   UNK A   0       1.894   7.194  20.508  0.00  0.00    +0.000 A 
BRANCH  10  13
ATOM     13  C   UNK A   0      -0.167  10.377  20.958  0.00  0.00    +0.000 A 
ATOM     14  C   UNK A   0      -0.329  10.490  22.348  0.00  0.00    +0.000 A 
ATOM     15  C   UNK A   0      -1.169  11.464  22.865  0.00  0.00    +0.000 A 
ATOM     16  N   UNK A   0      -1.850  12.342  22.104  0.00  0.00    +0.000 NA
ATOM     17  C   UNK A   0      -1.684  12.236  20.772  0.00  0.00    +0.000 A 
ATOM     18  C   UNK A   0      -0.872  11.289  20.162  0.00  0.00    +0.000 A 
ENDBRANCH  10  13
ENDBRANCH   3   7
BRANCH   4  19
ATOM     19  CA  PHE A   1       5.867   5.066  16.569  0.00  0.00    +0.000 C 
BRANCH  19  20
ATOM     20  C   PHE A   1       7.203   4.891  17.324  0.00  0.00    +0.000 C 
BRANCH  20  21
ATOM     21  O   PHE A   1       7.018   4.153  18.533  0.00  0.00    +0.000 OA
ATOM     22  H   PHE A   1       6.070   4.224  18.743  0.00  0.00    +0.000 HD
ENDBRANCH  20  21
ENDBRANCH  19  20
BRANCH  19  23
ATOM     23  CB  PHE A   1       5.647   3.884  15.604  0.00  0.00    +0.000 C 
BRANCH  23  24
ATOM     24  CG  PHE A   1       6.277   4.058  14.238  0.00  0.00    +0.000 A 
ATOM     25  CD1 PHE A   1       5.855   3.287  13.146  0.00  0.00    +0.000 A 
ATOM     26  CE1 PHE A   1       6.396   3.501  11.876  0.00  0.00    +0.000 A 
ATOM     27  CZ  PHE A   1       7.362   4.487  11.685  0.00  0.00    +0.000 A 
ATOM     28  CE2 PHE A   1       7.800   5.250  12.765  0.00  0.00    +0.000 A 
ATOM     29  CD2 PHE A   1       7.262   5.036  14.035  0.00  0.00    +0.000 A 
ENDBRANCH  23  24
ENDBRANCH  19  23
ENDBRANCH   4  19
TORSDOF 7
ENDMDL
MODEL 9
REMARK VINA RESULT:      -7.6      6.834      8.314
REMARK  Name = 
REMARK  7 active torsions:
REMARK  status: ('A' for Active; 'I' for Inactive)
REMARK    1  A    between atoms: N_3  and  C_4
REMARK    2  A    between atoms: C_7  and  C_8
REMARK    3  A    between atoms: N_16  and  CA_17
REMARK    4  A    between atoms: CA_17  and  C_18
REMARK    5  A    between atoms: CA_17  and  CB_20
REMARK    6  A    between atoms: C_18  and  O_19
REMARK    7  A    between atoms: CB_20  and  CG_21
REMARK                            x       y       z     vdW  Elec       q    Type
REMARK                         _______ _______ _______ _____ _____    ______ ____
ROOT
ATOM      1  O   UNK A   0       7.141   8.541  17.385  0.00  0.00    +0.000 OA
ATOM      2  C   UNK A   0       7.856   7.952  18.185  0.00  0.00    +0.000 C 
ATOM      3  N   UNK A   0       8.822   8.503  18.997  0.00  0.00    +0.000 N 
ATOM      4  N   PHE A   1       7.775   6.592  18.352  0.00  0.00    +0.000 N 
ATOM      5  H   UNK A   0       9.186   7.902  19.721  0.00  0.00    +0.000 HD
ATOM      6  H   PHE A   1       8.513   6.114  18.842  0.00  0.00    +0.000 HD
ENDROOT
BRANCH   3   7
ATOM      7  C   UNK A   0       9.239   9.851  19.027  0.00  0.00    +0.000 A 
ATOM      8  C   UNK A   0       9.374  10.580  20.204  0.00  0.00    +0.000 A 
ATOM      9  C   UNK A   0       9.800  11.910  20.173  0.00  0.00    +0.000 A 
ATOM     10  C   UNK A   0      10.114  12.560  18.970  0.00  0.00    +0.000 A 
ATOM     11  C   UNK A   0       9.951  11.820  17.786  0.00  0.00    +0.000 A 
ATOM     12  C   UNK A   0       9.519  10.483  17.814  0.00  0.00    +0.000 A 
BRANCH  10  13
ATOM     13  C   UNK A   0      10.601  13.956  18.974  0.00  0.00    +0.000 A 
ATOM     14  C   UNK A   0      11.062  14.558  20.156  0.00  0.00    +0.000 A 
ATOM     15  C   UNK A   0      11.484  15.878  20.134  0.00  0.00    +0.000 A 
ATOM     16  N   UNK A   0      11.495  16.641  19.025  0.00  0.00    +0.000 NA
ATOM     17  C   UNK A   0      11.062  16.055  17.891  0.00  0.00    +0.000 A 
ATOM     18  C   UNK A   0      10.613  14.744  17.816  0.00  0.00    +0.000 A 
ENDBRANCH  10  13
ENDBRANCH   3   7
BRANCH   4  19
ATOM     19  CA  PHE A   1       6.817   5.776  17.596  0.00  0.00    +0.000 C 
BRANCH  19  20
ATOM     20  C   PHE A   1       7.511   4.974  16.473  0.00  0.00    +0.000 C 
BRANCH  20  21
ATOM     21  O   PHE A   1       7.512   5.702  15.245  0.00  0.00    +0.000 OA
ATOM     22  H   PHE A   1       8.015   5.156  14.614  0.00  0.00    +0.000 HD
ENDBRANCH  20  21
ENDBRANCH  19  20
BRANCH  19  23
ATOM     23  CB  PHE A   1       6.065   4.819  18.542  0.00  0.00    +0.000 C 
BRANCH  23  24
ATOM     24  CG  PHE A   1       4.581   4.698  18.268  0.00  0.00    +0.000 A 
ATOM     25  CD1 PHE A   1       3.703   5.748  18.572  0.00  0.00    +0.000 A 
ATOM     26  CE1 PHE A   1       2.347   5.653  18.255  0.00  0.00    +0.000 A 
ATOM     27  CZ  PHE A   1       1.853   4.509  17.630  0.00  0.00    +0.000 A 
ATOM     28  CE2 PHE A   1       2.713   3.453  17.335  0.00  0.00    +0.000 A 
ATOM     29  CD2 PHE A   1       4.069   3.546  17.653  0.00  0.00    +0.000 A 
ENDBRANCH  23  24
ENDBRANCH  19  23
ENDBRANCH   4  19
TORSDOF 7
ENDMDL
