MODEL 1
REMARK VINA RESULT:      -9.2      0.000      0.000
REMARK  Name = 
REMARK  4 active torsions:
REMARK  status: ('A' for Active; 'I' for Inactive)
REMARK    1  A    between atoms: C_1  and  N_2
REMARK    2  A    between atoms: C_5  and  C_6
REMARK    3  A    between atoms: C_11  and  C_12
REMARK    4  A    between atoms: C_15  and  N_16
REMARK                            x       y       z     vdW  Elec       q    Type
REMARK                         _______ _______ _______ _____ _____    ______ ____
ROOT
ATOM      1  C   UNL     1       3.550   5.120  18.818  0.00  0.00    +0.000 A 
ATOM      2  C   UNL     1       3.254   4.202  19.848  0.00  0.00    +0.000 A 
ATOM      3  N   UNL     1       2.432   4.690  20.778  0.00  0.00    +0.000 NA
ATOM      4  N   UNL     1       2.194   5.960  20.375  0.00  0.00    +0.000 N 
ATOM      5  C   UNL     1       1.402   6.906  21.016  0.00  0.00    +0.000 A 
ATOM      6  C   UNL     1       1.264   8.136  20.502  0.00  0.00    +0.000 A 
ATOM      7  C   UNL     1       2.010   8.371  19.228  0.00  0.00    +0.000 A 
ATOM      8  N   UNL     1       2.758   7.509  18.604  0.00  0.00    +0.000 NA
ATOM      9  C   UNL     1       2.864   6.268  19.182  0.00  0.00    +0.000 A 
ENDROOT
BRANCH   1  14
ATOM     10  C   UNL     1       8.167   8.115  17.876  0.00  0.00    +0.000 C 
ATOM     11  N   UNL     1       7.215   7.113  17.459  0.00  0.00    +0.000 N 
ATOM     12  C   UNL     1       6.114   6.702  18.154  0.00  0.00    +0.000 A 
ATOM     13  C   UNL     1       5.530   5.738  17.373  0.00  0.00    +0.000 A 
ATOM     14  C   UNL     1       4.377   4.981  17.637  0.00  0.00    +0.000 A 
ATOM     15  C   UNL     1       4.123   4.055  16.595  0.00  0.00    +0.000 A 
ATOM     16  C   UNL     1       4.941   3.905  15.433  0.00  0.00    +0.000 A 
ATOM     17  C   UNL     1       6.097   4.674  15.195  0.00  0.00    +0.000 A 
ATOM     18  C   UNL     1       6.380   5.609  16.203  0.00  0.00    +0.000 A 
ATOM     19  N   UNL     1       7.399   6.483  16.285  0.00  0.00    +0.000 NA
ENDBRANCH   1  14
BRANCH   6  20
ATOM     20  C   UNL     1       0.456   9.177  21.130  0.00  0.00    +0.000 A 
ATOM     21  C   UNL     1       0.072   9.064  22.466  0.00  0.00    +0.000 A 
ATOM     22  C   UNL     1      -0.678  10.079  23.077  0.00  0.00    +0.000 A 
ATOM     23  C   UNL     1      -1.076  11.223  22.375  0.00  0.00    +0.000 A 
ATOM     24  C   UNL     1      -0.697  11.304  21.025  0.00  0.00    +0.000 A 
ATOM     25  C   UNL     1       0.062  10.303  20.406  0.00  0.00    +0.000 A 
BRANCH  23  26
ATOM     26  N   UNL     1      -1.772  12.261  22.965  0.00  0.00    +0.000 N 
ATOM     27  C   UNL     1      -3.242  12.321  22.982  0.00  0.00    +0.000 C 
ATOM     28  C   UNL     1      -3.759  13.438  22.064  0.00  0.00    +0.000 C 
ATOM     29  O   UNL     1      -3.155  14.703  22.380  0.00  0.00    +0.000 OA
ATOM     30  C   UNL     1      -1.728  14.620  22.228  0.00  0.00    +0.000 C 
ATOM     31  C   UNL     1      -1.113  13.565  23.165  0.00  0.00    +0.000 C 
ENDBRANCH  23  26
ENDBRANCH   6  20
TORSDOF 3
ENDMDL
MODEL 2
REMARK VINA RESULT:      -9.1      0.856      1.455
REMARK  Name = 
REMARK  4 active torsions:
REMARK  status: ('A' for Active; 'I' for Inactive)
REMARK    1  A    between atoms: C_1  and  N_2
REMARK    2  A    between atoms: C_5  and  C_6
REMARK    3  A    between atoms: C_11  and  C_12
REMARK    4  A    between atoms: C_15  and  N_16
REMARK                            x       y       z     vdW  Elec       q    Type
REMARK                         _______ _______ _______ _____ _____    ______ ____
ROOT
ATOM      1  C   UNL     1       3.536   5.398  18.856  0.00  0.00    +0.000 A 
ATOM      2  C   UNL     1       3.221   4.617  19.990  0.00  0.00    +0.000 A 
ATOM      3  N   UNL     1       2.360   5.205  20.820  0.00  0.00    +0.000 NA
ATOM      4  N   UNL     1       2.115   6.406  20.246  0.00  0.00    +0.000 N 
ATOM      5  C   UNL     1       1.286   7.411  20.733  0.00  0.00    +0.000 A 
ATOM      6  C   UNL     1       1.145   8.561  20.057  0.00  0.00    +0.000 A 
ATOM      7  C   UNL     1       1.930   8.641  18.787  0.00  0.00    +0.000 A 
ATOM      8  N   UNL     1       2.713   7.721  18.305  0.00  0.00    +0.000 NA
ATOM      9  C   UNL     1       2.820   6.570  19.045  0.00  0.00    +0.000 A 
ENDROOT
BRANCH   1  14
ATOM     10  C   UNL     1       8.154   8.314  17.695  0.00  0.00    +0.000 C 
ATOM     11  N   UNL     1       7.227   7.255  17.378  0.00  0.00    +0.000 N 
ATOM     12  C   UNL     1       6.107   6.919  18.082  0.00  0.00    +0.000 A 
ATOM     13  C   UNL     1       5.558   5.856  17.411  0.00  0.00    +0.000 A 
ATOM     14  C   UNL     1       4.405   5.123  17.731  0.00  0.00    +0.000 A 
ATOM     15  C   UNL     1       4.195   4.069  16.807  0.00  0.00    +0.000 A 
ATOM     16  C   UNL     1       5.055   3.785  15.701  0.00  0.00    +0.000 A 
ATOM     17  C   UNL     1       6.210   4.534  15.405  0.00  0.00    +0.000 A 
ATOM     18  C   UNL     1       6.450   5.593  16.296  0.00  0.00    +0.000 A 
ATOM     19  N   UNL     1       7.457   6.484  16.300  0.00  0.00    +0.000 NA
ENDBRANCH   1  14
BRANCH   6  20
ATOM     20  C   UNL     1       0.299   9.658  20.516  0.00  0.00    +0.000 A 
ATOM     21  C   UNL     1      -0.385  10.455  19.597  0.00  0.00    +0.000 A 
ATOM     22  C   UNL     1      -1.221  11.489  20.041  0.00  0.00    +0.000 A 
ATOM     23  C   UNL     1      -1.389  11.766  21.403  0.00  0.00    +0.000 A 
ATOM     24  C   UNL     1      -0.673  10.965  22.308  0.00  0.00    +0.000 A 
ATOM     25  C   UNL     1       0.156   9.921  21.878  0.00  0.00    +0.000 A 
BRANCH  23  26
ATOM     26  N   UNL     1      -2.246  12.746  21.869  0.00  0.00    +0.000 N 
ATOM     27  C   UNL     1      -2.390  13.058  23.300  0.00  0.00    +0.000 C 
ATOM     28  C   UNL     1      -3.759  12.607  23.829  0.00  0.00    +0.000 C 
ATOM     29  O   UNL     1      -4.832  13.146  23.039  0.00  0.00    +0.000 OA
ATOM     30  C   UNL     1      -4.710  12.707  21.676  0.00  0.00    +0.000 C 
ATOM     31  C   UNL     1      -3.388  13.175  21.041  0.00  0.00    +0.000 C 
ENDBRANCH  23  26
ENDBRANCH   6  20
TORSDOF 3
ENDMDL
MODEL 3
REMARK VINA RESULT:      -9.0      0.695      1.190
REMARK  Name = 
REMARK  4 active torsions:
REMARK  status: ('A' for Active; 'I' for Inactive)
REMARK    1  A    between atoms: C_1  and  N_2
REMARK    2  A    between atoms: C_5  and  C_6
REMARK    3  A    between atoms: C_11  and  C_12
REMARK    4  A    between atoms: C_15  and  N_16
REMARK                            x       y       z     vdW  Elec       q    Type
REMARK                         _______ _______ _______ _____ _____    ______ ____
ROOT
ATOM      1  C   UNL     1       3.520   5.369  18.863  0.00  0.00    +0.000 A 
ATOM      2  C   UNL     1       3.202   4.566  19.979  0.00  0.00    +0.000 A 
ATOM      3  N   UNL     1       2.341   5.138  20.821  0.00  0.00    +0.000 NA
ATOM      4  N   UNL     1       2.099   6.351  20.272  0.00  0.00    +0.000 N 
ATOM      5  C   UNL     1       1.272   7.348  20.779  0.00  0.00    +0.000 A 
ATOM      6  C   UNL     1       1.134   8.511  20.127  0.00  0.00    +0.000 A 
ATOM      7  C   UNL     1       1.920   8.617  18.860  0.00  0.00    +0.000 A 
ATOM      8  N   UNL     1       2.702   7.706  18.360  0.00  0.00    +0.000 NA
ATOM      9  C   UNL     1       2.806   6.539  19.076  0.00  0.00    +0.000 A 
ENDROOT
BRANCH   1  14
ATOM     10  C   UNL     1       8.116   8.333  17.739  0.00  0.00    +0.000 C 
ATOM     11  N   UNL     1       7.196   7.272  17.408  0.00  0.00    +0.000 N 
ATOM     12  C   UNL     1       6.079   6.919  18.108  0.00  0.00    +0.000 A 
ATOM     13  C   UNL     1       5.537   5.862  17.423  0.00  0.00    +0.000 A 
ATOM     14  C   UNL     1       4.389   5.116  17.733  0.00  0.00    +0.000 A 
ATOM     15  C   UNL     1       4.186   4.074  16.794  0.00  0.00    +0.000 A 
ATOM     16  C   UNL     1       5.046   3.812  15.683  0.00  0.00    +0.000 A 
ATOM     17  C   UNL     1       6.196   4.573  15.397  0.00  0.00    +0.000 A 
ATOM     18  C   UNL     1       6.429   5.620  16.302  0.00  0.00    +0.000 A 
ATOM     19  N   UNL     1       7.430   6.518  16.318  0.00  0.00    +0.000 NA
ENDBRANCH   1  14
BRANCH   6  20
ATOM     20  C   UNL     1       0.290   9.601  20.609  0.00  0.00    +0.000 A 
ATOM     21  C   UNL     1       0.004   9.724  21.969  0.00  0.00    +0.000 A 
ATOM     22  C   UNL     1      -0.781  10.788  22.434  0.00  0.00    +0.000 A 
ATOM     23  C   UNL     1      -1.312  11.747  21.562  0.00  0.00    +0.000 A 
ATOM     24  C   UNL     1      -1.029  11.589  20.195  0.00  0.00    +0.000 A 
ATOM     25  C   UNL     1      -0.237  10.537  19.719  0.00  0.00    +0.000 A 
BRANCH  23  26
ATOM     26  N   UNL     1      -2.047  12.833  21.999  0.00  0.00    +0.000 N 
ATOM     27  C   UNL     1      -1.419  14.079  22.465  0.00  0.00    +0.000 C 
ATOM     28  C   UNL     1      -1.591  14.251  23.981  0.00  0.00    +0.000 C 
ATOM     29  O   UNL     1      -2.972  14.155  24.368  0.00  0.00    +0.000 OA
ATOM     30  C   UNL     1      -3.500  12.870  23.999  0.00  0.00    +0.000 C 
ATOM     31  C   UNL     1      -3.428  12.639  22.479  0.00  0.00    +0.000 C 
ENDBRANCH  23  26
ENDBRANCH   6  20
TORSDOF 3
ENDMDL
MODEL 4
REMARK VINA RESULT:      -8.9      2.062      3.567
REMARK  Name = 
REMARK  4 active torsions:
REMARK  status: ('A' for Active; 'I' for Inactive)
REMARK    1  A    between atoms: C_1  and  N_2
REMARK    2  A    between atoms: C_5  and  C_6
REMARK    3  A    between atoms: C_11  and  C_12
REMARK    4  A    between atoms: C_15  and  N_16
REMARK                            x       y       z     vdW  Elec       q    Type
REMARK                         _______ _______ _______ _____ _____    ______ ____
ROOT
ATOM      1  C   UNL     1       2.244   7.126  19.022  0.00  0.00    +0.000 A 
ATOM      2  C   UNL     1       2.311   7.778  17.772  0.00  0.00    +0.000 A 
ATOM      3  N   UNL     1       1.894   9.044  17.808  0.00  0.00    +0.000 NA
ATOM      4  N   UNL     1       1.520   9.232  19.095  0.00  0.00    +0.000 N 
ATOM      5  C   UNL     1       0.993  10.394  19.650  0.00  0.00    +0.000 A 
ATOM      6  C   UNL     1       0.657  10.433  20.948  0.00  0.00    +0.000 A 
ATOM      7  C   UNL     1       0.901   9.162  21.697  0.00  0.00    +0.000 A 
ATOM      8  N   UNL     1       1.391   8.061  21.208  0.00  0.00    +0.000 NA
ATOM      9  C   UNL     1       1.711   8.082  19.873  0.00  0.00    +0.000 A 
ENDROOT
BRANCH   1  14
ATOM     10  C   UNL     1       7.246   4.848  18.041  0.00  0.00    +0.000 C 
ATOM     11  N   UNL     1       5.903   4.749  18.559  0.00  0.00    +0.000 N 
ATOM     12  C   UNL     1       4.953   5.729  18.543  0.00  0.00    +0.000 A 
ATOM     13  C   UNL     1       3.853   5.181  19.150  0.00  0.00    +0.000 A 
ATOM     14  C   UNL     1       2.608   5.778  19.405  0.00  0.00    +0.000 A 
ATOM     15  C   UNL     1       1.744   4.888  20.093  0.00  0.00    +0.000 A 
ATOM     16  C   UNL     1       2.101   3.561  20.484  0.00  0.00    +0.000 A 
ATOM     17  C   UNL     1       3.360   2.987  20.220  0.00  0.00    +0.000 A 
ATOM     18  C   UNL     1       4.244   3.836  19.535  0.00  0.00    +0.000 A 
ATOM     19  N   UNL     1       5.508   3.602  19.140  0.00  0.00    +0.000 NA
ENDBRANCH   1  14
BRANCH   6  20
ATOM     20  C   UNL     1       0.091  11.615  21.590  0.00  0.00    +0.000 A 
ATOM     21  C   UNL     1       0.506  12.892  21.211  0.00  0.00    +0.000 A 
ATOM     22  C   UNL     1      -0.060  14.027  21.807  0.00  0.00    +0.000 A 
ATOM     23  C   UNL     1      -1.041  13.924  22.801  0.00  0.00    +0.000 A 
ATOM     24  C   UNL     1      -1.426  12.629  23.182  0.00  0.00    +0.000 A 
ATOM     25  C   UNL     1      -0.877  11.487  22.587  0.00  0.00    +0.000 A 
BRANCH  23  26
ATOM     26  N   UNL     1      -1.652  15.027  23.369  0.00  0.00    +0.000 N 
ATOM     27  C   UNL     1      -1.486  15.382  24.787  0.00  0.00    +0.000 C 
ATOM     28  C   UNL     1      -2.785  15.145  25.571  0.00  0.00    +0.000 C 
ATOM     29  O   UNL     1      -3.898  15.821  24.963  0.00  0.00    +0.000 OA
ATOM     30  C   UNL     1      -4.090  15.345  23.620  0.00  0.00    +0.000 C 
ATOM     31  C   UNL     1      -2.855  15.604  22.740  0.00  0.00    +0.000 C 
ENDBRANCH  23  26
ENDBRANCH   6  20
TORSDOF 3
ENDMDL
MODEL 5
REMARK VINA RESULT:      -8.8      3.613     10.838
REMARK  Name = 
REMARK  4 active torsions:
REMARK  status: ('A' for Active; 'I' for Inactive)
REMARK    1  A    between atoms: C_1  and  N_2
REMARK    2  A    between atoms: C_5  and  C_6
REMARK    3  A    between atoms: C_11  and  C_12
REMARK    4  A    between atoms: C_15  and  N_16
REMARK                            x       y       z     vdW  Elec       q    Type
REMARK                         _______ _______ _______ _____ _____    ______ ____
ROOT
ATOM      1  C   UNL     1      -1.523  12.220  20.364  0.00  0.00    +0.000 A 
ATOM      2  C   UNL     1      -1.413  12.842  19.102  0.00  0.00    +0.000 A 
ATOM      3  N   UNL     1      -0.604  12.201  18.259  0.00  0.00    +0.000 NA
ATOM      4  N   UNL     1      -0.148  11.147  18.976  0.00  0.00    +0.000 N 
ATOM      5  C   UNL     1       0.747  10.171  18.550  0.00  0.00    +0.000 A 
ATOM      6  C   UNL     1       1.117   9.184  19.378  0.00  0.00    +0.000 A 
ATOM      7  C   UNL     1       0.496   9.238  20.737  0.00  0.00    +0.000 A 
ATOM      8  N   UNL     1      -0.342  10.135  21.165  0.00  0.00    +0.000 NA
ATOM      9  C   UNL     1      -0.680  11.123  20.273  0.00  0.00    +0.000 A 
ENDROOT
BRANCH   1  14
ATOM     10  C   UNL     1      -7.101  12.100  20.581  0.00  0.00    +0.000 C 
ATOM     11  N   UNL     1      -5.827  12.369  21.204  0.00  0.00    +0.000 N 
ATOM     12  C   UNL     1      -4.596  12.213  20.634  0.00  0.00    +0.000 A 
ATOM     13  C   UNL     1      -3.697  12.579  21.602  0.00  0.00    +0.000 A 
ATOM     14  C   UNL     1      -2.294  12.584  21.534  0.00  0.00    +0.000 A 
ATOM     15  C   UNL     1      -1.723  12.992  22.765  0.00  0.00    +0.000 A 
ATOM     16  C   UNL     1      -2.479  13.342  23.927  0.00  0.00    +0.000 A 
ATOM     17  C   UNL     1      -3.887  13.324  23.970  0.00  0.00    +0.000 A 
ATOM     18  C   UNL     1      -4.491  12.929  22.766  0.00  0.00    +0.000 A 
ATOM     19  N   UNL     1      -5.798  12.802  22.477  0.00  0.00    +0.000 NA
ENDBRANCH   1  14
BRANCH   6  20
ATOM     20  C   UNL     1       2.059   8.135  18.998  0.00  0.00    +0.000 A 
ATOM     21  C   UNL     1       2.789   8.237  17.814  0.00  0.00    +0.000 A 
ATOM     22  C   UNL     1       3.716   7.244  17.465  0.00  0.00    +0.000 A 
ATOM     23  C   UNL     1       3.930   6.121  18.273  0.00  0.00    +0.000 A 
ATOM     24  C   UNL     1       3.166   6.029  19.448  0.00  0.00    +0.000 A 
ATOM     25  C   UNL     1       2.247   7.020  19.814  0.00  0.00    +0.000 A 
BRANCH  23  26
ATOM     26  N   UNL     1       4.872   5.154  17.978  0.00  0.00    +0.000 N 
ATOM     27  C   UNL     1       5.976   4.817  18.891  0.00  0.00    +0.000 C 
ATOM     28  C   UNL     1       7.323   5.292  18.328  0.00  0.00    +0.000 C 
ATOM     29  O   UNL     1       7.542   4.795  16.998  0.00  0.00    +0.000 OA
ATOM     30  C   UNL     1       6.500   5.257  16.121  0.00  0.00    +0.000 C 
ATOM     31  C   UNL     1       5.113   4.769  16.575  0.00  0.00    +0.000 C 
ENDBRANCH  23  26
ENDBRANCH   6  20
TORSDOF 3
ENDMDL
MODEL 6
REMARK VINA RESULT:      -8.8      2.409      3.765
REMARK  Name = 
REMARK  4 active torsions:
REMARK  status: ('A' for Active; 'I' for Inactive)
REMARK    1  A    between atoms: C_1  and  N_2
REMARK    2  A    between atoms: C_5  and  C_6
REMARK    3  A    between atoms: C_11  and  C_12
REMARK    4  A    between atoms: C_15  and  N_16
REMARK                            x       y       z     vdW  Elec       q    Type
REMARK                         _______ _______ _______ _____ _____    ______ ____
ROOT
ATOM      1  C   UNL     1       2.920   7.212  18.425  0.00  0.00    +0.000 A 
ATOM      2  C   UNL     1       2.850   8.006  17.259  0.00  0.00    +0.000 A 
ATOM      3  N   UNL     1       2.085   9.089  17.395  0.00  0.00    +0.000 NA
ATOM      4  N   UNL     1       1.617   9.005  18.662  0.00  0.00    +0.000 N 
ATOM      5  C   UNL     1       0.754   9.895  19.295  0.00  0.00    +0.000 A 
ATOM      6  C   UNL     1       0.366   9.679  20.560  0.00  0.00    +0.000 A 
ATOM      7  C   UNL     1       0.932   8.446  21.188  0.00  0.00    +0.000 A 
ATOM      8  N   UNL     1       1.739   7.596  20.625  0.00  0.00    +0.000 NA
ATOM      9  C   UNL     1       2.097   7.868  19.328  0.00  0.00    +0.000 A 
ENDROOT
BRANCH   1  14
ATOM     10  C   UNL     1       0.496   2.195  18.778  0.00  0.00    +0.000 C 
ATOM     11  N   UNL     1       1.675   3.026  18.843  0.00  0.00    +0.000 N 
ATOM     12  C   UNL     1       1.725   4.377  18.657  0.00  0.00    +0.000 A 
ATOM     13  C   UNL     1       3.045   4.717  18.803  0.00  0.00    +0.000 A 
ATOM     14  C   UNL     1       3.639   5.984  18.691  0.00  0.00    +0.000 A 
ATOM     15  C   UNL     1       5.042   5.911  18.872  0.00  0.00    +0.000 A 
ATOM     16  C   UNL     1       5.760   4.700  19.123  0.00  0.00    +0.000 A 
ATOM     17  C   UNL     1       5.140   3.439  19.226  0.00  0.00    +0.000 A 
ATOM     18  C   UNL     1       3.746   3.471  19.058  0.00  0.00    +0.000 A 
ATOM     19  N   UNL     1       2.867   2.454  19.090  0.00  0.00    +0.000 NA
ENDBRANCH   1  14
BRANCH   6  20
ATOM     20  C   UNL     1      -0.544  10.566  21.277  0.00  0.00    +0.000 A 
ATOM     21  C   UNL     1      -0.736  10.420  22.652  0.00  0.00    +0.000 A 
ATOM     22  C   UNL     1      -1.586  11.293  23.345  0.00  0.00    +0.000 A 
ATOM     23  C   UNL     1      -2.276  12.322  22.692  0.00  0.00    +0.000 A 
ATOM     24  C   UNL     1      -2.084  12.435  21.305  0.00  0.00    +0.000 A 
ATOM     25  C   UNL     1      -1.229  11.577  20.603  0.00  0.00    +0.000 A 
BRANCH  23  26
ATOM     26  N   UNL     1      -3.081  13.227  23.359  0.00  0.00    +0.000 N 
ATOM     27  C   UNL     1      -4.062  12.816  24.375  0.00  0.00    +0.000 C 
ATOM     28  C   UNL     1      -5.498  12.997  23.861  0.00  0.00    +0.000 C 
ATOM     29  O   UNL     1      -5.723  14.337  23.391  0.00  0.00    +0.000 OA
ATOM     30  C   UNL     1      -4.819  14.641  22.316  0.00  0.00    +0.000 C 
ATOM     31  C   UNL     1      -3.349  14.548  22.762  0.00  0.00    +0.000 C 
ENDBRANCH  23  26
ENDBRANCH   6  20
TORSDOF 3
ENDMDL
MODEL 7
REMARK VINA RESULT:      -8.8      3.663     10.706
REMARK  Name = 
REMARK  4 active torsions:
REMARK  status: ('A' for Active; 'I' for Inactive)
REMARK    1  A    between atoms: C_1  and  N_2
REMARK    2  A    between atoms: C_5  and  C_6
REMARK    3  A    between atoms: C_11  and  C_12
REMARK    4  A    between atoms: C_15  and  N_16
REMARK                            x       y       z     vdW  Elec       q    Type
REMARK                         _______ _______ _______ _____ _____    ______ ____
ROOT
ATOM      1  C   UNL     1      -0.858  12.777  20.807  0.00  0.00    +0.000 A 
ATOM      2  C   UNL     1      -0.474  13.418  19.610  0.00  0.00    +0.000 A 
ATOM      3  N   UNL     1       0.246  12.644  18.797  0.00  0.00    +0.000 NA
ATOM      4  N   UNL     1       0.365  11.477  19.472  0.00  0.00    +0.000 N 
ATOM      5  C   UNL     1       1.047  10.338  19.056  0.00  0.00    +0.000 A 
ATOM      6  C   UNL     1       1.088   9.250  19.839  0.00  0.00    +0.000 A 
ATOM      7  C   UNL     1       0.358   9.382  21.137  0.00  0.00    +0.000 A 
ATOM      8  N   UNL     1      -0.287  10.432  21.554  0.00  0.00    +0.000 NA
ATOM      9  C   UNL     1      -0.289  11.516  20.711  0.00  0.00    +0.000 A 
ENDROOT
BRANCH   1  14
ATOM     10  C   UNL     1      -6.408  12.284  21.168  0.00  0.00    +0.000 C 
ATOM     11  N   UNL     1      -5.151  12.736  21.715  0.00  0.00    +0.000 N 
ATOM     12  C   UNL     1      -3.919  12.586  21.146  0.00  0.00    +0.000 A 
ATOM     13  C   UNL     1      -3.038  13.158  22.028  0.00  0.00    +0.000 A 
ATOM     14  C   UNL     1      -1.641  13.255  21.927  0.00  0.00    +0.000 A 
ATOM     15  C   UNL     1      -1.087  13.884  23.070  0.00  0.00    +0.000 A 
ATOM     16  C   UNL     1      -1.853  14.349  24.184  0.00  0.00    +0.000 A 
ATOM     17  C   UNL     1      -3.255  14.235  24.262  0.00  0.00    +0.000 A 
ATOM     18  C   UNL     1      -3.843  13.621  23.145  0.00  0.00    +0.000 A 
ATOM     19  N   UNL     1      -5.140  13.356  22.908  0.00  0.00    +0.000 NA
ENDBRANCH   1  14
BRANCH   6  20
ATOM     20  C   UNL     1       1.792   8.027  19.467  0.00  0.00    +0.000 A 
ATOM     21  C   UNL     1       1.846   6.947  20.350  0.00  0.00    +0.000 A 
ATOM     22  C   UNL     1       2.497   5.761  19.979  0.00  0.00    +0.000 A 
ATOM     23  C   UNL     1       3.119   5.622  18.733  0.00  0.00    +0.000 A 
ATOM     24  C   UNL     1       3.071   6.730  17.872  0.00  0.00    +0.000 A 
ATOM     25  C   UNL     1       2.415   7.916  18.224  0.00  0.00    +0.000 A 
BRANCH  23  26
ATOM     26  N   UNL     1       3.724   4.448  18.324  0.00  0.00    +0.000 N 
ATOM     27  C   UNL     1       3.145   3.578  17.288  0.00  0.00    +0.000 C 
ATOM     28  C   UNL     1       2.625   2.267  17.894  0.00  0.00    +0.000 C 
ATOM     29  O   UNL     1       3.642   1.603  18.663  0.00  0.00    +0.000 OA
ATOM     30  C   UNL     1       4.082   2.452  19.737  0.00  0.00    +0.000 C 
ATOM     31  C   UNL     1       4.683   3.768  19.214  0.00  0.00    +0.000 C 
ENDBRANCH  23  26
ENDBRANCH   6  20
TORSDOF 3
ENDMDL
MODEL 8
REMARK VINA RESULT:      -8.7      2.134      3.782
REMARK  Name = 
REMARK  4 active torsions:
REMARK  status: ('A' for Active; 'I' for Inactive)
REMARK    1  A    between atoms: C_1  and  N_2
REMARK    2  A    between atoms: C_5  and  C_6
REMARK    3  A    between atoms: C_11  and  C_12
REMARK    4  A    between atoms: C_15  and  N_16
REMARK                            x       y       z     vdW  Elec       q    Type
REMARK                         _______ _______ _______ _____ _____    ______ ____
ROOT
ATOM      1  C   UNL     1       2.104   7.257  19.321  0.00  0.00    +0.000 A 
ATOM      2  C   UNL     1       2.285   7.957  18.108  0.00  0.00    +0.000 A 
ATOM      3  N   UNL     1       1.856   9.219  18.151  0.00  0.00    +0.000 NA
ATOM      4  N   UNL     1       1.360   9.356  19.403  0.00  0.00    +0.000 N 
ATOM      5  C   UNL     1       0.774  10.493  19.950  0.00  0.00    +0.000 A 
ATOM      6  C   UNL     1       0.317  10.481  21.210  0.00  0.00    +0.000 A 
ATOM      7  C   UNL     1       0.497   9.184  21.930  0.00  0.00    +0.000 A 
ATOM      8  N   UNL     1       1.040   8.105  21.449  0.00  0.00    +0.000 NA
ATOM      9  C   UNL     1       1.485   8.178  20.152  0.00  0.00    +0.000 A 
ENDROOT
BRANCH   1  14
ATOM     10  C   UNL     1       6.905   4.757  17.953  0.00  0.00    +0.000 C 
ATOM     11  N   UNL     1       5.607   4.719  18.581  0.00  0.00    +0.000 N 
ATOM     12  C   UNL     1       4.702   5.740  18.634  0.00  0.00    +0.000 A 
ATOM     13  C   UNL     1       3.632   5.244  19.335  0.00  0.00    +0.000 A 
ATOM     14  C   UNL     1       2.440   5.896  19.686  0.00  0.00    +0.000 A 
ATOM     15  C   UNL     1       1.599   5.050  20.450  0.00  0.00    +0.000 A 
ATOM     16  C   UNL     1       1.929   3.710  20.823  0.00  0.00    +0.000 A 
ATOM     17  C   UNL     1       3.136   3.081  20.462  0.00  0.00    +0.000 A 
ATOM     18  C   UNL     1       3.996   3.886  19.698  0.00  0.00    +0.000 A 
ATOM     19  N   UNL     1       5.211   3.594  19.204  0.00  0.00    +0.000 NA
ENDBRANCH   1  14
BRANCH   6  20
ATOM     20  C   UNL     1      -0.317  11.636  21.839  0.00  0.00    +0.000 A 
ATOM     21  C   UNL     1      -1.393  11.463  22.711  0.00  0.00    +0.000 A 
ATOM     22  C   UNL     1      -1.980  12.571  23.339  0.00  0.00    +0.000 A 
ATOM     23  C   UNL     1      -1.525  13.874  23.109  0.00  0.00    +0.000 A 
ATOM     24  C   UNL     1      -0.456  14.025  22.210  0.00  0.00    +0.000 A 
ATOM     25  C   UNL     1       0.147  12.927  21.586  0.00  0.00    +0.000 A 
BRANCH  23  26
ATOM     26  N   UNL     1      -2.053  14.978  23.753  0.00  0.00    +0.000 N 
ATOM     27  C   UNL     1      -1.781  16.356  23.316  0.00  0.00    +0.000 C 
ATOM     28  C   UNL     1      -0.879  17.086  24.321  0.00  0.00    +0.000 C 
ATOM     29  O   UNL     1      -1.419  17.030  25.652  0.00  0.00    +0.000 OA
ATOM     30  C   UNL     1      -1.548  15.661  26.074  0.00  0.00    +0.000 C 
ATOM     31  C   UNL     1      -2.493  14.867  25.156  0.00  0.00    +0.000 C 
ENDBRANCH  23  26
ENDBRANCH   6  20
TORSDOF 3
ENDMDL
MODEL 9
REMARK VINA RESULT:      -8.6      3.594     10.332
REMARK  Name = 
REMARK  4 active torsions:
REMARK  status: ('A' for Active; 'I' for Inactive)
REMARK    1  A    between atoms: C_1  and  N_2
REMARK    2  A    between atoms: C_5  and  C_6
REMARK    3  A    between atoms: C_11  and  C_12
REMARK    4  A    between atoms: C_15  and  N_16
REMARK                            x       y       z     vdW  Elec       q    Type
REMARK                         _______ _______ _______ _____ _____    ______ ____
ROOT
ATOM      1  C   UNL     1      -1.377  11.985  20.396  0.00  0.00    +0.000 A 
ATOM      2  C   UNL     1      -1.815  12.185  19.069  0.00  0.00    +0.000 A 
ATOM      3  N   UNL     1      -1.227  11.380  18.185  0.00  0.00    +0.000 NA
ATOM      4  N   UNL     1      -0.365  10.647  18.927  0.00  0.00    +0.000 N 
ATOM      5  C   UNL     1       0.506   9.664  18.469  0.00  0.00    +0.000 A 
ATOM      6  C   UNL     1       1.314   9.022  19.325  0.00  0.00    +0.000 A 
ATOM      7  C   UNL     1       1.183   9.449  20.752  0.00  0.00    +0.000 A 
ATOM      8  N   UNL     1       0.380  10.363  21.211  0.00  0.00    +0.000 NA
ATOM      9  C   UNL     1      -0.418  10.989  20.286  0.00  0.00    +0.000 A 
ENDROOT
BRANCH   1  14
ATOM     10  C   UNL     1       1.423  16.223  22.713  0.00  0.00    +0.000 C 
ATOM     11  N   UNL     1       0.329  15.282  22.735  0.00  0.00    +0.000 N 
ATOM     12  C   UNL     1       0.066  14.323  21.800  0.00  0.00    +0.000 A 
ATOM     13  C   UNL     1      -1.067  13.687  22.238  0.00  0.00    +0.000 A 
ATOM     14  C   UNL     1      -1.768  12.633  21.629  0.00  0.00    +0.000 A 
ATOM     15  C   UNL     1      -2.918  12.283  22.379  0.00  0.00    +0.000 A 
ATOM     16  C   UNL     1      -3.317  12.927  23.592  0.00  0.00    +0.000 A 
ATOM     17  C   UNL     1      -2.597  13.986  24.179  0.00  0.00    +0.000 A 
ATOM     18  C   UNL     1      -1.446  14.360  23.467  0.00  0.00    +0.000 A 
ATOM     19  N   UNL     1      -0.554  15.326  23.749  0.00  0.00    +0.000 NA
ENDBRANCH   1  14
BRANCH   6  20
ATOM     20  C   UNL     1       2.257   7.988  18.909  0.00  0.00    +0.000 A 
ATOM     21  C   UNL     1       2.402   6.821  19.660  0.00  0.00    +0.000 A 
ATOM     22  C   UNL     1       3.285   5.815  19.242  0.00  0.00    +0.000 A 
ATOM     23  C   UNL     1       4.054   5.948  18.080  0.00  0.00    +0.000 A 
ATOM     24  C   UNL     1       3.908   7.141  17.354  0.00  0.00    +0.000 A 
ATOM     25  C   UNL     1       3.021   8.148  17.753  0.00  0.00    +0.000 A 
BRANCH  23  26
ATOM     26  N   UNL     1       4.895   4.951  17.619  0.00  0.00    +0.000 N 
ATOM     27  C   UNL     1       6.063   4.484  18.382  0.00  0.00    +0.000 C 
ATOM     28  C   UNL     1       7.372   4.920  17.708  0.00  0.00    +0.000 C 
ATOM     29  O   UNL     1       7.417   4.512  16.331  0.00  0.00    +0.000 OA
ATOM     30  C   UNL     1       6.322   5.097  15.606  0.00  0.00    +0.000 C 
ATOM     31  C   UNL     1       4.961   4.658  16.175  0.00  0.00    +0.000 C 
ENDBRANCH  23  26
ENDBRANCH   6  20
TORSDOF 3
ENDMDL
