MODEL 1
REMARK VINA RESULT:      -7.5      0.000      0.000
REMARK  Name = 
REMARK  12 active torsions:
REMARK  status: ('A' for Active; 'I' for Inactive)
REMARK    1  A    between atoms: C_4  and  C_5
REMARK    2  A    between atoms: C_5  and  C_6
REMARK    3  A    between atoms: C_6  and  C_7
REMARK    4  A    between atoms: C_7  and  C_8
REMARK    5  A    between atoms: C_8  and  N_9
REMARK    6  A    between atoms: C_12  and  C_13
REMARK    7  A    between atoms: C_16  and  O_17
REMARK    8  A    between atoms: O_17  and  C_18
REMARK    9  A    between atoms: C_18  and  C_19
REMARK   10  A    between atoms: C_19  and  C_20
REMARK   11  A    between atoms: C_20  and  C_21
REMARK   12  A    between atoms: C_21  and  C_22
REMARK                            x       y       z     vdW  Elec       q    Type
REMARK                         _______ _______ _______ _____ _____    ______ ____
ROOT
ATOM      1  C   UNL     1       6.519   5.939  18.014  0.00  0.00    +0.000 A 
ATOM      2  C   UNL     1       6.129   6.982  17.170  0.00  0.00    +0.000 A 
ATOM      3  C   UNL     1       6.853   8.173  17.136  0.00  0.00    +0.000 A 
ATOM      4  C   UNL     1       7.980   8.343  17.944  0.00  0.00    +0.000 A 
ATOM      5  C   UNL     1       8.387   7.299  18.775  0.00  0.00    +0.000 A 
ATOM      6  C   UNL     1       7.661   6.104  18.812  0.00  0.00    +0.000 A 
ENDROOT
BRANCH   1  10
ATOM      7  N   UNL     1       4.679   3.068  18.696  0.00  0.00    +0.000 N 
ATOM      8  N   UNL     1       4.558   3.036  17.360  0.00  0.00    +0.000 NA
ATOM      9  N   UNL     1       5.241   4.090  16.943  0.00  0.00    +0.000 NA
ATOM     10  C   UNL     1       5.734   4.719  18.067  0.00  0.00    +0.000 A 
ATOM     11  N   UNL     1       5.386   4.089  19.201  0.00  0.00    +0.000 NA
BRANCH   7  12
ATOM     12  C   UNL     1       4.110   2.050  19.545  0.00  0.00    +0.000 C 
BRANCH  12  13
ATOM     13  C   UNL     1       2.836   1.422  18.982  0.00  0.00    +0.000 C 
BRANCH  13  14
ATOM     14  C   UNL     1       1.554   2.094  19.486  0.00  0.00    +0.000 C 
BRANCH  14  15
ATOM     15  C   UNL     1       1.093   3.173  18.503  0.00  0.00    +0.000 C 
BRANCH  15  19
ATOM     16  C   UNL     1       2.432   7.116  19.621  0.00  0.00    +0.000 A 
ATOM     17  C   UNL     1       2.516   6.700  18.295  0.00  0.00    +0.000 A 
ATOM     18  C   UNL     1       2.088   5.422  17.934  0.00  0.00    +0.000 A 
ATOM     19  C   UNL     1       1.564   4.549  18.897  0.00  0.00    +0.000 A 
ATOM     20  C   UNL     1       1.493   4.972  20.231  0.00  0.00    +0.000 A 
ATOM     21  C   UNL     1       1.923   6.252  20.590  0.00  0.00    +0.000 A 
ENDBRANCH  15  19
ENDBRANCH  14  15
ENDBRANCH  13  14
ENDBRANCH  12  13
ENDBRANCH   7  12
ENDBRANCH   1  10
BRANCH   4  22
ATOM     22  O   UNL     1       8.747   9.479  17.993  0.00  0.00    +0.000 OA
BRANCH  22  23
ATOM     23  C   UNL     1       9.100   9.914  19.309  0.00  0.00    +0.000 C 
BRANCH  23  24
ATOM     24  C   UNL     1      10.142  11.022  19.234  0.00  0.00    +0.000 C 
BRANCH  24  25
ATOM     25  C   UNL     1      10.348  11.598  17.827  0.00  0.00    +0.000 C 
BRANCH  25  26
ATOM     26  C   UNL     1      10.388  13.127  17.740  0.00  0.00    +0.000 C 
BRANCH  26  27
ATOM     27  C   UNL     1       9.037  13.734  17.670  0.00  0.00    +0.000 A 
ATOM     28  N   UNL     1       7.875  13.123  17.564  0.00  0.00    +0.000 NA
ATOM     29  N   UNL     1       6.924  14.116  17.544  0.00  0.00    +0.000 NA
ATOM     30  N   UNL     1       7.485  15.314  17.635  0.00  0.00    +0.000 NA
ATOM     31  N   UNL     1       8.800  15.079  17.708  0.00  0.00    +0.000 N 
ATOM     32  H   UNL     1       9.447  15.854  17.783  0.00  0.00    +0.000 HD
ENDBRANCH  26  27
ENDBRANCH  25  26
ENDBRANCH  24  25
ENDBRANCH  23  24
ENDBRANCH  22  23
ENDBRANCH   4  22
TORSDOF 12
ENDMDL
MODEL 2
REMARK VINA RESULT:      -7.1      5.407      8.450
REMARK  Name = 
REMARK  12 active torsions:
REMARK  status: ('A' for Active; 'I' for Inactive)
REMARK    1  A    between atoms: C_4  and  C_5
REMARK    2  A    between atoms: C_5  and  C_6
REMARK    3  A    between atoms: C_6  and  C_7
REMARK    4  A    between atoms: C_7  and  C_8
REMARK    5  A    between atoms: C_8  and  N_9
REMARK    6  A    between atoms: C_12  and  C_13
REMARK    7  A    between atoms: C_16  and  O_17
REMARK    8  A    between atoms: O_17  and  C_18
REMARK    9  A    between atoms: C_18  and  C_19
REMARK   10  A    between atoms: C_19  and  C_20
REMARK   11  A    between atoms: C_20  and  C_21
REMARK   12  A    between atoms: C_21  and  C_22
REMARK                            x       y       z     vdW  Elec       q    Type
REMARK                         _______ _______ _______ _____ _____    ______ ____
ROOT
ATOM      1  C   UNL     1       1.371   8.919  20.075  0.00  0.00    +0.000 A 
ATOM      2  C   UNL     1       1.536   7.681  20.702  0.00  0.00    +0.000 A 
ATOM      3  C   UNL     1       2.129   6.618  20.022  0.00  0.00    +0.000 A 
ATOM      4  C   UNL     1       2.569   6.773  18.705  0.00  0.00    +0.000 A 
ATOM      5  C   UNL     1       2.426   8.012  18.079  0.00  0.00    +0.000 A 
ATOM      6  C   UNL     1       1.830   9.079  18.759  0.00  0.00    +0.000 A 
ENDROOT
BRANCH   1  10
ATOM      7  N   UNL     1      -0.624  11.175  21.815  0.00  0.00    +0.000 N 
ATOM      8  N   UNL     1       0.473  11.943  21.733  0.00  0.00    +0.000 NA
ATOM      9  N   UNL     1       1.342  11.205  21.063  0.00  0.00    +0.000 NA
ATOM     10  C   UNL     1       0.719  10.007  20.782  0.00  0.00    +0.000 A 
ATOM     11  N   UNL     1      -0.537   9.959  21.255  0.00  0.00    +0.000 NA
BRANCH   7  12
ATOM     12  C   UNL     1      -1.841  11.634  22.439  0.00  0.00    +0.000 C 
BRANCH  12  13
ATOM     13  C   UNL     1      -2.390  12.926  21.838  0.00  0.00    +0.000 C 
BRANCH  13  14
ATOM     14  C   UNL     1      -2.273  12.983  20.310  0.00  0.00    +0.000 C 
BRANCH  14  15
ATOM     15  C   UNL     1      -3.532  12.409  19.656  0.00  0.00    +0.000 C 
BRANCH  15  19
ATOM     16  C   UNL     1      -2.629   9.977  16.211  0.00  0.00    +0.000 A 
ATOM     17  C   UNL     1      -3.820  10.696  16.265  0.00  0.00    +0.000 A 
ATOM     18  C   UNL     1      -4.114  11.479  17.382  0.00  0.00    +0.000 A 
ATOM     19  C   UNL     1      -3.216  11.555  18.455  0.00  0.00    +0.000 A 
ATOM     20  C   UNL     1      -2.025  10.819  18.397  0.00  0.00    +0.000 A 
ATOM     21  C   UNL     1      -1.732  10.035  17.277  0.00  0.00    +0.000 A 
ENDBRANCH  15  19
ENDBRANCH  14  15
ENDBRANCH  13  14
ENDBRANCH  12  13
ENDBRANCH   7  12
ENDBRANCH   1  10
BRANCH   4  22
ATOM     22  O   UNL     1       3.149   5.786  17.949  0.00  0.00    +0.000 OA
BRANCH  22  23
ATOM     23  C   UNL     1       3.883   4.809  18.693  0.00  0.00    +0.000 C 
BRANCH  23  24
ATOM     24  C   UNL     1       5.025   5.475  19.450  0.00  0.00    +0.000 C 
BRANCH  24  25
ATOM     25  C   UNL     1       6.421   5.124  18.917  0.00  0.00    +0.000 C 
BRANCH  25  26
ATOM     26  C   UNL     1       7.074   6.190  18.031  0.00  0.00    +0.000 C 
BRANCH  26  27
ATOM     27  C   UNL     1       6.787   5.995  16.590  0.00  0.00    +0.000 A 
ATOM     28  N   UNL     1       7.548   5.425  15.679  0.00  0.00    +0.000 NA
ATOM     29  N   UNL     1       6.840   5.482  14.502  0.00  0.00    +0.000 NA
ATOM     30  N   UNL     1       5.667   6.074  14.680  0.00  0.00    +0.000 NA
ATOM     31  N   UNL     1       5.634   6.398  15.978  0.00  0.00    +0.000 N 
ATOM     32  H   UNL     1       4.823   6.871  16.358  0.00  0.00    +0.000 HD
ENDBRANCH  26  27
ENDBRANCH  25  26
ENDBRANCH  24  25
ENDBRANCH  23  24
ENDBRANCH  22  23
ENDBRANCH   4  22
TORSDOF 12
ENDMDL
MODEL 3
REMARK VINA RESULT:      -7.1      6.424      8.557
REMARK  Name = 
REMARK  12 active torsions:
REMARK  status: ('A' for Active; 'I' for Inactive)
REMARK    1  A    between atoms: C_4  and  C_5
REMARK    2  A    between atoms: C_5  and  C_6
REMARK    3  A    between atoms: C_6  and  C_7
REMARK    4  A    between atoms: C_7  and  C_8
REMARK    5  A    between atoms: C_8  and  N_9
REMARK    6  A    between atoms: C_12  and  C_13
REMARK    7  A    between atoms: C_16  and  O_17
REMARK    8  A    between atoms: O_17  and  C_18
REMARK    9  A    between atoms: C_18  and  C_19
REMARK   10  A    between atoms: C_19  and  C_20
REMARK   11  A    between atoms: C_20  and  C_21
REMARK   12  A    between atoms: C_21  and  C_22
REMARK                            x       y       z     vdW  Elec       q    Type
REMARK                         _______ _______ _______ _____ _____    ______ ____
ROOT
ATOM      1  C   UNL     1       2.025   8.037  19.209  0.00  0.00    +0.000 A 
ATOM      2  C   UNL     1       1.510   7.982  20.507  0.00  0.00    +0.000 A 
ATOM      3  C   UNL     1       0.535   8.888  20.920  0.00  0.00    +0.000 A 
ATOM      4  C   UNL     1       0.056   9.864  20.044  0.00  0.00    +0.000 A 
ATOM      5  C   UNL     1       0.549   9.913  18.740  0.00  0.00    +0.000 A 
ATOM      6  C   UNL     1       1.529   9.006  18.324  0.00  0.00    +0.000 A 
ENDROOT
BRANCH   1  10
ATOM      7  N   UNL     1       4.456   6.039  17.727  0.00  0.00    +0.000 N 
ATOM      8  N   UNL     1       4.618   5.603  18.985  0.00  0.00    +0.000 NA
ATOM      9  N   UNL     1       3.723   6.280  19.686  0.00  0.00    +0.000 NA
ATOM     10  C   UNL     1       3.067   7.111  18.803  0.00  0.00    +0.000 A 
ATOM     11  N   UNL     1       3.518   6.981  17.545  0.00  0.00    +0.000 NA
BRANCH   7  12
ATOM     12  C   UNL     1       5.219   5.509  16.624  0.00  0.00    +0.000 C 
BRANCH  12  13
ATOM     13  C   UNL     1       4.637   4.226  16.034  0.00  0.00    +0.000 C 
BRANCH  13  14
ATOM     14  C   UNL     1       4.365   3.144  17.085  0.00  0.00    +0.000 C 
BRANCH  14  15
ATOM     15  C   UNL     1       2.859   2.925  17.251  0.00  0.00    +0.000 C 
BRANCH  15  19
ATOM     16  C   UNL     1       1.575   3.448  21.333  0.00  0.00    +0.000 A 
ATOM     17  C   UNL     1       2.695   2.671  21.048  0.00  0.00    +0.000 A 
ATOM     18  C   UNL     1       3.107   2.498  19.726  0.00  0.00    +0.000 A 
ATOM     19  C   UNL     1       2.406   3.106  18.676  0.00  0.00    +0.000 A 
ATOM     20  C   UNL     1       1.273   3.876  18.972  0.00  0.00    +0.000 A 
ATOM     21  C   UNL     1       0.862   4.048  20.297  0.00  0.00    +0.000 A 
ENDBRANCH  15  19
ENDBRANCH  14  15
ENDBRANCH  13  14
ENDBRANCH  12  13
ENDBRANCH   7  12
ENDBRANCH   1  10
BRANCH   4  22
ATOM     22  O   UNL     1      -0.890  10.807  20.360  0.00  0.00    +0.000 OA
BRANCH  22  23
ATOM     23  C   UNL     1      -0.435  12.162  20.301  0.00  0.00    +0.000 C 
BRANCH  23  24
ATOM     24  C   UNL     1      -1.068  12.978  21.420  0.00  0.00    +0.000 C 
BRANCH  24  25
ATOM     25  C   UNL     1      -1.855  12.143  22.439  0.00  0.00    +0.000 C 
BRANCH  25  26
ATOM     26  C   UNL     1      -2.596  12.944  23.515  0.00  0.00    +0.000 C 
BRANCH  26  27
ATOM     27  C   UNL     1      -4.041  12.617  23.581  0.00  0.00    +0.000 A 
ATOM     28  N   UNL     1      -4.918  12.607  22.600  0.00  0.00    +0.000 NA
ATOM     29  N   UNL     1      -6.115  12.236  23.164  0.00  0.00    +0.000 NA
ATOM     30  N   UNL     1      -5.982  12.022  24.465  0.00  0.00    +0.000 NA
ATOM     31  N   UNL     1      -4.692  12.263  24.728  0.00  0.00    +0.000 N 
ATOM     32  H   UNL     1      -4.345  12.167  25.674  0.00  0.00    +0.000 HD
ENDBRANCH  26  27
ENDBRANCH  25  26
ENDBRANCH  24  25
ENDBRANCH  23  24
ENDBRANCH  22  23
ENDBRANCH   4  22
TORSDOF 12
ENDMDL
MODEL 4
REMARK VINA RESULT:      -7.1      5.917      9.863
REMARK  Name = 
REMARK  12 active torsions:
REMARK  status: ('A' for Active; 'I' for Inactive)
REMARK    1  A    between atoms: C_4  and  C_5
REMARK    2  A    between atoms: C_5  and  C_6
REMARK    3  A    between atoms: C_6  and  C_7
REMARK    4  A    between atoms: C_7  and  C_8
REMARK    5  A    between atoms: C_8  and  N_9
REMARK    6  A    between atoms: C_12  and  C_13
REMARK    7  A    between atoms: C_16  and  O_17
REMARK    8  A    between atoms: O_17  and  C_18
REMARK    9  A    between atoms: C_18  and  C_19
REMARK   10  A    between atoms: C_19  and  C_20
REMARK   11  A    between atoms: C_20  and  C_21
REMARK   12  A    between atoms: C_21  and  C_22
REMARK                            x       y       z     vdW  Elec       q    Type
REMARK                         _______ _______ _______ _____ _____    ______ ____
ROOT
ATOM      1  C   UNL     1       2.424   7.842  18.711  0.00  0.00    +0.000 A 
ATOM      2  C   UNL     1       2.617   6.786  19.606  0.00  0.00    +0.000 A 
ATOM      3  C   UNL     1       3.551   5.788  19.331  0.00  0.00    +0.000 A 
ATOM      4  C   UNL     1       4.309   5.828  18.158  0.00  0.00    +0.000 A 
ATOM      5  C   UNL     1       4.136   6.888  17.269  0.00  0.00    +0.000 A 
ATOM      6  C   UNL     1       3.198   7.890  17.542  0.00  0.00    +0.000 A 
ENDROOT
BRANCH   1  10
ATOM      7  N   UNL     1       0.081  10.112  19.915  0.00  0.00    +0.000 N 
ATOM      8  N   UNL     1       0.043  10.492  18.630  0.00  0.00    +0.000 NA
ATOM      9  N   UNL     1       0.897   9.684  18.022  0.00  0.00    +0.000 NA
ATOM     10  C   UNL     1       1.422   8.855  18.991  0.00  0.00    +0.000 A 
ATOM     11  N   UNL     1       0.922   9.110  20.211  0.00  0.00    +0.000 NA
BRANCH   7  12
ATOM     12  C   UNL     1      -0.753  10.721  20.923  0.00  0.00    +0.000 C 
BRANCH  12  13
ATOM     13  C   UNL     1      -0.075  11.866  21.673  0.00  0.00    +0.000 C 
BRANCH  13  14
ATOM     14  C   UNL     1      -1.056  12.942  22.153  0.00  0.00    +0.000 C 
BRANCH  14  15
ATOM     15  C   UNL     1      -2.400  12.801  21.436  0.00  0.00    +0.000 C 
BRANCH  15  19
ATOM     16  C   UNL     1      -5.730  12.671  24.171  0.00  0.00    +0.000 A 
ATOM     17  C   UNL     1      -5.942  12.969  22.828  0.00  0.00    +0.000 A 
ATOM     18  C   UNL     1      -4.863  13.016  21.943  0.00  0.00    +0.000 A 
ATOM     19  C   UNL     1      -3.561  12.759  22.395  0.00  0.00    +0.000 A 
ATOM     20  C   UNL     1      -3.357  12.472  23.751  0.00  0.00    +0.000 A 
ATOM     21  C   UNL     1      -4.438  12.425  24.635  0.00  0.00    +0.000 A 
ENDBRANCH  15  19
ENDBRANCH  14  15
ENDBRANCH  13  14
ENDBRANCH  12  13
ENDBRANCH   7  12
ENDBRANCH   1  10
BRANCH   4  22
ATOM     22  O   UNL     1       5.239   4.887  17.793  0.00  0.00    +0.000 OA
BRANCH  22  23
ATOM     23  C   UNL     1       4.714   3.578  17.556  0.00  0.00    +0.000 C 
BRANCH  23  24
ATOM     24  C   UNL     1       3.262   3.669  17.105  0.00  0.00    +0.000 C 
BRANCH  24  25
ATOM     25  C   UNL     1       2.373   2.526  17.612  0.00  0.00    +0.000 C 
BRANCH  25  26
ATOM     26  C   UNL     1       1.276   2.933  18.600  0.00  0.00    +0.000 C 
BRANCH  26  27
ATOM     27  C   UNL     1       1.691   2.780  20.015  0.00  0.00    +0.000 A 
ATOM     28  N   UNL     1       2.898   2.549  20.488  0.00  0.00    +0.000 NA
ATOM     29  N   UNL     1       2.767   2.499  21.855  0.00  0.00    +0.000 NA
ATOM     30  N   UNL     1       1.508   2.694  22.220  0.00  0.00    +0.000 NA
ATOM     31  N   UNL     1       0.836   2.866  21.076  0.00  0.00    +0.000 N 
ATOM     32  H   UNL     1      -0.163   3.031  21.099  0.00  0.00    +0.000 HD
ENDBRANCH  26  27
ENDBRANCH  25  26
ENDBRANCH  24  25
ENDBRANCH  23  24
ENDBRANCH  22  23
ENDBRANCH   4  22
TORSDOF 12
ENDMDL
MODEL 5
REMARK VINA RESULT:      -7.0      5.605      8.847
REMARK  Name = 
REMARK  12 active torsions:
REMARK  status: ('A' for Active; 'I' for Inactive)
REMARK    1  A    between atoms: C_4  and  C_5
REMARK    2  A    between atoms: C_5  and  C_6
REMARK    3  A    between atoms: C_6  and  C_7
REMARK    4  A    between atoms: C_7  and  C_8
REMARK    5  A    between atoms: C_8  and  N_9
REMARK    6  A    between atoms: C_12  and  C_13
REMARK    7  A    between atoms: C_16  and  O_17
REMARK    8  A    between atoms: O_17  and  C_18
REMARK    9  A    between atoms: C_18  and  C_19
REMARK   10  A    between atoms: C_19  and  C_20
REMARK   11  A    between atoms: C_20  and  C_21
REMARK   12  A    between atoms: C_21  and  C_22
REMARK                            x       y       z     vdW  Elec       q    Type
REMARK                         _______ _______ _______ _____ _____    ______ ____
ROOT
ATOM      1  C   UNL     1       1.054   9.086  20.719  0.00  0.00    +0.000 A 
ATOM      2  C   UNL     1       1.305   7.844  21.308  0.00  0.00    +0.000 A 
ATOM      3  C   UNL     1       1.920   6.827  20.580  0.00  0.00    +0.000 A 
ATOM      4  C   UNL     1       2.296   7.033  19.251  0.00  0.00    +0.000 A 
ATOM      5  C   UNL     1       2.068   8.276  18.661  0.00  0.00    +0.000 A 
ATOM      6  C   UNL     1       1.449   9.297  19.390  0.00  0.00    +0.000 A 
ENDROOT
BRANCH   1  10
ATOM      7  N   UNL     1      -0.376  11.920  22.139  0.00  0.00    +0.000 N 
ATOM      8  N   UNL     1      -0.859  11.027  23.015  0.00  0.00    +0.000 NA
ATOM      9  N   UNL     1      -0.374   9.867  22.604  0.00  0.00    +0.000 NA
ATOM     10  C   UNL     1       0.379  10.124  21.477  0.00  0.00    +0.000 A 
ATOM     11  N   UNL     1       0.390  11.428  21.155  0.00  0.00    +0.000 NA
BRANCH   7  12
ATOM     12  C   UNL     1      -0.634  13.334  22.260  0.00  0.00    +0.000 C 
BRANCH  12  13
ATOM     13  C   UNL     1      -1.848  13.807  21.463  0.00  0.00    +0.000 C 
BRANCH  13  14
ATOM     14  C   UNL     1      -1.874  13.277  20.024  0.00  0.00    +0.000 C 
BRANCH  14  15
ATOM     15  C   UNL     1      -3.072  12.348  19.818  0.00  0.00    +0.000 C 
BRANCH  15  19
ATOM     16  C   UNL     1      -2.716   9.969  16.240  0.00  0.00    +0.000 A 
ATOM     17  C   UNL     1      -1.718   9.925  17.209  0.00  0.00    +0.000 A 
ATOM     18  C   UNL     1      -1.831  10.699  18.365  0.00  0.00    +0.000 A 
ATOM     19  C   UNL     1      -2.948  11.521  18.564  0.00  0.00    +0.000 A 
ATOM     20  C   UNL     1      -3.942  11.567  17.578  0.00  0.00    +0.000 A 
ATOM     21  C   UNL     1      -3.827  10.791  16.421  0.00  0.00    +0.000 A 
ENDBRANCH  15  19
ENDBRANCH  14  15
ENDBRANCH  13  14
ENDBRANCH  12  13
ENDBRANCH   7  12
ENDBRANCH   1  10
BRANCH   4  22
ATOM     22  O   UNL     1       2.893   6.093  18.449  0.00  0.00    +0.000 OA
BRANCH  22  23
ATOM     23  C   UNL     1       3.616   5.075  19.147  0.00  0.00    +0.000 C 
BRANCH  23  24
ATOM     24  C   UNL     1       3.663   3.800  18.316  0.00  0.00    +0.000 C 
BRANCH  24  25
ATOM     25  C   UNL     1       3.833   4.037  16.810  0.00  0.00    +0.000 C 
BRANCH  25  26
ATOM     26  C   UNL     1       5.265   3.909  16.281  0.00  0.00    +0.000 C 
BRANCH  26  27
ATOM     27  C   UNL     1       6.054   5.153  16.450  0.00  0.00    +0.000 A 
ATOM     28  N   UNL     1       7.362   5.284  16.517  0.00  0.00    +0.000 NA
ATOM     29  N   UNL     1       7.603   6.629  16.668  0.00  0.00    +0.000 NA
ATOM     30  N   UNL     1       6.469   7.315  16.694  0.00  0.00    +0.000 NA
ATOM     31  N   UNL     1       5.503   6.398  16.562  0.00  0.00    +0.000 N 
ATOM     32  H   UNL     1       4.533   6.687  16.556  0.00  0.00    +0.000 HD
ENDBRANCH  26  27
ENDBRANCH  25  26
ENDBRANCH  24  25
ENDBRANCH  23  24
ENDBRANCH  22  23
ENDBRANCH   4  22
TORSDOF 12
ENDMDL
MODEL 6
REMARK VINA RESULT:      -7.0      6.279      8.376
REMARK  Name = 
REMARK  12 active torsions:
REMARK  status: ('A' for Active; 'I' for Inactive)
REMARK    1  A    between atoms: C_4  and  C_5
REMARK    2  A    between atoms: C_5  and  C_6
REMARK    3  A    between atoms: C_6  and  C_7
REMARK    4  A    between atoms: C_7  and  C_8
REMARK    5  A    between atoms: C_8  and  N_9
REMARK    6  A    between atoms: C_12  and  C_13
REMARK    7  A    between atoms: C_16  and  O_17
REMARK    8  A    between atoms: O_17  and  C_18
REMARK    9  A    between atoms: C_18  and  C_19
REMARK   10  A    between atoms: C_19  and  C_20
REMARK   11  A    between atoms: C_20  and  C_21
REMARK   12  A    between atoms: C_21  and  C_22
REMARK                            x       y       z     vdW  Elec       q    Type
REMARK                         _______ _______ _______ _____ _____    ______ ____
ROOT
ATOM      1  C   UNL     1       2.201   7.912  19.200  0.00  0.00    +0.000 A 
ATOM      2  C   UNL     1       1.779   8.880  18.285  0.00  0.00    +0.000 A 
ATOM      3  C   UNL     1       0.805   9.812  18.641  0.00  0.00    +0.000 A 
ATOM      4  C   UNL     1       0.237   9.794  19.917  0.00  0.00    +0.000 A 
ATOM      5  C   UNL     1       0.667   8.844  20.843  0.00  0.00    +0.000 A 
ATOM      6  C   UNL     1       1.643   7.906  20.487  0.00  0.00    +0.000 A 
ENDROOT
BRANCH   1  10
ATOM      7  N   UNL     1       4.479   5.731  17.734  0.00  0.00    +0.000 N 
ATOM      8  N   UNL     1       4.700   5.379  19.009  0.00  0.00    +0.000 NA
ATOM      9  N   UNL     1       3.868   6.134  19.708  0.00  0.00    +0.000 NA
ATOM     10  C   UNL     1       3.188   6.924  18.805  0.00  0.00    +0.000 A 
ATOM     11  N   UNL     1       3.562   6.690  17.537  0.00  0.00    +0.000 NA
BRANCH   7  12
ATOM     12  C   UNL     1       5.160   5.099  16.631  0.00  0.00    +0.000 C 
BRANCH  12  13
ATOM     13  C   UNL     1       4.694   3.670  16.359  0.00  0.00    +0.000 C 
BRANCH  13  14
ATOM     14  C   UNL     1       3.230   3.425  16.742  0.00  0.00    +0.000 C 
BRANCH  14  15
ATOM     15  C   UNL     1       3.126   2.281  17.753  0.00  0.00    +0.000 C 
BRANCH  15  19
ATOM     16  C   UNL     1       1.654   3.606  21.583  0.00  0.00    +0.000 A 
ATOM     17  C   UNL     1       2.788   2.800  21.512  0.00  0.00    +0.000 A 
ATOM     18  C   UNL     1       3.261   2.367  20.272  0.00  0.00    +0.000 A 
ATOM     19  C   UNL     1       2.607   2.742  19.091  0.00  0.00    +0.000 A 
ATOM     20  C   UNL     1       1.460   3.543  19.173  0.00  0.00    +0.000 A 
ATOM     21  C   UNL     1       0.988   3.975  20.416  0.00  0.00    +0.000 A 
ENDBRANCH  15  19
ENDBRANCH  14  15
ENDBRANCH  13  14
ENDBRANCH  12  13
ENDBRANCH   7  12
ENDBRANCH   1  10
BRANCH   4  22
ATOM     22  O   UNL     1      -0.735  10.658  20.356  0.00  0.00    +0.000 OA
BRANCH  22  23
ATOM     23  C   UNL     1      -0.358  12.037  20.365  0.00  0.00    +0.000 C 
BRANCH  23  24
ATOM     24  C   UNL     1      -1.509  12.900  19.863  0.00  0.00    +0.000 C 
BRANCH  24  25
ATOM     25  C   UNL     1      -2.803  12.755  20.673  0.00  0.00    +0.000 C 
BRANCH  25  26
ATOM     26  C   UNL     1      -2.643  12.860  22.193  0.00  0.00    +0.000 C 
BRANCH  26  27
ATOM     27  C   UNL     1      -3.897  12.559  22.926  0.00  0.00    +0.000 A 
ATOM     28  N   UNL     1      -5.121  12.483  22.446  0.00  0.00    +0.000 NA
ATOM     29  N   UNL     1      -5.929  12.173  23.514  0.00  0.00    +0.000 NA
ATOM     30  N   UNL     1      -5.222  12.060  24.629  0.00  0.00    +0.000 NA
ATOM     31  N   UNL     1      -3.957  12.304  24.266  0.00  0.00    +0.000 N 
ATOM     32  H   UNL     1      -3.220  12.278  24.960  0.00  0.00    +0.000 HD
ENDBRANCH  26  27
ENDBRANCH  25  26
ENDBRANCH  24  25
ENDBRANCH  23  24
ENDBRANCH  22  23
ENDBRANCH   4  22
TORSDOF 12
ENDMDL
MODEL 7
REMARK VINA RESULT:      -7.0      5.579      9.637
REMARK  Name = 
REMARK  12 active torsions:
REMARK  status: ('A' for Active; 'I' for Inactive)
REMARK    1  A    between atoms: C_4  and  C_5
REMARK    2  A    between atoms: C_5  and  C_6
REMARK    3  A    between atoms: C_6  and  C_7
REMARK    4  A    between atoms: C_7  and  C_8
REMARK    5  A    between atoms: C_8  and  N_9
REMARK    6  A    between atoms: C_12  and  C_13
REMARK    7  A    between atoms: C_16  and  O_17
REMARK    8  A    between atoms: O_17  and  C_18
REMARK    9  A    between atoms: C_18  and  C_19
REMARK   10  A    between atoms: C_19  and  C_20
REMARK   11  A    between atoms: C_20  and  C_21
REMARK   12  A    between atoms: C_21  and  C_22
REMARK                            x       y       z     vdW  Elec       q    Type
REMARK                         _______ _______ _______ _____ _____    ______ ____
ROOT
ATOM      1  C   UNL     1       1.321   9.592  19.681  0.00  0.00    +0.000 A 
ATOM      2  C   UNL     1       1.512   8.458  20.474  0.00  0.00    +0.000 A 
ATOM      3  C   UNL     1       2.065   7.299  19.932  0.00  0.00    +0.000 A 
ATOM      4  C   UNL     1       2.439   7.253  18.586  0.00  0.00    +0.000 A 
ATOM      5  C   UNL     1       2.270   8.387  17.792  0.00  0.00    +0.000 A 
ATOM      6  C   UNL     1       1.714   9.550  18.334  0.00  0.00    +0.000 A 
ENDROOT
BRANCH   1  10
ATOM      7  N   UNL     1      -0.334  12.531  20.526  0.00  0.00    +0.000 N 
ATOM      8  N   UNL     1       0.091  12.213  21.758  0.00  0.00    +0.000 NA
ATOM      9  N   UNL     1       0.772  11.091  21.592  0.00  0.00    +0.000 NA
ATOM     10  C   UNL     1       0.710  10.780  20.249  0.00  0.00    +0.000 A 
ATOM     11  N   UNL     1       0.006  11.681  19.546  0.00  0.00    +0.000 NA
BRANCH   7  12
ATOM     12  C   UNL     1      -1.086  13.732  20.258  0.00  0.00    +0.000 C 
BRANCH  12  13
ATOM     13  C   UNL     1      -2.559  13.635  20.649  0.00  0.00    +0.000 C 
BRANCH  13  14
ATOM     14  C   UNL     1      -3.172  12.257  20.371  0.00  0.00    +0.000 C 
BRANCH  14  15
ATOM     15  C   UNL     1      -4.116  12.323  19.169  0.00  0.00    +0.000 C 
BRANCH  15  19
ATOM     16  C   UNL     1      -2.739   9.914  15.869  0.00  0.00    +0.000 A 
ATOM     17  C   UNL     1      -2.089   9.849  17.100  0.00  0.00    +0.000 A 
ATOM     18  C   UNL     1      -2.532  10.633  18.166  0.00  0.00    +0.000 A 
ATOM     19  C   UNL     1      -3.634  11.485  18.013  0.00  0.00    +0.000 A 
ATOM     20  C   UNL     1      -4.274  11.552  16.768  0.00  0.00    +0.000 A 
ATOM     21  C   UNL     1      -3.828  10.766  15.702  0.00  0.00    +0.000 A 
ENDBRANCH  15  19
ENDBRANCH  14  15
ENDBRANCH  13  14
ENDBRANCH  12  13
ENDBRANCH   7  12
ENDBRANCH   1  10
BRANCH   4  22
ATOM     22  O   UNL     1       2.976   6.158  17.958  0.00  0.00    +0.000 OA
BRANCH  22  23
ATOM     23  C   UNL     1       4.404   6.078  18.001  0.00  0.00    +0.000 C 
BRANCH  23  24
ATOM     24  C   UNL     1       4.843   5.126  19.106  0.00  0.00    +0.000 C 
BRANCH  24  25
ATOM     25  C   UNL     1       5.057   3.680  18.642  0.00  0.00    +0.000 C 
BRANCH  25  26
ATOM     26  C   UNL     1       3.790   2.825  18.544  0.00  0.00    +0.000 C 
BRANCH  26  27
ATOM     27  C   UNL     1       2.825   3.101  19.635  0.00  0.00    +0.000 A 
ATOM     28  N   UNL     1       2.932   2.796  20.912  0.00  0.00    +0.000 NA
ATOM     29  N   UNL     1       1.788   3.267  21.512  0.00  0.00    +0.000 NA
ATOM     30  N   UNL     1       0.991   3.848  20.627  0.00  0.00    +0.000 NA
ATOM     31  N   UNL     1       1.632   3.742  19.457  0.00  0.00    +0.000 N 
ATOM     32  H   UNL     1       1.211   4.118  18.617  0.00  0.00    +0.000 HD
ENDBRANCH  26  27
ENDBRANCH  25  26
ENDBRANCH  24  25
ENDBRANCH  23  24
ENDBRANCH  22  23
ENDBRANCH   4  22
TORSDOF 12
ENDMDL
MODEL 8
REMARK VINA RESULT:      -7.0      5.230      8.156
REMARK  Name = 
REMARK  12 active torsions:
REMARK  status: ('A' for Active; 'I' for Inactive)
REMARK    1  A    between atoms: C_4  and  C_5
REMARK    2  A    between atoms: C_5  and  C_6
REMARK    3  A    between atoms: C_6  and  C_7
REMARK    4  A    between atoms: C_7  and  C_8
REMARK    5  A    between atoms: C_8  and  N_9
REMARK    6  A    between atoms: C_12  and  C_13
REMARK    7  A    between atoms: C_16  and  O_17
REMARK    8  A    between atoms: O_17  and  C_18
REMARK    9  A    between atoms: C_18  and  C_19
REMARK   10  A    between atoms: C_19  and  C_20
REMARK   11  A    between atoms: C_20  and  C_21
REMARK   12  A    between atoms: C_21  and  C_22
REMARK                            x       y       z     vdW  Elec       q    Type
REMARK                         _______ _______ _______ _____ _____    ______ ____
ROOT
ATOM      1  C   UNL     1       1.722   7.530  20.231  0.00  0.00    +0.000 A 
ATOM      2  C   UNL     1       2.289   7.440  18.957  0.00  0.00    +0.000 A 
ATOM      3  C   UNL     1       2.620   6.199  18.416  0.00  0.00    +0.000 A 
ATOM      4  C   UNL     1       2.389   5.025  19.138  0.00  0.00    +0.000 A 
ATOM      5  C   UNL     1       1.805   5.105  20.402  0.00  0.00    +0.000 A 
ATOM      6  C   UNL     1       1.474   6.350  20.947  0.00  0.00    +0.000 A 
ENDROOT
BRANCH   1  10
ATOM      7  N   UNL     1       1.068  10.841  21.071  0.00  0.00    +0.000 N 
ATOM      8  N   UNL     1       0.824  10.306  22.277  0.00  0.00    +0.000 NA
ATOM      9  N   UNL     1       1.054   9.013  22.116  0.00  0.00    +0.000 NA
ATOM     10  C   UNL     1       1.417   8.831  20.798  0.00  0.00    +0.000 A 
ATOM     11  N   UNL     1       1.430   9.982  20.106  0.00  0.00    +0.000 NA
BRANCH   7  12
ATOM     12  C   UNL     1       0.979  12.259  20.825  0.00  0.00    +0.000 C 
BRANCH  12  13
ATOM     13  C   UNL     1      -0.401  12.716  20.354  0.00  0.00    +0.000 C 
BRANCH  13  14
ATOM     14  C   UNL     1      -0.780  12.174  18.971  0.00  0.00    +0.000 C 
BRANCH  14  15
ATOM     15  C   UNL     1      -1.900  11.138  19.090  0.00  0.00    +0.000 C 
BRANCH  15  19
ATOM     16  C   UNL     1      -3.895  10.419  15.336  0.00  0.00    +0.000 A 
ATOM     17  C   UNL     1      -2.683   9.792  15.614  0.00  0.00    +0.000 A 
ATOM     18  C   UNL     1      -2.035  10.029  16.827  0.00  0.00    +0.000 A 
ATOM     19  C   UNL     1      -2.597  10.892  17.777  0.00  0.00    +0.000 A 
ATOM     20  C   UNL     1      -3.811  11.528  17.484  0.00  0.00    +0.000 A 
ATOM     21  C   UNL     1      -4.458  11.289  16.268  0.00  0.00    +0.000 A 
ENDBRANCH  15  19
ENDBRANCH  14  15
ENDBRANCH  13  14
ENDBRANCH  12  13
ENDBRANCH   7  12
ENDBRANCH   1  10
BRANCH   4  22
ATOM     22  O   UNL     1       2.692   3.761  18.699  0.00  0.00    +0.000 OA
BRANCH  22  23
ATOM     23  C   UNL     1       2.878   3.641  17.286  0.00  0.00    +0.000 C 
BRANCH  23  24
ATOM     24  C   UNL     1       4.330   3.305  16.973  0.00  0.00    +0.000 C 
BRANCH  24  25
ATOM     25  C   UNL     1       5.174   4.510  16.537  0.00  0.00    +0.000 C 
BRANCH  25  26
ATOM     26  C   UNL     1       6.643   4.476  16.970  0.00  0.00    +0.000 C 
BRANCH  26  27
ATOM     27  C   UNL     1       7.177   5.821  17.296  0.00  0.00    +0.000 A 
ATOM     28  N   UNL     1       7.155   6.907  16.553  0.00  0.00    +0.000 NA
ATOM     29  N   UNL     1       7.765   7.889  17.296  0.00  0.00    +0.000 NA
ATOM     30  N   UNL     1       8.156   7.421  18.473  0.00  0.00    +0.000 NA
ATOM     31  N   UNL     1       7.796   6.133  18.474  0.00  0.00    +0.000 N 
ATOM     32  H   UNL     1       7.995   5.555  19.280  0.00  0.00    +0.000 HD
ENDBRANCH  26  27
ENDBRANCH  25  26
ENDBRANCH  24  25
ENDBRANCH  23  24
ENDBRANCH  22  23
ENDBRANCH   4  22
TORSDOF 12
ENDMDL
MODEL 9
REMARK VINA RESULT:      -7.0      5.746      9.544
REMARK  Name = 
REMARK  12 active torsions:
REMARK  status: ('A' for Active; 'I' for Inactive)
REMARK    1  A    between atoms: C_4  and  C_5
REMARK    2  A    between atoms: C_5  and  C_6
REMARK    3  A    between atoms: C_6  and  C_7
REMARK    4  A    between atoms: C_7  and  C_8
REMARK    5  A    between atoms: C_8  and  N_9
REMARK    6  A    between atoms: C_12  and  C_13
REMARK    7  A    between atoms: C_16  and  O_17
REMARK    8  A    between atoms: O_17  and  C_18
REMARK    9  A    between atoms: C_18  and  C_19
REMARK   10  A    between atoms: C_19  and  C_20
REMARK   11  A    between atoms: C_20  and  C_21
REMARK   12  A    between atoms: C_21  and  C_22
REMARK                            x       y       z     vdW  Elec       q    Type
REMARK                         _______ _______ _______ _____ _____    ______ ____
ROOT
ATOM      1  C   UNL     1       0.678  10.427  19.751  0.00  0.00    +0.000 A 
ATOM      2  C   UNL     1       0.771   9.723  20.954  0.00  0.00    +0.000 A 
ATOM      3  C   UNL     1       1.384   8.471  20.995  0.00  0.00    +0.000 A 
ATOM      4  C   UNL     1       1.915   7.902  19.836  0.00  0.00    +0.000 A 
ATOM      5  C   UNL     1       1.844   8.608  18.634  0.00  0.00    +0.000 A 
ATOM      6  C   UNL     1       1.228   9.862  18.591  0.00  0.00    +0.000 A 
ENDROOT
BRANCH   1  10
ATOM      7  N   UNL     1      -1.128  13.369  20.170  0.00  0.00    +0.000 N 
ATOM      8  N   UNL     1      -0.575  13.674  18.987  0.00  0.00    +0.000 NA
ATOM      9  N   UNL     1       0.150  12.612  18.679  0.00  0.00    +0.000 NA
ATOM     10  C   UNL     1       0.004  11.713  19.715  0.00  0.00    +0.000 A 
ATOM     11  N   UNL     1      -0.803  12.174  20.683  0.00  0.00    +0.000 NA
BRANCH   7  12
ATOM     12  C   UNL     1      -2.044  14.257  20.844  0.00  0.00    +0.000 C 
BRANCH  12  13
ATOM     13  C   UNL     1      -3.514  13.950  20.566  0.00  0.00    +0.000 C 
BRANCH  13  14
ATOM     14  C   UNL     1      -3.791  12.459  20.341  0.00  0.00    +0.000 C 
BRANCH  14  15
ATOM     15  C   UNL     1      -4.674  12.258  19.107  0.00  0.00    +0.000 C 
BRANCH  15  19
ATOM     16  C   UNL     1      -2.669  10.052  15.992  0.00  0.00    +0.000 A 
ATOM     17  C   UNL     1      -3.709  10.922  15.673  0.00  0.00    +0.000 A 
ATOM     18  C   UNL     1      -4.361  11.632  16.682  0.00  0.00    +0.000 A 
ATOM     19  C   UNL     1      -3.975  11.482  18.021  0.00  0.00    +0.000 A 
ATOM     20  C   UNL     1      -2.935  10.596  18.333  0.00  0.00    +0.000 A 
ATOM     21  C   UNL     1      -2.283   9.886  17.321  0.00  0.00    +0.000 A 
ENDBRANCH  15  19
ENDBRANCH  14  15
ENDBRANCH  13  14
ENDBRANCH  12  13
ENDBRANCH   7  12
ENDBRANCH   1  10
BRANCH   4  22
ATOM     22  O   UNL     1       2.523   6.673  19.771  0.00  0.00    +0.000 OA
BRANCH  22  23
ATOM     23  C   UNL     1       3.078   6.340  18.496  0.00  0.00    +0.000 C 
BRANCH  23  24
ATOM     24  C   UNL     1       2.417   5.081  17.949  0.00  0.00    +0.000 C 
BRANCH  24  25
ATOM     25  C   UNL     1       3.364   3.881  17.816  0.00  0.00    +0.000 C 
BRANCH  25  26
ATOM     26  C   UNL     1       4.409   3.988  16.701  0.00  0.00    +0.000 C 
BRANCH  26  27
ATOM     27  C   UNL     1       5.784   4.190  17.220  0.00  0.00    +0.000 A 
ATOM     28  N   UNL     1       6.159   4.426  18.460  0.00  0.00    +0.000 NA
ATOM     29  N   UNL     1       7.529   4.530  18.429  0.00  0.00    +0.000 NA
ATOM     30  N   UNL     1       7.992   4.363  17.198  0.00  0.00    +0.000 NA
ATOM     31  N   UNL     1       6.907   4.155  16.443  0.00  0.00    +0.000 N 
ATOM     32  H   UNL     1       7.009   4.002  15.447  0.00  0.00    +0.000 HD
ENDBRANCH  26  27
ENDBRANCH  25  26
ENDBRANCH  24  25
ENDBRANCH  23  24
ENDBRANCH  22  23
ENDBRANCH   4  22
TORSDOF 12
ENDMDL
