MODEL 1
REMARK VINA RESULT:      -7.5      0.000      0.000
REMARK  Name = 
REMARK  3 active torsions:
REMARK  status: ('A' for Active; 'I' for Inactive)
REMARK    1  A    between atoms: S_2  and  N_4
REMARK    2  A    between atoms: S_2  and  C_11
REMARK    3  A    between atoms: N_4  and  C_5
REMARK                            x       y       z     vdW  Elec       q    Type
REMARK                         _______ _______ _______ _____ _____    ______ ____
ROOT
ATOM      1  O   UNL     1       4.362   5.594  19.116  0.00  0.00    +0.000 OA
ATOM      2  S   UNL     1       5.497   4.699  19.018  0.00  0.00    +0.000 S 
ATOM      3  O   UNL     1       6.713   4.931  19.762  0.00  0.00    +0.000 OA
ENDROOT
BRANCH   2   4
ATOM      4  C   UNL     1       5.905   4.590  17.287  0.00  0.00    +0.000 A 
ATOM      5  C   UNL     1       7.219   4.874  16.888  0.00  0.00    +0.000 A 
ATOM      6  C   UNL     1       7.534   4.888  15.530  0.00  0.00    +0.000 A 
ATOM      7  C   UNL     1       6.547   4.592  14.595  0.00  0.00    +0.000 A 
ATOM      8  F   UNL     1       6.849   4.625  13.290  0.00  0.00    +0.000 F 
ATOM      9  C   UNL     1       5.250   4.269  14.990  0.00  0.00    +0.000 A 
ATOM     10  C   UNL     1       4.921   4.266  16.346  0.00  0.00    +0.000 A 
ENDBRANCH   2   4
BRANCH   2  11
ATOM     11  N   UNL     1       4.916   3.139  19.356  0.00  0.00    +0.000 N 
ATOM     12  H   UNL     1       5.529   2.638  19.993  0.00  0.00    +0.000 HD
BRANCH  11  13
ATOM     13  C   UNL     1       3.516   2.980  19.555  0.00  0.00    +0.000 A 
ATOM     14  C   UNL     1       2.727   2.579  18.478  0.00  0.00    +0.000 A 
ATOM     15  C   UNL     1       1.347   2.453  18.636  0.00  0.00    +0.000 A 
ATOM     16  C   UNL     1       0.755   2.757  19.861  0.00  0.00    +0.000 A 
ATOM     17  C   UNL     1       1.543   3.169  20.935  0.00  0.00    +0.000 A 
ATOM     18  C   UNL     1       2.927   3.267  20.786  0.00  0.00    +0.000 A 
ENDBRANCH  11  13
ENDBRANCH   2  11
TORSDOF 3
ENDMDL
MODEL 2
REMARK VINA RESULT:      -7.5      0.544      1.189
REMARK  Name = 
REMARK  3 active torsions:
REMARK  status: ('A' for Active; 'I' for Inactive)
REMARK    1  A    between atoms: S_2  and  N_4
REMARK    2  A    between atoms: S_2  and  C_11
REMARK    3  A    between atoms: N_4  and  C_5
REMARK                            x       y       z     vdW  Elec       q    Type
REMARK                         _______ _______ _______ _____ _____    ______ ____
ROOT
ATOM      1  O   UNL     1       4.344   5.767  19.346  0.00  0.00    +0.000 OA
ATOM      2  S   UNL     1       5.537   4.963  19.182  0.00  0.00    +0.000 S 
ATOM      3  O   UNL     1       6.739   5.225  19.939  0.00  0.00    +0.000 OA
ENDROOT
BRANCH   2   4
ATOM      4  C   UNL     1       5.941   5.008  17.447  0.00  0.00    +0.000 A 
ATOM      5  C   UNL     1       4.972   5.473  16.545  0.00  0.00    +0.000 A 
ATOM      6  C   UNL     1       5.234   5.426  15.176  0.00  0.00    +0.000 A 
ATOM      7  C   UNL     1       6.462   4.946  14.729  0.00  0.00    +0.000 A 
ATOM      8  F   UNL     1       6.702   4.885  13.414  0.00  0.00    +0.000 F 
ATOM      9  C   UNL     1       7.442   4.523  15.625  0.00  0.00    +0.000 A 
ATOM     10  C   UNL     1       7.184   4.553  16.997  0.00  0.00    +0.000 A 
ENDBRANCH   2   4
BRANCH   2  11
ATOM     11  N   UNL     1       5.069   3.346  19.407  0.00  0.00    +0.000 N 
ATOM     12  H   UNL     1       5.649   2.877  20.097  0.00  0.00    +0.000 HD
BRANCH  11  13
ATOM     13  C   UNL     1       3.676   3.056  19.436  0.00  0.00    +0.000 A 
ATOM     14  C   UNL     1       3.010   2.840  18.231  0.00  0.00    +0.000 A 
ATOM     15  C   UNL     1       1.637   2.593  18.230  0.00  0.00    +0.000 A 
ATOM     16  C   UNL     1       0.928   2.590  19.430  0.00  0.00    +0.000 A 
ATOM     17  C   UNL     1       1.592   2.818  20.635  0.00  0.00    +0.000 A 
ATOM     18  C   UNL     1       2.971   3.037  20.640  0.00  0.00    +0.000 A 
ENDBRANCH  11  13
ENDBRANCH   2  11
TORSDOF 3
ENDMDL
MODEL 3
REMARK VINA RESULT:      -7.5      0.747      1.721
REMARK  Name = 
REMARK  3 active torsions:
REMARK  status: ('A' for Active; 'I' for Inactive)
REMARK    1  A    between atoms: S_2  and  N_4
REMARK    2  A    between atoms: S_2  and  C_11
REMARK    3  A    between atoms: N_4  and  C_5
REMARK                            x       y       z     vdW  Elec       q    Type
REMARK                         _______ _______ _______ _____ _____    ______ ____
ROOT
ATOM      1  O   UNL     1       4.469   5.801  19.410  0.00  0.00    +0.000 OA
ATOM      2  S   UNL     1       5.684   5.036  19.213  0.00  0.00    +0.000 S 
ATOM      3  O   UNL     1       6.898   5.343  19.932  0.00  0.00    +0.000 OA
ENDROOT
BRANCH   2   4
ATOM      4  C   UNL     1       6.032   5.086  17.466  0.00  0.00    +0.000 A 
ATOM      5  C   UNL     1       5.089   5.675  16.611  0.00  0.00    +0.000 A 
ATOM      6  C   UNL     1       5.299   5.638  15.233  0.00  0.00    +0.000 A 
ATOM      7  C   UNL     1       6.452   5.043  14.731  0.00  0.00    +0.000 A 
ATOM      8  F   UNL     1       6.640   4.992  13.406  0.00  0.00    +0.000 F 
ATOM      9  C   UNL     1       7.410   4.493  15.581  0.00  0.00    +0.000 A 
ATOM     10  C   UNL     1       7.203   4.513  16.961  0.00  0.00    +0.000 A 
ENDBRANCH   2   4
BRANCH   2  11
ATOM     11  N   UNL     1       5.277   3.406  19.459  0.00  0.00    +0.000 N 
ATOM     12  H   UNL     1       5.753   3.015  20.267  0.00  0.00    +0.000 HD
BRANCH  11  13
ATOM     13  C   UNL     1       3.919   3.024  19.270  0.00  0.00    +0.000 A 
ATOM     14  C   UNL     1       3.089   2.922  20.385  0.00  0.00    +0.000 A 
ATOM     15  C   UNL     1       1.765   2.512  20.231  0.00  0.00    +0.000 A 
ATOM     16  C   UNL     1       1.281   2.177  18.966  0.00  0.00    +0.000 A 
ATOM     17  C   UNL     1       2.114   2.269  17.852  0.00  0.00    +0.000 A 
ATOM     18  C   UNL     1       3.431   2.707  18.002  0.00  0.00    +0.000 A 
ENDBRANCH  11  13
ENDBRANCH   2  11
TORSDOF 3
ENDMDL
MODEL 4
REMARK VINA RESULT:      -7.5      0.448      1.243
REMARK  Name = 
REMARK  3 active torsions:
REMARK  status: ('A' for Active; 'I' for Inactive)
REMARK    1  A    between atoms: S_2  and  N_4
REMARK    2  A    between atoms: S_2  and  C_11
REMARK    3  A    between atoms: N_4  and  C_5
REMARK                            x       y       z     vdW  Elec       q    Type
REMARK                         _______ _______ _______ _____ _____    ______ ____
ROOT
ATOM      1  O   UNL     1       4.349   5.781  19.303  0.00  0.00    +0.000 OA
ATOM      2  S   UNL     1       5.500   4.914  19.157  0.00  0.00    +0.000 S 
ATOM      3  O   UNL     1       6.720   5.143  19.896  0.00  0.00    +0.000 OA
ENDROOT
BRANCH   2   4
ATOM      4  C   UNL     1       5.890   4.881  17.419  0.00  0.00    +0.000 A 
ATOM      5  C   UNL     1       7.197   4.551  17.030  0.00  0.00    +0.000 A 
ATOM      6  C   UNL     1       7.546   4.614  15.682  0.00  0.00    +0.000 A 
ATOM      7  C   UNL     1       6.585   4.975  14.742  0.00  0.00    +0.000 A 
ATOM      8  F   UNL     1       6.930   5.052  13.450  0.00  0.00    +0.000 F 
ATOM      9  C   UNL     1       5.276   5.262  15.120  0.00  0.00    +0.000 A 
ATOM     10  C   UNL     1       4.920   5.216  16.469  0.00  0.00    +0.000 A 
ENDBRANCH   2   4
BRANCH   2  11
ATOM     11  N   UNL     1       4.956   3.331  19.440  0.00  0.00    +0.000 N 
ATOM     12  H   UNL     1       5.512   2.860  20.149  0.00  0.00    +0.000 HD
BRANCH  11  13
ATOM     13  C   UNL     1       3.551   3.108  19.477  0.00  0.00    +0.000 A 
ATOM     14  C   UNL     1       2.908   3.076  20.714  0.00  0.00    +0.000 A 
ATOM     15  C   UNL     1       1.539   2.821  20.780  0.00  0.00    +0.000 A 
ATOM     16  C   UNL     1       0.819   2.570  19.613  0.00  0.00    +0.000 A 
ATOM     17  C   UNL     1       1.463   2.590  18.376  0.00  0.00    +0.000 A 
ATOM     18  C   UNL     1       2.828   2.875  18.307  0.00  0.00    +0.000 A 
ENDBRANCH  11  13
ENDBRANCH   2  11
TORSDOF 3
ENDMDL
MODEL 5
REMARK VINA RESULT:      -7.2      1.171      1.273
REMARK  Name = 
REMARK  3 active torsions:
REMARK  status: ('A' for Active; 'I' for Inactive)
REMARK    1  A    between atoms: S_2  and  N_4
REMARK    2  A    between atoms: S_2  and  C_11
REMARK    3  A    between atoms: N_4  and  C_5
REMARK                            x       y       z     vdW  Elec       q    Type
REMARK                         _______ _______ _______ _____ _____    ______ ____
ROOT
ATOM      1  O   UNL     1       6.633   5.450  19.780  0.00  0.00    +0.000 OA
ATOM      2  S   UNL     1       5.666   4.598  19.119  0.00  0.00    +0.000 S 
ATOM      3  O   UNL     1       5.440   3.236  19.544  0.00  0.00    +0.000 OA
ENDROOT
BRANCH   2   4
ATOM      4  C   UNL     1       6.102   4.587  17.391  0.00  0.00    +0.000 A 
ATOM      5  C   UNL     1       7.161   5.400  16.962  0.00  0.00    +0.000 A 
ATOM      6  C   UNL     1       7.454   5.478  15.601  0.00  0.00    +0.000 A 
ATOM      7  C   UNL     1       6.711   4.727  14.695  0.00  0.00    +0.000 A 
ATOM      8  F   UNL     1       6.984   4.820  13.388  0.00  0.00    +0.000 F 
ATOM      9  C   UNL     1       5.686   3.886  15.123  0.00  0.00    +0.000 A 
ATOM     10  C   UNL     1       5.375   3.812  16.482  0.00  0.00    +0.000 A 
ENDBRANCH   2   4
BRANCH   2  11
ATOM     11  N   UNL     1       4.193   5.442  19.120  0.00  0.00    +0.000 N 
ATOM     12  H   UNL     1       4.161   6.148  18.389  0.00  0.00    +0.000 HD
BRANCH  11  13
ATOM     13  C   UNL     1       3.001   4.699  19.345  0.00  0.00    +0.000 A 
ATOM     14  C   UNL     1       2.333   4.153  18.250  0.00  0.00    +0.000 A 
ATOM     15  C   UNL     1       1.142   3.453  18.439  0.00  0.00    +0.000 A 
ATOM     16  C   UNL     1       0.605   3.324  19.719  0.00  0.00    +0.000 A 
ATOM     17  C   UNL     1       1.267   3.879  20.814  0.00  0.00    +0.000 A 
ATOM     18  C   UNL     1       2.474   4.555  20.629  0.00  0.00    +0.000 A 
ENDBRANCH  11  13
ENDBRANCH   2  11
TORSDOF 3
ENDMDL
MODEL 6
REMARK VINA RESULT:      -7.2      1.127      1.673
REMARK  Name = 
REMARK  3 active torsions:
REMARK  status: ('A' for Active; 'I' for Inactive)
REMARK    1  A    between atoms: S_2  and  N_4
REMARK    2  A    between atoms: S_2  and  C_11
REMARK    3  A    between atoms: N_4  and  C_5
REMARK                            x       y       z     vdW  Elec       q    Type
REMARK                         _______ _______ _______ _____ _____    ______ ____
ROOT
ATOM      1  O   UNL     1       6.283   5.814  19.387  0.00  0.00    +0.000 OA
ATOM      2  S   UNL     1       5.417   4.795  18.829  0.00  0.00    +0.000 S 
ATOM      3  O   UNL     1       5.327   3.475  19.409  0.00  0.00    +0.000 OA
ENDROOT
BRANCH   2   4
ATOM      4  C   UNL     1       5.873   4.630  17.114  0.00  0.00    +0.000 A 
ATOM      5  C   UNL     1       7.196   4.912  16.742  0.00  0.00    +0.000 A 
ATOM      6  C   UNL     1       7.548   4.882  15.393  0.00  0.00    +0.000 A 
ATOM      7  C   UNL     1       6.589   4.544  14.442  0.00  0.00    +0.000 A 
ATOM      8  F   UNL     1       6.926   4.535  13.147  0.00  0.00    +0.000 F 
ATOM      9  C   UNL     1       5.285   4.223  14.813  0.00  0.00    +0.000 A 
ATOM     10  C   UNL     1       4.919   4.264  16.160  0.00  0.00    +0.000 A 
ENDBRANCH   2   4
BRANCH   2  11
ATOM     11  N   UNL     1       3.865   5.477  18.731  0.00  0.00    +0.000 N 
ATOM     12  H   UNL     1       3.751   6.039  17.892  0.00  0.00    +0.000 HD
BRANCH  11  13
ATOM     13  C   UNL     1       2.759   4.668  19.115  0.00  0.00    +0.000 A 
ATOM     14  C   UNL     1       2.366   4.660  20.453  0.00  0.00    +0.000 A 
ATOM     15  C   UNL     1       1.310   3.847  20.863  0.00  0.00    +0.000 A 
ATOM     16  C   UNL     1       0.667   3.021  19.941  0.00  0.00    +0.000 A 
ATOM     17  C   UNL     1       1.067   3.021  18.606  0.00  0.00    +0.000 A 
ATOM     18  C   UNL     1       2.105   3.856  18.189  0.00  0.00    +0.000 A 
ENDBRANCH  11  13
ENDBRANCH   2  11
TORSDOF 3
ENDMDL
MODEL 7
REMARK VINA RESULT:      -7.2      2.745      3.406
REMARK  Name = 
REMARK  3 active torsions:
REMARK  status: ('A' for Active; 'I' for Inactive)
REMARK    1  A    between atoms: S_2  and  N_4
REMARK    2  A    between atoms: S_2  and  C_11
REMARK    3  A    between atoms: N_4  and  C_5
REMARK                            x       y       z     vdW  Elec       q    Type
REMARK                         _______ _______ _______ _____ _____    ______ ____
ROOT
ATOM      1  O   UNL     1       4.791   3.233  17.921  0.00  0.00    +0.000 OA
ATOM      2  S   UNL     1       4.693   4.399  17.066  0.00  0.00    +0.000 S 
ATOM      3  O   UNL     1       4.695   4.286  15.626  0.00  0.00    +0.000 OA
ENDROOT
BRANCH   2   4
ATOM      4  C   UNL     1       6.014   5.492  17.550  0.00  0.00    +0.000 A 
ATOM      5  C   UNL     1       6.874   5.089  18.582  0.00  0.00    +0.000 A 
ATOM      6  C   UNL     1       7.853   5.969  19.040  0.00  0.00    +0.000 A 
ATOM      7  C   UNL     1       7.980   7.222  18.446  0.00  0.00    +0.000 A 
ATOM      8  F   UNL     1       8.910   8.072  18.901  0.00  0.00    +0.000 F 
ATOM      9  C   UNL     1       7.155   7.609  17.392  0.00  0.00    +0.000 A 
ATOM     10  C   UNL     1       6.162   6.740  16.936  0.00  0.00    +0.000 A 
ENDBRANCH   2   4
BRANCH   2  11
ATOM     11  N   UNL     1       3.311   5.252  17.565  0.00  0.00    +0.000 N 
ATOM     12  H   UNL     1       2.792   5.626  16.775  0.00  0.00    +0.000 HD
BRANCH  11  13
ATOM     13  C   UNL     1       2.546   4.709  18.635  0.00  0.00    +0.000 A 
ATOM     14  C   UNL     1       2.798   5.153  19.932  0.00  0.00    +0.000 A 
ATOM     15  C   UNL     1       2.089   4.609  21.003  0.00  0.00    +0.000 A 
ATOM     16  C   UNL     1       1.151   3.602  20.779  0.00  0.00    +0.000 A 
ATOM     17  C   UNL     1       0.907   3.150  19.483  0.00  0.00    +0.000 A 
ATOM     18  C   UNL     1       1.595   3.714  18.407  0.00  0.00    +0.000 A 
ENDBRANCH  11  13
ENDBRANCH   2  11
TORSDOF 3
ENDMDL
MODEL 8
REMARK VINA RESULT:      -7.2      2.714      3.431
REMARK  Name = 
REMARK  3 active torsions:
REMARK  status: ('A' for Active; 'I' for Inactive)
REMARK    1  A    between atoms: S_2  and  N_4
REMARK    2  A    between atoms: S_2  and  C_11
REMARK    3  A    between atoms: N_4  and  C_5
REMARK                            x       y       z     vdW  Elec       q    Type
REMARK                         _______ _______ _______ _____ _____    ______ ____
ROOT
ATOM      1  O   UNL     1       4.738   3.147  17.917  0.00  0.00    +0.000 OA
ATOM      2  S   UNL     1       4.649   4.324  17.078  0.00  0.00    +0.000 S 
ATOM      3  O   UNL     1       4.746   4.239  15.639  0.00  0.00    +0.000 OA
ENDROOT
BRANCH   2   4
ATOM      4  C   UNL     1       5.896   5.455  17.663  0.00  0.00    +0.000 A 
ATOM      5  C   UNL     1       6.044   6.687  17.010  0.00  0.00    +0.000 A 
ATOM      6  C   UNL     1       7.076   7.543  17.390  0.00  0.00    +0.000 A 
ATOM      7  C   UNL     1       7.924   7.175  18.431  0.00  0.00    +0.000 A 
ATOM      8  F   UNL     1       8.926   7.991  18.781  0.00  0.00    +0.000 F 
ATOM      9  C   UNL     1       7.754   5.969  19.109  0.00  0.00    +0.000 A 
ATOM     10  C   UNL     1       6.732   5.099  18.726  0.00  0.00    +0.000 A 
ENDBRANCH   2   4
BRANCH   2  11
ATOM     11  N   UNL     1       3.209   5.117  17.503  0.00  0.00    +0.000 N 
ATOM     12  H   UNL     1       2.676   5.398  16.684  0.00  0.00    +0.000 HD
BRANCH  11  13
ATOM     13  C   UNL     1       2.467   4.602  18.603  0.00  0.00    +0.000 A 
ATOM     14  C   UNL     1       2.739   5.088  19.881  0.00  0.00    +0.000 A 
ATOM     15  C   UNL     1       2.054   4.573  20.981  0.00  0.00    +0.000 A 
ATOM     16  C   UNL     1       1.119   3.553  20.806  0.00  0.00    +0.000 A 
ATOM     17  C   UNL     1       0.855   3.059  19.529  0.00  0.00    +0.000 A 
ATOM     18  C   UNL     1       1.519   3.595  18.424  0.00  0.00    +0.000 A 
ENDBRANCH  11  13
ENDBRANCH   2  11
TORSDOF 3
ENDMDL
MODEL 9
REMARK VINA RESULT:      -7.1      2.597      3.339
REMARK  Name = 
REMARK  3 active torsions:
REMARK  status: ('A' for Active; 'I' for Inactive)
REMARK    1  A    between atoms: S_2  and  N_4
REMARK    2  A    between atoms: S_2  and  C_11
REMARK    3  A    between atoms: N_4  and  C_5
REMARK                            x       y       z     vdW  Elec       q    Type
REMARK                         _______ _______ _______ _____ _____    ______ ____
ROOT
ATOM      1  O   UNL     1       5.814   3.360  15.959  0.00  0.00    +0.000 OA
ATOM      2  S   UNL     1       5.051   4.141  16.911  0.00  0.00    +0.000 S 
ATOM      3  O   UNL     1       3.827   4.809  16.536  0.00  0.00    +0.000 OA
ENDROOT
BRANCH   2   4
ATOM      4  C   UNL     1       6.172   5.350  17.585  0.00  0.00    +0.000 A 
ATOM      5  C   UNL     1       6.315   6.577  16.920  0.00  0.00    +0.000 A 
ATOM      6  C   UNL     1       7.257   7.497  17.377  0.00  0.00    +0.000 A 
ATOM      7  C   UNL     1       8.020   7.196  18.502  0.00  0.00    +0.000 A 
ATOM      8  F   UNL     1       8.937   8.075  18.926  0.00  0.00    +0.000 F 
ATOM      9  C   UNL     1       7.851   5.996  19.189  0.00  0.00    +0.000 A 
ATOM     10  C   UNL     1       6.920   5.062  18.731  0.00  0.00    +0.000 A 
ENDBRANCH   2   4
BRANCH   2  11
ATOM     11  N   UNL     1       4.758   3.130  18.244  0.00  0.00    +0.000 N 
ATOM     12  H   UNL     1       5.553   3.097  18.876  0.00  0.00    +0.000 HD
BRANCH  11  13
ATOM     13  C   UNL     1       3.467   3.176  18.841  0.00  0.00    +0.000 A 
ATOM     14  C   UNL     1       3.233   4.094  19.864  0.00  0.00    +0.000 A 
ATOM     15  C   UNL     1       1.989   4.133  20.493  0.00  0.00    +0.000 A 
ATOM     16  C   UNL     1       0.990   3.235  20.118  0.00  0.00    +0.000 A 
ATOM     17  C   UNL     1       1.227   2.310  19.102  0.00  0.00    +0.000 A 
ATOM     18  C   UNL     1       2.463   2.290  18.453  0.00  0.00    +0.000 A 
ENDBRANCH  11  13
ENDBRANCH   2  11
TORSDOF 3
ENDMDL
