MODEL 1
REMARK VINA RESULT:      -7.2      0.000      0.000
REMARK  Name = 
REMARK  7 active torsions:
REMARK  status: ('A' for Active; 'I' for Inactive)
REMARK    1  A    between atoms: C_1  and  C_2
REMARK    2  A    between atoms: C_2  and  O_3
REMARK    3  A    between atoms: O_3  and  C_4
REMARK    4  A    between atoms: C_4  and  C_6
REMARK    5  A    between atoms: C_10  and  O_11
REMARK    6  A    between atoms: O_11  and  C_12
REMARK    7  A    between atoms: N_17  and  C_18
REMARK                            x       y       z     vdW  Elec       q    Type
REMARK                         _______ _______ _______ _____ _____    ______ ____
ROOT
ATOM      1  C   UNL     1       4.406   6.266  17.615  0.00  0.00    +0.000 C 
ATOM      2  C   UNL     1       3.491   7.501  17.306  0.00  0.00    +0.000 C 
ATOM      3  C   UNL     1       2.689   7.665  18.572  0.00  0.00    +0.000 A 
ATOM      4  C   UNL     1       1.906   8.745  18.968  0.00  0.00    +0.000 A 
ATOM      5  C   UNL     1       1.134   8.660  20.141  0.00  0.00    +0.000 A 
ATOM      6  C   UNL     1       1.161   7.481  20.900  0.00  0.00    +0.000 A 
ATOM      7  C   UNL     1       1.995   6.419  20.526  0.00  0.00    +0.000 A 
ATOM      8  C   UNL     1       2.746   6.519  19.356  0.00  0.00    +0.000 A 
ATOM      9  C   UNL     1       3.619   5.468  18.723  0.00  0.00    +0.000 C 
ATOM     10  N   UNL     1       2.854   4.352  18.125  0.00  0.00    +0.000 N 
ATOM     11  C   UNL     1       1.502   3.980  18.502  0.00  0.00    +0.000 C 
ATOM     12  C   UNL     1       3.571   3.393  17.436  0.00  0.00    +0.000 C 
ATOM     13  O   UNL     1       3.294   2.201  17.423  0.00  0.00    +0.000 OA
ATOM     14  C   UNL     1       4.593   3.953  16.521  0.00  0.00    +0.000 A 
ATOM     15  C   UNL     1       5.234   3.071  15.642  0.00  0.00    +0.000 A 
ATOM     16  C   UNL     1       6.009   3.571  14.603  0.00  0.00    +0.000 A 
ATOM     17  C   UNL     1       6.112   4.954  14.434  0.00  0.00    +0.000 A 
ATOM     18  C   UNL     1       5.507   5.834  15.328  0.00  0.00    +0.000 A 
ATOM     19  C   UNL     1       4.779   5.348  16.429  0.00  0.00    +0.000 A 
ENDROOT
BRANCH   1  20
ATOM     20  C   UNL     1       5.763   6.852  18.085  0.00  0.00    +0.000 C 
ATOM     21  O   UNL     1       6.327   7.775  17.498  0.00  0.00    +0.000 OA
BRANCH  20  22
ATOM     22  O   UNL     1       6.388   6.078  19.016  0.00  0.00    +0.000 OA
BRANCH  22  24
ATOM     23  C   UNL     1       7.932   4.523  17.874  0.00  0.00    +0.000 C 
ATOM     24  C   UNL     1       7.767   5.781  18.710  0.00  0.00    +0.000 C 
ENDBRANCH  22  24
ENDBRANCH  20  22
ENDBRANCH   1  20
BRANCH   5  25
ATOM     25  O   UNL     1       0.386   9.768  20.415  0.00  0.00    +0.000 OA
ATOM     26  C   UNL     1      -0.420  10.290  19.363  0.00  0.00    +0.000 C 
ENDBRANCH   5  25
TORSDOF 4
ENDMDL
MODEL 2
REMARK VINA RESULT:      -6.7      0.844      1.245
REMARK  Name = 
REMARK  7 active torsions:
REMARK  status: ('A' for Active; 'I' for Inactive)
REMARK    1  A    between atoms: C_1  and  C_2
REMARK    2  A    between atoms: C_2  and  O_3
REMARK    3  A    between atoms: O_3  and  C_4
REMARK    4  A    between atoms: C_4  and  C_6
REMARK    5  A    between atoms: C_10  and  O_11
REMARK    6  A    between atoms: O_11  and  C_12
REMARK    7  A    between atoms: N_17  and  C_18
REMARK                            x       y       z     vdW  Elec       q    Type
REMARK                         _______ _______ _______ _____ _____    ______ ____
ROOT
ATOM      1  C   UNL     1       4.555   6.096  17.628  0.00  0.00    +0.000 C 
ATOM      2  C   UNL     1       3.714   7.392  17.356  0.00  0.00    +0.000 C 
ATOM      3  C   UNL     1       2.875   7.528  18.601  0.00  0.00    +0.000 A 
ATOM      4  C   UNL     1       2.133   8.624  19.030  0.00  0.00    +0.000 A 
ATOM      5  C   UNL     1       1.315   8.516  20.169  0.00  0.00    +0.000 A 
ATOM      6  C   UNL     1       1.255   7.297  20.862  0.00  0.00    +0.000 A 
ATOM      7  C   UNL     1       2.049   6.216  20.458  0.00  0.00    +0.000 A 
ATOM      8  C   UNL     1       2.846   6.341  19.322  0.00  0.00    +0.000 A 
ATOM      9  C   UNL     1       3.690   5.281  18.661  0.00  0.00    +0.000 C 
ATOM     10  N   UNL     1       2.893   4.240  17.976  0.00  0.00    +0.000 N 
ATOM     11  C   UNL     1       1.511   3.918  18.286  0.00  0.00    +0.000 C 
ATOM     12  C   UNL     1       3.587   3.284  17.260  0.00  0.00    +0.000 C 
ATOM     13  O   UNL     1       3.252   2.110  17.171  0.00  0.00    +0.000 OA
ATOM     14  C   UNL     1       4.668   3.839  16.413  0.00  0.00    +0.000 A 
ATOM     15  C   UNL     1       5.296   2.974  15.509  0.00  0.00    +0.000 A 
ATOM     16  C   UNL     1       6.133   3.488  14.527  0.00  0.00    +0.000 A 
ATOM     17  C   UNL     1       6.311   4.872  14.438  0.00  0.00    +0.000 A 
ATOM     18  C   UNL     1       5.717   5.733  15.359  0.00  0.00    +0.000 A 
ATOM     19  C   UNL     1       4.926   5.226  16.406  0.00  0.00    +0.000 A 
ENDROOT
BRANCH   1  20
ATOM     20  C   UNL     1       5.921   6.585  18.175  0.00  0.00    +0.000 C 
ATOM     21  O   UNL     1       6.494   6.037  19.116  0.00  0.00    +0.000 OA
BRANCH  20  22
ATOM     22  O   UNL     1       6.277   7.816  17.711  0.00  0.00    +0.000 OA
BRANCH  22  24
ATOM     23  C   UNL     1       8.263   9.237  18.080  0.00  0.00    +0.000 C 
ATOM     24  C   UNL     1       7.691   7.971  17.467  0.00  0.00    +0.000 C 
ENDBRANCH  22  24
ENDBRANCH  20  22
ENDBRANCH   1  20
BRANCH   5  25
ATOM     25  O   UNL     1       0.613   9.644  20.479  0.00  0.00    +0.000 OA
ATOM     26  C   UNL     1      -0.173  10.230  19.445  0.00  0.00    +0.000 C 
ENDBRANCH   5  25
TORSDOF 4
ENDMDL
MODEL 3
REMARK VINA RESULT:      -6.4      2.266      6.376
REMARK  Name = 
REMARK  7 active torsions:
REMARK  status: ('A' for Active; 'I' for Inactive)
REMARK    1  A    between atoms: C_1  and  C_2
REMARK    2  A    between atoms: C_2  and  O_3
REMARK    3  A    between atoms: O_3  and  C_4
REMARK    4  A    between atoms: C_4  and  C_6
REMARK    5  A    between atoms: C_10  and  O_11
REMARK    6  A    between atoms: O_11  and  C_12
REMARK    7  A    between atoms: N_17  and  C_18
REMARK                            x       y       z     vdW  Elec       q    Type
REMARK                         _______ _______ _______ _____ _____    ______ ____
ROOT
ATOM      1  C   UNL     1       3.749   3.649  17.905  0.00  0.00    +0.000 C 
ATOM      2  C   UNL     1       3.709   3.349  16.367  0.00  0.00    +0.000 C 
ATOM      3  C   UNL     1       4.971   3.994  15.854  0.00  0.00    +0.000 A 
ATOM      4  C   UNL     1       5.585   3.831  14.616  0.00  0.00    +0.000 A 
ATOM      5  C   UNL     1       6.703   4.616  14.279  0.00  0.00    +0.000 A 
ATOM      6  C   UNL     1       7.185   5.561  15.197  0.00  0.00    +0.000 A 
ATOM      7  C   UNL     1       6.596   5.679  16.463  0.00  0.00    +0.000 A 
ATOM      8  C   UNL     1       5.486   4.898  16.775  0.00  0.00    +0.000 A 
ATOM      9  C   UNL     1       4.646   4.939  18.026  0.00  0.00    +0.000 C 
ATOM     10  N   UNL     1       3.809   6.154  18.131  0.00  0.00    +0.000 N 
ATOM     11  C   UNL     1       4.081   7.408  17.450  0.00  0.00    +0.000 C 
ATOM     12  C   UNL     1       2.935   6.227  19.198  0.00  0.00    +0.000 C 
ATOM     13  O   UNL     1       2.657   7.260  19.794  0.00  0.00    +0.000 OA
ATOM     14  C   UNL     1       2.176   4.978  19.436  0.00  0.00    +0.000 A 
ATOM     15  C   UNL     1       1.132   5.016  20.368  0.00  0.00    +0.000 A 
ATOM     16  C   UNL     1       0.237   3.958  20.450  0.00  0.00    +0.000 A 
ATOM     17  C   UNL     1       0.376   2.878  19.573  0.00  0.00    +0.000 A 
ATOM     18  C   UNL     1       1.435   2.819  18.669  0.00  0.00    +0.000 A 
ATOM     19  C   UNL     1       2.395   3.846  18.623  0.00  0.00    +0.000 A 
ENDROOT
BRANCH   1  20
ATOM     20  C   UNL     1       4.351   2.382  18.568  0.00  0.00    +0.000 C 
ATOM     21  O   UNL     1       4.083   1.243  18.187  0.00  0.00    +0.000 OA
BRANCH  20  22
ATOM     22  O   UNL     1       4.962   2.638  19.758  0.00  0.00    +0.000 OA
BRANCH  22  24
ATOM     23  C   UNL     1       3.352   2.131  21.562  0.00  0.00    +0.000 C 
ATOM     24  C   UNL     1       4.610   1.720  20.814  0.00  0.00    +0.000 C 
ENDBRANCH  22  24
ENDBRANCH  20  22
ENDBRANCH   1  20
BRANCH   5  25
ATOM     25  O   UNL     1       7.206   4.390  13.030  0.00  0.00    +0.000 OA
ATOM     26  C   UNL     1       6.503   3.471  12.199  0.00  0.00    +0.000 C 
ENDBRANCH   5  25
TORSDOF 4
ENDMDL
MODEL 4
REMARK VINA RESULT:      -6.3      8.236     12.338
REMARK  Name = 
REMARK  7 active torsions:
REMARK  status: ('A' for Active; 'I' for Inactive)
REMARK    1  A    between atoms: C_1  and  C_2
REMARK    2  A    between atoms: C_2  and  O_3
REMARK    3  A    between atoms: O_3  and  C_4
REMARK    4  A    between atoms: C_4  and  C_6
REMARK    5  A    between atoms: C_10  and  O_11
REMARK    6  A    between atoms: O_11  and  C_12
REMARK    7  A    between atoms: N_17  and  C_18
REMARK                            x       y       z     vdW  Elec       q    Type
REMARK                         _______ _______ _______ _____ _____    ______ ____
ROOT
ATOM      1  C   UNL     1      -5.357  12.144  19.095  0.00  0.00    +0.000 C 
ATOM      2  C   UNL     1      -5.329  12.407  17.549  0.00  0.00    +0.000 C 
ATOM      3  C   UNL     1      -4.253  11.473  17.058  0.00  0.00    +0.000 A 
ATOM      4  C   UNL     1      -3.969  11.091  15.750  0.00  0.00    +0.000 A 
ATOM      5  C   UNL     1      -2.840  10.295  15.480  0.00  0.00    +0.000 A 
ATOM      6  C   UNL     1      -2.009   9.897  16.537  0.00  0.00    +0.000 A 
ATOM      7  C   UNL     1      -2.333  10.238  17.857  0.00  0.00    +0.000 A 
ATOM      8  C   UNL     1      -3.450  11.033  18.103  0.00  0.00    +0.000 A 
ATOM      9  C   UNL     1      -3.916  11.595  19.421  0.00  0.00    +0.000 C 
ATOM     10  N   UNL     1      -3.046  12.673  19.939  0.00  0.00    +0.000 N 
ATOM     11  C   UNL     1      -1.655  12.864  19.569  0.00  0.00    +0.000 C 
ATOM     12  C   UNL     1      -3.454  13.312  21.094  0.00  0.00    +0.000 C 
ATOM     13  O   UNL     1      -2.694  13.719  21.963  0.00  0.00    +0.000 OA
ATOM     14  C   UNL     1      -4.892  13.671  21.104  0.00  0.00    +0.000 A 
ATOM     15  C   UNL     1      -5.353  14.488  22.143  0.00  0.00    +0.000 A 
ATOM     16  C   UNL     1      -6.619  15.054  22.069  0.00  0.00    +0.000 A 
ATOM     17  C   UNL     1      -7.404  14.822  20.936  0.00  0.00    +0.000 A 
ATOM     18  C   UNL     1      -6.964  13.979  19.917  0.00  0.00    +0.000 A 
ATOM     19  C   UNL     1      -5.716  13.337  20.009  0.00  0.00    +0.000 A 
ENDROOT
BRANCH   1  20
ATOM     20  C   UNL     1      -6.503  11.125  19.330  0.00  0.00    +0.000 C 
ATOM     21  O   UNL     1      -7.320  10.833  18.459  0.00  0.00    +0.000 OA
BRANCH  20  22
ATOM     22  O   UNL     1      -6.679  10.810  20.644  0.00  0.00    +0.000 OA
BRANCH  22  24
ATOM     23  C   UNL     1      -7.790   8.608  20.784  0.00  0.00    +0.000 C 
ATOM     24  C   UNL     1      -7.913  10.115  20.925  0.00  0.00    +0.000 C 
ENDBRANCH  22  24
ENDBRANCH  20  22
ENDBRANCH   1  20
BRANCH   5  25
ATOM     25  O   UNL     1      -2.646  10.005  14.161  0.00  0.00    +0.000 OA
ATOM     26  C   UNL     1      -3.801   9.941  13.329  0.00  0.00    +0.000 C 
ENDBRANCH   5  25
TORSDOF 4
ENDMDL
MODEL 5
REMARK VINA RESULT:      -6.2      3.711      9.332
REMARK  Name = 
REMARK  7 active torsions:
REMARK  status: ('A' for Active; 'I' for Inactive)
REMARK    1  A    between atoms: C_1  and  C_2
REMARK    2  A    between atoms: C_2  and  O_3
REMARK    3  A    between atoms: O_3  and  C_4
REMARK    4  A    between atoms: C_4  and  C_6
REMARK    5  A    between atoms: C_10  and  O_11
REMARK    6  A    between atoms: O_11  and  C_12
REMARK    7  A    between atoms: N_17  and  C_18
REMARK                            x       y       z     vdW  Elec       q    Type
REMARK                         _______ _______ _______ _____ _____    ______ ____
ROOT
ATOM      1  C   UNL     1      -0.907  11.638  20.471  0.00  0.00    +0.000 C 
ATOM      2  C   UNL     1      -0.387  10.353  21.204  0.00  0.00    +0.000 C 
ATOM      3  C   UNL     1       0.463   9.677  20.159  0.00  0.00    +0.000 A 
ATOM      4  C   UNL     1       1.375   8.639  20.323  0.00  0.00    +0.000 A 
ATOM      5  C   UNL     1       1.990   8.060  19.198  0.00  0.00    +0.000 A 
ATOM      6  C   UNL     1       1.672   8.536  17.917  0.00  0.00    +0.000 A 
ATOM      7  C   UNL     1       0.797   9.619  17.764  0.00  0.00    +0.000 A 
ATOM      8  C   UNL     1       0.192  10.174  18.890  0.00  0.00    +0.000 A 
ATOM      9  C   UNL     1      -0.847  11.264  18.942  0.00  0.00    +0.000 C 
ATOM     10  N   UNL     1      -2.175  10.831  18.453  0.00  0.00    +0.000 N 
ATOM     11  C   UNL     1      -2.403   9.712  17.555  0.00  0.00    +0.000 C 
ATOM     12  C   UNL     1      -3.211  11.739  18.557  0.00  0.00    +0.000 C 
ATOM     13  O   UNL     1      -4.114  11.852  17.739  0.00  0.00    +0.000 OA
ATOM     14  C   UNL     1      -3.271  12.430  19.866  0.00  0.00    +0.000 A 
ATOM     15  C   UNL     1      -4.394  13.222  20.134  0.00  0.00    +0.000 A 
ATOM     16  C   UNL     1      -4.622  13.687  21.423  0.00  0.00    +0.000 A 
ATOM     17  C   UNL     1      -3.735  13.330  22.443  0.00  0.00    +0.000 A 
ATOM     18  C   UNL     1      -2.596  12.575  22.173  0.00  0.00    +0.000 A 
ATOM     19  C   UNL     1      -2.309  12.156  20.861  0.00  0.00    +0.000 A 
ENDROOT
BRANCH   1  20
ATOM     20  C   UNL     1       0.052  12.783  20.891  0.00  0.00    +0.000 C 
ATOM     21  O   UNL     1       0.607  12.814  21.989  0.00  0.00    +0.000 OA
BRANCH  20  22
ATOM     22  O   UNL     1      -0.002  13.861  20.060  0.00  0.00    +0.000 OA
BRANCH  22  24
ATOM     23  C   UNL     1       2.081  13.419  18.808  0.00  0.00    +0.000 C 
ATOM     24  C   UNL     1       1.290  14.380  19.679  0.00  0.00    +0.000 C 
ENDBRANCH  22  24
ENDBRANCH  20  22
ENDBRANCH   1  20
BRANCH   5  25
ATOM     25  O   UNL     1       2.845   7.033  19.478  0.00  0.00    +0.000 OA
ATOM     26  C   UNL     1       2.771   5.877  18.649  0.00  0.00    +0.000 C 
ENDBRANCH   5  25
TORSDOF 4
ENDMDL
MODEL 6
REMARK VINA RESULT:      -6.2      4.118      9.513
REMARK  Name = 
REMARK  7 active torsions:
REMARK  status: ('A' for Active; 'I' for Inactive)
REMARK    1  A    between atoms: C_1  and  C_2
REMARK    2  A    between atoms: C_2  and  O_3
REMARK    3  A    between atoms: O_3  and  C_4
REMARK    4  A    between atoms: C_4  and  C_6
REMARK    5  A    between atoms: C_10  and  O_11
REMARK    6  A    between atoms: O_11  and  C_12
REMARK    7  A    between atoms: N_17  and  C_18
REMARK                            x       y       z     vdW  Elec       q    Type
REMARK                         _______ _______ _______ _____ _____    ______ ____
ROOT
ATOM      1  C   UNL     1      -0.815  11.530  20.437  0.00  0.00    +0.000 C 
ATOM      2  C   UNL     1      -0.326  10.231  21.166  0.00  0.00    +0.000 C 
ATOM      3  C   UNL     1       0.545   9.562  20.134  0.00  0.00    +0.000 A 
ATOM      4  C   UNL     1       1.444   8.513  20.308  0.00  0.00    +0.000 A 
ATOM      5  C   UNL     1       2.083   7.944  19.191  0.00  0.00    +0.000 A 
ATOM      6  C   UNL     1       1.803   8.440  17.909  0.00  0.00    +0.000 A 
ATOM      7  C   UNL     1       0.940   9.532  17.748  0.00  0.00    +0.000 A 
ATOM      8  C   UNL     1       0.312  10.077  18.865  0.00  0.00    +0.000 A 
ATOM      9  C   UNL     1      -0.720  11.175  18.905  0.00  0.00    +0.000 C 
ATOM     10  N   UNL     1      -2.037  10.761  18.376  0.00  0.00    +0.000 N 
ATOM     11  C   UNL     1      -2.251   9.657  17.458  0.00  0.00    +0.000 C 
ATOM     12  C   UNL     1      -3.069  11.677  18.466  0.00  0.00    +0.000 C 
ATOM     13  O   UNL     1      -3.949  11.809  17.627  0.00  0.00    +0.000 OA
ATOM     14  C   UNL     1      -3.156  12.351  19.782  0.00  0.00    +0.000 A 
ATOM     15  C   UNL     1      -4.280  13.149  20.032  0.00  0.00    +0.000 A 
ATOM     16  C   UNL     1      -4.536  13.600  21.320  0.00  0.00    +0.000 A 
ATOM     17  C   UNL     1      -3.680  13.221  22.358  0.00  0.00    +0.000 A 
ATOM     18  C   UNL     1      -2.541  12.459  22.107  0.00  0.00    +0.000 A 
ATOM     19  C   UNL     1      -2.223  12.055  20.798  0.00  0.00    +0.000 A 
ENDROOT
BRANCH   1  20
ATOM     20  C   UNL     1       0.142  12.660  20.897  0.00  0.00    +0.000 C 
ATOM     21  O   UNL     1       0.708  12.647  21.989  0.00  0.00    +0.000 OA
BRANCH  20  22
ATOM     22  O   UNL     1       0.074  13.774  20.115  0.00  0.00    +0.000 OA
BRANCH  22  24
ATOM     23  C   UNL     1      -1.369  15.720  20.596  0.00  0.00    +0.000 C 
ATOM     24  C   UNL     1      -0.051  15.008  20.852  0.00  0.00    +0.000 C 
ENDBRANCH  22  24
ENDBRANCH  20  22
ENDBRANCH   1  20
BRANCH   5  25
ATOM     25  O   UNL     1       2.921   6.906  19.479  0.00  0.00    +0.000 OA
ATOM     26  C   UNL     1       2.324   5.663  19.838  0.00  0.00    +0.000 C 
ENDBRANCH   5  25
TORSDOF 4
ENDMDL
MODEL 7
REMARK VINA RESULT:      -6.1      1.870      2.608
REMARK  Name = 
REMARK  7 active torsions:
REMARK  status: ('A' for Active; 'I' for Inactive)
REMARK    1  A    between atoms: C_1  and  C_2
REMARK    2  A    between atoms: C_2  and  O_3
REMARK    3  A    between atoms: O_3  and  C_4
REMARK    4  A    between atoms: C_4  and  C_6
REMARK    5  A    between atoms: C_10  and  O_11
REMARK    6  A    between atoms: O_11  and  C_12
REMARK    7  A    between atoms: N_17  and  C_18
REMARK                            x       y       z     vdW  Elec       q    Type
REMARK                         _______ _______ _______ _____ _____    ______ ____
ROOT
ATOM      1  C   UNL     1       3.548   5.469  18.589  0.00  0.00    +0.000 C 
ATOM      2  C   UNL     1       2.919   6.449  17.539  0.00  0.00    +0.000 C 
ATOM      3  C   UNL     1       2.363   7.561  18.391  0.00  0.00    +0.000 A 
ATOM      4  C   UNL     1       1.922   8.819  17.994  0.00  0.00    +0.000 A 
ATOM      5  C   UNL     1       1.324   9.682  18.930  0.00  0.00    +0.000 A 
ATOM      6  C   UNL     1       1.175   9.260  20.260  0.00  0.00    +0.000 A 
ATOM      7  C   UNL     1       1.672   8.015  20.665  0.00  0.00    +0.000 A 
ATOM      8  C   UNL     1       2.255   7.172  19.721  0.00  0.00    +0.000 A 
ATOM      9  C   UNL     1       2.757   5.764  19.919  0.00  0.00    +0.000 C 
ATOM     10  N   UNL     1       1.673   4.778  20.117  0.00  0.00    +0.000 N 
ATOM     11  C   UNL     1       0.337   5.100  20.588  0.00  0.00    +0.000 C 
ATOM     12  C   UNL     1       2.039   3.449  20.208  0.00  0.00    +0.000 C 
ATOM     13  O   UNL     1       1.487   2.629  20.931  0.00  0.00    +0.000 OA
ATOM     14  C   UNL     1       3.026   3.029  19.187  0.00  0.00    +0.000 A 
ATOM     15  C   UNL     1       3.310   1.662  19.078  0.00  0.00    +0.000 A 
ATOM     16  C   UNL     1       4.029   1.189  17.988  0.00  0.00    +0.000 A 
ATOM     17  C   UNL     1       4.433   2.087  16.996  0.00  0.00    +0.000 A 
ATOM     18  C   UNL     1       4.185   3.453  17.119  0.00  0.00    +0.000 A 
ATOM     19  C   UNL     1       3.523   3.961  18.252  0.00  0.00    +0.000 A 
ENDROOT
BRANCH   1  20
ATOM     20  C   UNL     1       5.058   5.822  18.646  0.00  0.00    +0.000 C 
ATOM     21  O   UNL     1       5.765   5.556  19.616  0.00  0.00    +0.000 OA
BRANCH  20  22
ATOM     22  O   UNL     1       5.445   6.682  17.663  0.00  0.00    +0.000 OA
BRANCH  22  24
ATOM     23  C   UNL     1       7.685   7.722  17.595  0.00  0.00    +0.000 C 
ATOM     24  C   UNL     1       6.818   6.525  17.245  0.00  0.00    +0.000 C 
ENDBRANCH  22  24
ENDBRANCH  20  22
ENDBRANCH   1  20
BRANCH   5  25
ATOM     25  O   UNL     1       0.906  10.878  18.422  0.00  0.00    +0.000 OA
ATOM     26  C   UNL     1       0.585  11.907  19.352  0.00  0.00    +0.000 C 
ENDBRANCH   5  25
TORSDOF 4
ENDMDL
MODEL 8
REMARK VINA RESULT:      -6.0      1.715      2.293
REMARK  Name = 
REMARK  7 active torsions:
REMARK  status: ('A' for Active; 'I' for Inactive)
REMARK    1  A    between atoms: C_1  and  C_2
REMARK    2  A    between atoms: C_2  and  O_3
REMARK    3  A    between atoms: O_3  and  C_4
REMARK    4  A    between atoms: C_4  and  C_6
REMARK    5  A    between atoms: C_10  and  O_11
REMARK    6  A    between atoms: O_11  and  C_12
REMARK    7  A    between atoms: N_17  and  C_18
REMARK                            x       y       z     vdW  Elec       q    Type
REMARK                         _______ _______ _______ _____ _____    ______ ____
ROOT
ATOM      1  C   UNL     1       3.458   5.796  18.448  0.00  0.00    +0.000 C 
ATOM      2  C   UNL     1       2.687   6.744  17.465  0.00  0.00    +0.000 C 
ATOM      3  C   UNL     1       2.145   7.818  18.372  0.00  0.00    +0.000 A 
ATOM      4  C   UNL     1       1.602   9.052  18.026  0.00  0.00    +0.000 A 
ATOM      5  C   UNL     1       1.038   9.875  19.019  0.00  0.00    +0.000 A 
ATOM      6  C   UNL     1       1.027   9.438  20.352  0.00  0.00    +0.000 A 
ATOM      7  C   UNL     1       1.627   8.221  20.701  0.00  0.00    +0.000 A 
ATOM      8  C   UNL     1       2.173   7.417  19.702  0.00  0.00    +0.000 A 
ATOM      9  C   UNL     1       2.768   6.039  19.843  0.00  0.00    +0.000 C 
ATOM     10  N   UNL     1       1.762   4.992  20.123  0.00  0.00    +0.000 N 
ATOM     11  C   UNL     1       0.455   5.235  20.709  0.00  0.00    +0.000 C 
ATOM     12  C   UNL     1       2.208   3.685  20.170  0.00  0.00    +0.000 C 
ATOM     13  O   UNL     1       1.767   2.832  20.928  0.00  0.00    +0.000 OA
ATOM     14  C   UNL     1       3.126   3.328  19.064  0.00  0.00    +0.000 A 
ATOM     15  C   UNL     1       3.477   1.980  18.918  0.00  0.00    +0.000 A 
ATOM     16  C   UNL     1       4.126   1.554  17.766  0.00  0.00    +0.000 A 
ATOM     17  C   UNL     1       4.392   2.478  16.752  0.00  0.00    +0.000 A 
ATOM     18  C   UNL     1       4.079   3.827  16.909  0.00  0.00    +0.000 A 
ATOM     19  C   UNL     1       3.489   4.291  18.099  0.00  0.00    +0.000 A 
ENDROOT
BRANCH   1  20
ATOM     20  C   UNL     1       4.944   6.234  18.379  0.00  0.00    +0.000 C 
ATOM     21  O   UNL     1       5.375   6.987  17.507  0.00  0.00    +0.000 OA
BRANCH  20  22
ATOM     22  O   UNL     1       5.758   5.499  19.187  0.00  0.00    +0.000 OA
BRANCH  22  24
ATOM     23  C   UNL     1       7.639   4.617  17.850  0.00  0.00    +0.000 C 
ATOM     24  C   UNL     1       7.164   5.624  18.884  0.00  0.00    +0.000 C 
ENDBRANCH  22  24
ENDBRANCH  20  22
ENDBRANCH   1  20
BRANCH   5  25
ATOM     25  O   UNL     1       0.512  11.047  18.559  0.00  0.00    +0.000 OA
ATOM     26  C   UNL     1      -0.871  11.285  18.808  0.00  0.00    +0.000 C 
ENDBRANCH   5  25
TORSDOF 4
ENDMDL
MODEL 9
REMARK VINA RESULT:      -5.9      7.970     12.749
REMARK  Name = 
REMARK  7 active torsions:
REMARK  status: ('A' for Active; 'I' for Inactive)
REMARK    1  A    between atoms: C_1  and  C_2
REMARK    2  A    between atoms: C_2  and  O_3
REMARK    3  A    between atoms: O_3  and  C_4
REMARK    4  A    between atoms: C_4  and  C_6
REMARK    5  A    between atoms: C_10  and  O_11
REMARK    6  A    between atoms: O_11  and  C_12
REMARK    7  A    between atoms: N_17  and  C_18
REMARK                            x       y       z     vdW  Elec       q    Type
REMARK                         _______ _______ _______ _____ _____    ______ ____
ROOT
ATOM      1  C   UNL     1      -3.544  13.576  22.436  0.00  0.00    +0.000 C 
ATOM      2  C   UNL     1      -3.756  13.616  20.882  0.00  0.00    +0.000 C 
ATOM      3  C   UNL     1      -2.791  12.575  20.374  0.00  0.00    +0.000 A 
ATOM      4  C   UNL     1      -2.725  11.999  19.109  0.00  0.00    +0.000 A 
ATOM      5  C   UNL     1      -1.671  11.124  18.790  0.00  0.00    +0.000 A 
ATOM      6  C   UNL     1      -0.691  10.844  19.754  0.00  0.00    +0.000 A 
ATOM      7  C   UNL     1      -0.795  11.383  21.043  0.00  0.00    +0.000 A 
ATOM      8  C   UNL     1      -1.843  12.253  21.338  0.00  0.00    +0.000 A 
ATOM      9  C   UNL     1      -2.082  13.017  22.614  0.00  0.00    +0.000 C 
ATOM     10  N   UNL     1      -1.119  14.119  22.828  0.00  0.00    +0.000 N 
ATOM     11  C   UNL     1       0.200  14.194  22.225  0.00  0.00    +0.000 C 
ATOM     12  C   UNL     1      -1.325  14.933  23.925  0.00  0.00    +0.000 C 
ATOM     13  O   UNL     1      -0.429  15.425  24.598  0.00  0.00    +0.000 OA
ATOM     14  C   UNL     1      -2.735  15.352  24.102  0.00  0.00    +0.000 A 
ATOM     15  C   UNL     1      -3.009  16.328  25.068  0.00  0.00    +0.000 A 
ATOM     16  C   UNL     1      -4.259  16.933  25.106  0.00  0.00    +0.000 A 
ATOM     17  C   UNL     1      -5.218  16.576  24.154  0.00  0.00    +0.000 A 
ATOM     18  C   UNL     1      -4.962  15.579  23.216  0.00  0.00    +0.000 A 
ATOM     19  C   UNL     1      -3.729  14.902  23.208  0.00  0.00    +0.000 A 
ENDROOT
BRANCH   1  20
ATOM     20  C   UNL     1      -4.660  12.653  22.991  0.00  0.00    +0.000 C 
ATOM     21  O   UNL     1      -4.604  12.145  24.110  0.00  0.00    +0.000 OA
BRANCH  20  22
ATOM     22  O   UNL     1      -5.543  12.245  22.038  0.00  0.00    +0.000 OA
BRANCH  22  24
ATOM     23  C   UNL     1      -7.534  13.612  21.518  0.00  0.00    +0.000 C 
ATOM     24  C   UNL     1      -6.926  12.505  22.362  0.00  0.00    +0.000 C 
ENDBRANCH  22  24
ENDBRANCH  20  22
ENDBRANCH   1  20
BRANCH   5  25
ATOM     25  O   UNL     1      -1.694  10.641  17.514  0.00  0.00    +0.000 OA
ATOM     26  C   UNL     1      -2.842   9.896  17.118  0.00  0.00    +0.000 C 
ENDBRANCH   5  25
TORSDOF 4
ENDMDL
