MODEL 1
REMARK VINA RESULT:      -8.0      0.000      0.000
REMARK  Name = 
REMARK  5 active torsions:
REMARK  status: ('A' for Active; 'I' for Inactive)
REMARK    1  A    between atoms: N_3  and  C_4
REMARK    2  A    between atoms: N_10  and  C_11
REMARK    3  A    between atoms: C_20  and  O_21
REMARK    4  A    between atoms: CA_24  and  C_25
REMARK    5  A    between atoms: C_25  and  OXT_27
REMARK                            x       y       z     vdW  Elec       q    Type
REMARK                         _______ _______ _______ _____ _____    ______ ____
ROOT
ATOM      1  C   UNL     1       6.538   5.188  17.524  0.00  0.00    +0.000 C 
ATOM      2  C   UNL     1       6.491   4.782  16.069  0.00  0.00    +0.000 A 
ATOM      3  C   UNL     1       7.501   4.455  15.185  0.00  0.00    +0.000 A 
ATOM      4  C   UNL     1       7.128   4.112  13.884  0.00  0.00    +0.000 A 
ATOM      5  C   UNL     1       5.772   4.096  13.500  0.00  0.00    +0.000 A 
ATOM      6  C   UNL     1       4.769   4.504  14.384  0.00  0.00    +0.000 A 
ATOM      7  C   UNL     1       5.151   4.899  15.650  0.00  0.00    +0.000 A 
ATOM      8  C   UNL     1       4.331   5.279  16.806  0.00  0.00    +0.000 A 
ATOM      9  N   UNL     1       3.706   6.527  16.957  0.00  0.00    +0.000 NA
ATOM     10  C   UNL     1       3.431   6.835  18.200  0.00  0.00    +0.000 A 
ATOM     11  C   UNL     1       3.550   5.911  19.297  0.00  0.00    +0.000 A 
ATOM     12  N   UNL     1       2.652   5.665  20.230  0.00  0.00    +0.000 NA
ATOM     13  CA  UNL     1       2.741   4.294  20.408  0.00  0.00    +0.000 A 
ATOM     14  C   UNL     1       3.835   3.790  19.723  0.00  0.00    +0.000 A 
ATOM     15  N   UNL     1       4.440   4.875  19.090  0.00  0.00    +0.000 N 
ATOM     16  C   UNL     1       5.077   4.835  17.852  0.00  0.00    +0.000 A 
ENDROOT
BRANCH   1  20
ATOM     17  O   UNL     1       8.580   6.974  18.750  0.00  0.00    +0.000 OA
ATOM     18  C   UNL     1       7.711   7.439  18.038  0.00  0.00    +0.000 C 
ATOM     19  N   UNL     1       7.451   8.786  17.780  0.00  0.00    +0.000 N 
ATOM     20  N   UNL     1       6.791   6.646  17.416  0.00  0.00    +0.000 N 
ATOM     21  H   UNL     1       6.514   8.991  17.436  0.00  0.00    +0.000 HD
ATOM     22  H   UNL     1       6.337   7.098  16.642  0.00  0.00    +0.000 HD
BRANCH  19  23
ATOM     23  C   UNL     1       8.207   9.906  18.179  0.00  0.00    +0.000 A 
ATOM     24  C   UNL     1       9.138   9.851  19.215  0.00  0.00    +0.000 A 
ATOM     25  C   UNL     1       9.860  10.991  19.590  0.00  0.00    +0.000 A 
ATOM     26  C   UNL     1       9.656  12.199  18.931  0.00  0.00    +0.000 A 
ATOM     27  C   UNL     1       8.754  12.264  17.872  0.00  0.00    +0.000 A 
ATOM     28  C   UNL     1       8.043  11.120  17.488  0.00  0.00    +0.000 A 
ENDBRANCH  19  23
ENDBRANCH   1  20
BRANCH  10  29
ATOM     29  O   UNL     1       3.111   8.083  18.571  0.00  0.00    +0.000 OA
ATOM     30  H   UNL     1       2.166   8.211  18.405  0.00  0.00    +0.000 HD
ENDBRANCH  10  29
BRANCH  13  31
ATOM     31  C   UNL     1       1.656   3.565  21.067  0.00  0.00    +0.000 C 
ATOM     32  O   UNL     1       1.773   2.897  22.083  0.00  0.00    +0.000 OA
BRANCH  31  33
ATOM     33  OXT UNL     1       0.489   3.661  20.372  0.00  0.00    +0.000 OA
ATOM     34  HXT UNL     1       0.523   4.504  19.861  0.00  0.00    +0.000 HD
ENDBRANCH  31  33
ENDBRANCH  13  31
TORSDOF 5
ENDMDL
MODEL 2
REMARK VINA RESULT:      -7.5      8.321     10.936
REMARK  Name = 
REMARK  5 active torsions:
REMARK  status: ('A' for Active; 'I' for Inactive)
REMARK    1  A    between atoms: N_3  and  C_4
REMARK    2  A    between atoms: N_10  and  C_11
REMARK    3  A    between atoms: C_20  and  O_21
REMARK    4  A    between atoms: CA_24  and  C_25
REMARK    5  A    between atoms: C_25  and  OXT_27
REMARK                            x       y       z     vdW  Elec       q    Type
REMARK                         _______ _______ _______ _____ _____    ______ ____
ROOT
ATOM      1  C   UNL     1      -1.222  13.812  19.479  0.00  0.00    +0.000 C 
ATOM      2  C   UNL     1      -0.428  15.098  19.523  0.00  0.00    +0.000 A 
ATOM      3  C   UNL     1       0.102  15.872  18.508  0.00  0.00    +0.000 A 
ATOM      4  C   UNL     1       0.792  17.028  18.879  0.00  0.00    +0.000 A 
ATOM      5  C   UNL     1       0.931  17.385  20.235  0.00  0.00    +0.000 A 
ATOM      6  C   UNL     1       0.456  16.551  21.251  0.00  0.00    +0.000 A 
ATOM      7  C   UNL     1      -0.174  15.380  20.879  0.00  0.00    +0.000 A 
ATOM      8  C   UNL     1      -0.849  14.370  21.702  0.00  0.00    +0.000 A 
ATOM      9  N   UNL     1      -0.185  13.394  22.460  0.00  0.00    +0.000 NA
ATOM     10  C   UNL     1      -0.920  12.343  22.731  0.00  0.00    +0.000 A 
ATOM     11  C   UNL     1      -2.334  12.271  22.476  0.00  0.00    +0.000 A 
ATOM     12  N   UNL     1      -3.274  11.877  23.313  0.00  0.00    +0.000 NA
ATOM     13  CA  UNL     1      -4.315  12.756  23.064  0.00  0.00    +0.000 A 
ATOM     14  C   UNL     1      -4.042  13.520  21.941  0.00  0.00    +0.000 A 
ATOM     15  N   UNL     1      -2.789  13.114  21.481  0.00  0.00    +0.000 N 
ATOM     16  C   UNL     1      -1.843  13.941  20.880  0.00  0.00    +0.000 A 
ENDROOT
BRANCH   1  20
ATOM     17  O   UNL     1      -1.253  10.843  19.255  0.00  0.00    +0.000 OA
ATOM     18  C   UNL     1      -0.196  11.438  19.346  0.00  0.00    +0.000 C 
ATOM     19  N   UNL     1       1.082  10.889  19.475  0.00  0.00    +0.000 N 
ATOM     20  N   UNL     1      -0.140  12.799  19.396  0.00  0.00    +0.000 N 
ATOM     21  H   UNL     1       1.789  11.517  19.855  0.00  0.00    +0.000 HD
ATOM     22  H   UNL     1       0.767  13.168  19.166  0.00  0.00    +0.000 HD
BRANCH  19  23
ATOM     23  C   UNL     1       1.453   9.532  19.402  0.00  0.00    +0.000 A 
ATOM     24  C   UNL     1       1.330   8.663  20.485  0.00  0.00    +0.000 A 
ATOM     25  C   UNL     1       1.724   7.323  20.375  0.00  0.00    +0.000 A 
ATOM     26  C   UNL     1       2.247   6.840  19.179  0.00  0.00    +0.000 A 
ATOM     27  C   UNL     1       2.347   7.688  18.078  0.00  0.00    +0.000 A 
ATOM     28  C   UNL     1       1.939   9.023  18.184  0.00  0.00    +0.000 A 
ENDBRANCH  19  23
ENDBRANCH   1  20
BRANCH  10  29
ATOM     29  O   UNL     1      -0.388  11.198  23.180  0.00  0.00    +0.000 OA
ATOM     30  H   UNL     1      -0.351  10.575  22.441  0.00  0.00    +0.000 HD
ENDBRANCH  10  29
BRANCH  13  31
ATOM     31  C   UNL     1      -5.395  12.914  24.039  0.00  0.00    +0.000 C 
ATOM     32  O   UNL     1      -6.038  11.999  24.531  0.00  0.00    +0.000 OA
BRANCH  31  33
ATOM     33  OXT UNL     1      -5.655  14.226  24.295  0.00  0.00    +0.000 OA
ATOM     34  HXT UNL     1      -6.122  14.589  23.507  0.00  0.00    +0.000 HD
ENDBRANCH  31  33
ENDBRANCH  13  31
TORSDOF 5
ENDMDL
MODEL 3
REMARK VINA RESULT:      -7.3      8.074     11.454
REMARK  Name = 
REMARK  5 active torsions:
REMARK  status: ('A' for Active; 'I' for Inactive)
REMARK    1  A    between atoms: N_3  and  C_4
REMARK    2  A    between atoms: N_10  and  C_11
REMARK    3  A    between atoms: C_20  and  O_21
REMARK    4  A    between atoms: CA_24  and  C_25
REMARK    5  A    between atoms: C_25  and  OXT_27
REMARK                            x       y       z     vdW  Elec       q    Type
REMARK                         _______ _______ _______ _____ _____    ______ ____
ROOT
ATOM      1  C   UNL     1      -0.790  12.921  22.378  0.00  0.00    +0.000 C 
ATOM      2  C   UNL     1      -2.263  12.859  22.715  0.00  0.00    +0.000 A 
ATOM      3  C   UNL     1      -2.922  12.341  23.813  0.00  0.00    +0.000 A 
ATOM      4  C   UNL     1      -4.314  12.444  23.831  0.00  0.00    +0.000 A 
ATOM      5  C   UNL     1      -5.009  13.060  22.771  0.00  0.00    +0.000 A 
ATOM      6  C   UNL     1      -4.333  13.509  21.633  0.00  0.00    +0.000 A 
ATOM      7  C   UNL     1      -2.963  13.351  21.595  0.00  0.00    +0.000 A 
ATOM      8  C   UNL     1      -1.989  13.803  20.596  0.00  0.00    +0.000 A 
ATOM      9  N   UNL     1      -1.772  13.172  19.361  0.00  0.00    +0.000 NA
ATOM     10  C   UNL     1      -0.596  13.421  18.838  0.00  0.00    +0.000 A 
ATOM     11  C   UNL     1       0.313  14.410  19.353  0.00  0.00    +0.000 A 
ATOM     12  N   UNL     1       0.943  15.344  18.667  0.00  0.00    +0.000 NA
ATOM     13  CA  UNL     1       0.888  16.448  19.502  0.00  0.00    +0.000 A 
ATOM     14  C   UNL     1       0.408  16.084  20.749  0.00  0.00    +0.000 A 
ATOM     15  N   UNL     1       0.143  14.716  20.689  0.00  0.00    +0.000 N 
ATOM     16  C   UNL     1      -0.892  14.063  21.354  0.00  0.00    +0.000 A 
ENDROOT
BRANCH   1  20
ATOM     17  O   UNL     1       1.584  11.653  21.106  0.00  0.00    +0.000 OA
ATOM     18  C   UNL     1       0.523  11.060  21.145  0.00  0.00    +0.000 C 
ATOM     19  N   UNL     1       0.207   9.838  20.548  0.00  0.00    +0.000 N 
ATOM     20  N   UNL     1      -0.571  11.587  21.766  0.00  0.00    +0.000 N 
ATOM     21  H   UNL     1      -0.788   9.662  20.415  0.00  0.00    +0.000 HD
ATOM     22  H   UNL     1      -1.269  10.898  21.992  0.00  0.00    +0.000 HD
BRANCH  19  23
ATOM     23  C   UNL     1       1.073   8.953  19.876  0.00  0.00    +0.000 A 
ATOM     24  C   UNL     1       1.545   7.778  20.460  0.00  0.00    +0.000 A 
ATOM     25  C   UNL     1       2.417   6.932  19.763  0.00  0.00    +0.000 A 
ATOM     26  C   UNL     1       2.825   7.254  18.472  0.00  0.00    +0.000 A 
ATOM     27  C   UNL     1       2.337   8.407  17.861  0.00  0.00    +0.000 A 
ATOM     28  C   UNL     1       1.454   9.246  18.554  0.00  0.00    +0.000 A 
ENDBRANCH  19  23
ENDBRANCH   1  20
BRANCH  10  29
ATOM     29  O   UNL     1      -0.096  12.693  17.830  0.00  0.00    +0.000 OA
ATOM     30  H   UNL     1      -0.837  12.370  17.298  0.00  0.00    +0.000 HD
ENDBRANCH  10  29
BRANCH  13  31
ATOM     31  C   UNL     1       1.126  17.790  18.967  0.00  0.00    +0.000 C 
ATOM     32  O   UNL     1       1.852  18.631  19.473  0.00  0.00    +0.000 OA
BRANCH  31  33
ATOM     33  OXT UNL     1       0.382  18.025  17.851  0.00  0.00    +0.000 OA
ATOM     34  HXT UNL     1      -0.222  18.777  18.057  0.00  0.00    +0.000 HD
ENDBRANCH  31  33
ENDBRANCH  13  31
TORSDOF 5
ENDMDL
MODEL 4
REMARK VINA RESULT:      -7.3      6.950      9.793
REMARK  Name = 
REMARK  5 active torsions:
REMARK  status: ('A' for Active; 'I' for Inactive)
REMARK    1  A    between atoms: N_3  and  C_4
REMARK    2  A    between atoms: N_10  and  C_11
REMARK    3  A    between atoms: C_20  and  O_21
REMARK    4  A    between atoms: CA_24  and  C_25
REMARK    5  A    between atoms: C_25  and  OXT_27
REMARK                            x       y       z     vdW  Elec       q    Type
REMARK                         _______ _______ _______ _____ _____    ______ ____
ROOT
ATOM      1  C   UNL     1       0.099  11.931  19.086  0.00  0.00    +0.000 C 
ATOM      2  C   UNL     1       1.260  12.897  19.015  0.00  0.00    +0.000 A 
ATOM      3  C   UNL     1       2.224  13.087  18.044  0.00  0.00    +0.000 A 
ATOM      4  C   UNL     1       3.177  14.082  18.274  0.00  0.00    +0.000 A 
ATOM      5  C   UNL     1       3.144  14.858  19.449  0.00  0.00    +0.000 A 
ATOM      6  C   UNL     1       2.209  14.601  20.456  0.00  0.00    +0.000 A 
ATOM      7  C   UNL     1       1.307  13.578  20.248  0.00  0.00    +0.000 A 
ATOM      8  C   UNL     1       0.168  13.144  21.065  0.00  0.00    +0.000 A 
ATOM      9  N   UNL     1       0.281  12.373  22.233  0.00  0.00    +0.000 NA
ATOM     10  C   UNL     1      -0.811  11.718  22.543  0.00  0.00    +0.000 A 
ATOM     11  C   UNL     1      -2.077  11.921  21.889  0.00  0.00    +0.000 A 
ATOM     12  N   UNL     1      -3.247  12.113  22.466  0.00  0.00    +0.000 NA
ATOM     13  CA  UNL     1      -3.844  13.076  21.669  0.00  0.00    +0.000 A 
ATOM     14  C   UNL     1      -3.096  13.283  20.522  0.00  0.00    +0.000 A 
ATOM     15  N   UNL     1      -1.994  12.433  20.609  0.00  0.00    +0.000 N 
ATOM     16  C   UNL     1      -0.717  12.714  20.129  0.00  0.00    +0.000 A 
ENDROOT
BRANCH   1  20
ATOM     17  O   UNL     1       1.024   9.402  17.818  0.00  0.00    +0.000 OA
ATOM     18  C   UNL     1       1.120   9.553  19.022  0.00  0.00    +0.000 C 
ATOM     19  N   UNL     1       1.529   8.611  19.968  0.00  0.00    +0.000 N 
ATOM     20  N   UNL     1       0.757  10.718  19.630  0.00  0.00    +0.000 N 
ATOM     21  H   UNL     1       1.242   8.804  20.927  0.00  0.00    +0.000 HD
ATOM     22  H   UNL     1       1.156  10.828  20.546  0.00  0.00    +0.000 HD
BRANCH  19  23
ATOM     23  C   UNL     1       2.043   7.319  19.739  0.00  0.00    +0.000 A 
ATOM     24  C   UNL     1       2.886   7.028  18.668  0.00  0.00    +0.000 A 
ATOM     25  C   UNL     1       3.364   5.727  18.467  0.00  0.00    +0.000 A 
ATOM     26  C   UNL     1       3.003   4.703  19.339  0.00  0.00    +0.000 A 
ATOM     27  C   UNL     1       2.188   4.984  20.433  0.00  0.00    +0.000 A 
ATOM     28  C   UNL     1       1.722   6.289  20.641  0.00  0.00    +0.000 A 
ENDBRANCH  19  23
ENDBRANCH   1  20
BRANCH  10  29
ATOM     29  O   UNL     1      -0.813  10.719  23.436  0.00  0.00    +0.000 OA
ATOM     30  H   UNL     1      -1.733  10.497  23.634  0.00  0.00    +0.000 HD
ENDBRANCH  10  29
BRANCH  13  31
ATOM     31  C   UNL     1      -4.982  13.847  22.174  0.00  0.00    +0.000 C 
ATOM     32  O   UNL     1      -4.915  14.731  23.015  0.00  0.00    +0.000 OA
BRANCH  31  33
ATOM     33  OXT UNL     1      -6.158  13.419  21.638  0.00  0.00    +0.000 OA
ATOM     34  HXT UNL     1      -6.850  14.071  21.897  0.00  0.00    +0.000 HD
ENDBRANCH  31  33
ENDBRANCH  13  31
TORSDOF 5
ENDMDL
MODEL 5
REMARK VINA RESULT:      -7.3      8.297     10.919
REMARK  Name = 
REMARK  5 active torsions:
REMARK  status: ('A' for Active; 'I' for Inactive)
REMARK    1  A    between atoms: N_3  and  C_4
REMARK    2  A    between atoms: N_10  and  C_11
REMARK    3  A    between atoms: C_20  and  O_21
REMARK    4  A    between atoms: CA_24  and  C_25
REMARK    5  A    between atoms: C_25  and  OXT_27
REMARK                            x       y       z     vdW  Elec       q    Type
REMARK                         _______ _______ _______ _____ _____    ______ ____
ROOT
ATOM      1  C   UNL     1      -1.222  13.633  19.510  0.00  0.00    +0.000 C 
ATOM      2  C   UNL     1      -0.450  14.933  19.513  0.00  0.00    +0.000 A 
ATOM      3  C   UNL     1       0.112  15.657  18.478  0.00  0.00    +0.000 A 
ATOM      4  C   UNL     1       0.768  16.844  18.810  0.00  0.00    +0.000 A 
ATOM      5  C   UNL     1       0.844  17.280  20.148  0.00  0.00    +0.000 A 
ATOM      6  C   UNL     1       0.338  16.497  21.190  0.00  0.00    +0.000 A 
ATOM      7  C   UNL     1      -0.258  15.296  20.860  0.00  0.00    +0.000 A 
ATOM      8  C   UNL     1      -0.953  14.323  21.711  0.00  0.00    +0.000 A 
ATOM      9  N   UNL     1      -0.307  13.403  22.550  0.00  0.00    +0.000 NA
ATOM     10  C   UNL     1      -1.037  12.357  22.851  0.00  0.00    +0.000 A 
ATOM     11  C   UNL     1      -2.438  12.246  22.541  0.00  0.00    +0.000 A 
ATOM     12  N   UNL     1      -3.407  11.885  23.360  0.00  0.00    +0.000 NA
ATOM     13  CA  UNL     1      -4.449  12.730  23.017  0.00  0.00    +0.000 A 
ATOM     14  C   UNL     1      -4.139  13.433  21.865  0.00  0.00    +0.000 A 
ATOM     15  N   UNL     1      -2.862  13.024  21.482  0.00  0.00    +0.000 N 
ATOM     16  C   UNL     1      -1.904  13.831  20.874  0.00  0.00    +0.000 A 
ENDROOT
BRANCH   1  20
ATOM     17  O   UNL     1      -1.060  10.794  18.629  0.00  0.00    +0.000 OA
ATOM     18  C   UNL     1      -0.104  11.323  19.162  0.00  0.00    +0.000 C 
ATOM     19  N   UNL     1       1.100  10.725  19.542  0.00  0.00    +0.000 N 
ATOM     20  N   UNL     1      -0.123  12.636  19.530  0.00  0.00    +0.000 N 
ATOM     21  H   UNL     1       1.634  11.230  20.247  0.00  0.00    +0.000 HD
ATOM     22  H   UNL     1       0.795  13.022  19.671  0.00  0.00    +0.000 HD
BRANCH  19  23
ATOM     23  C   UNL     1       1.532   9.409  19.282  0.00  0.00    +0.000 A 
ATOM     24  C   UNL     1       1.990   9.005  18.028  0.00  0.00    +0.000 A 
ATOM     25  C   UNL     1       2.398   7.684  17.808  0.00  0.00    +0.000 A 
ATOM     26  C   UNL     1       2.352   6.752  18.841  0.00  0.00    +0.000 A 
ATOM     27  C   UNL     1       1.928   7.147  20.107  0.00  0.00    +0.000 A 
ATOM     28  C   UNL     1       1.533   8.473  20.331  0.00  0.00    +0.000 A 
ENDBRANCH  19  23
ENDBRANCH   1  20
BRANCH  10  29
ATOM     29  O   UNL     1      -0.508  11.249  23.386  0.00  0.00    +0.000 OA
ATOM     30  H   UNL     1      -1.028  10.492  23.082  0.00  0.00    +0.000 HD
ENDBRANCH  10  29
BRANCH  13  31
ATOM     31  C   UNL     1      -5.572  12.925  23.936  0.00  0.00    +0.000 C 
ATOM     32  O   UNL     1      -6.211  13.959  24.057  0.00  0.00    +0.000 OA
BRANCH  31  33
ATOM     33  OXT UNL     1      -5.791  11.822  24.705  0.00  0.00    +0.000 OA
ATOM     34  HXT UNL     1      -5.836  12.125  25.642  0.00  0.00    +0.000 HD
ENDBRANCH  31  33
ENDBRANCH  13  31
TORSDOF 5
ENDMDL
MODEL 6
REMARK VINA RESULT:      -7.2      7.987     11.457
REMARK  Name = 
REMARK  5 active torsions:
REMARK  status: ('A' for Active; 'I' for Inactive)
REMARK    1  A    between atoms: N_3  and  C_4
REMARK    2  A    between atoms: N_10  and  C_11
REMARK    3  A    between atoms: C_20  and  O_21
REMARK    4  A    between atoms: CA_24  and  C_25
REMARK    5  A    between atoms: C_25  and  OXT_27
REMARK                            x       y       z     vdW  Elec       q    Type
REMARK                         _______ _______ _______ _____ _____    ______ ____
ROOT
ATOM      1  C   UNL     1      -0.788  12.924  22.331  0.00  0.00    +0.000 C 
ATOM      2  C   UNL     1      -2.282  12.938  22.566  0.00  0.00    +0.000 A 
ATOM      3  C   UNL     1      -3.041  12.450  23.613  0.00  0.00    +0.000 A 
ATOM      4  C   UNL     1      -4.424  12.626  23.537  0.00  0.00    +0.000 A 
ATOM      5  C   UNL     1      -5.012  13.281  22.437  0.00  0.00    +0.000 A 
ATOM      6  C   UNL     1      -4.237  13.699  21.350  0.00  0.00    +0.000 A 
ATOM      7  C   UNL     1      -2.878  13.469  21.405  0.00  0.00    +0.000 A 
ATOM      8  C   UNL     1      -1.815  13.874  20.477  0.00  0.00    +0.000 A 
ATOM      9  N   UNL     1      -1.547  13.238  19.256  0.00  0.00    +0.000 NA
ATOM     10  C   UNL     1      -0.328  13.427  18.816  0.00  0.00    +0.000 A 
ATOM     11  C   UNL     1       0.594  14.366  19.398  0.00  0.00    +0.000 A 
ATOM     12  N   UNL     1       1.317  15.268  18.764  0.00  0.00    +0.000 NA
ATOM     13  CA  UNL     1       1.262  16.370  19.601  0.00  0.00    +0.000 A 
ATOM     14  C   UNL     1       0.679  16.027  20.810  0.00  0.00    +0.000 A 
ATOM     15  N   UNL     1       0.350  14.675  20.722  0.00  0.00    +0.000 N 
ATOM     16  C   UNL     1      -0.761  14.074  21.310  0.00  0.00    +0.000 A 
ENDROOT
BRANCH   1  20
ATOM     17  O   UNL     1       1.600  11.538  21.220  0.00  0.00    +0.000 OA
ATOM     18  C   UNL     1       0.509  11.002  21.179  0.00  0.00    +0.000 C 
ATOM     19  N   UNL     1       0.172   9.800  20.552  0.00  0.00    +0.000 N 
ATOM     20  N   UNL     1      -0.597  11.583  21.726  0.00  0.00    +0.000 N 
ATOM     21  H   UNL     1      -0.818   9.678  20.347  0.00  0.00    +0.000 HD
ATOM     22  H   UNL     1      -1.344  10.932  21.896  0.00  0.00    +0.000 HD
BRANCH  19  23
ATOM     23  C   UNL     1       1.036   8.873  19.936  0.00  0.00    +0.000 A 
ATOM     24  C   UNL     1       1.516   9.044  18.638  0.00  0.00    +0.000 A 
ATOM     25  C   UNL     1       2.362   8.091  18.057  0.00  0.00    +0.000 A 
ATOM     26  C   UNL     1       2.737   6.956  18.770  0.00  0.00    +0.000 A 
ATOM     27  C   UNL     1       2.294   6.787  20.080  0.00  0.00    +0.000 A 
ATOM     28  C   UNL     1       1.459   7.747  20.665  0.00  0.00    +0.000 A 
ENDBRANCH  19  23
ENDBRANCH   1  20
BRANCH  10  29
ATOM     29  O   UNL     1       0.202  12.678  17.839  0.00  0.00    +0.000 OA
ATOM     30  H   UNL     1       0.647  13.269  17.216  0.00  0.00    +0.000 HD
ENDBRANCH  10  29
BRANCH  13  31
ATOM     31  C   UNL     1       1.604  17.700  19.093  0.00  0.00    +0.000 C 
ATOM     32  O   UNL     1       1.902  17.955  17.936  0.00  0.00    +0.000 OA
BRANCH  31  33
ATOM     33  OXT UNL     1       1.617  18.631  20.086  0.00  0.00    +0.000 OA
ATOM     34  HXT UNL     1       0.679  18.807  20.332  0.00  0.00    +0.000 HD
ENDBRANCH  31  33
ENDBRANCH  13  31
TORSDOF 5
ENDMDL
MODEL 7
REMARK VINA RESULT:      -7.1      7.177     10.338
REMARK  Name = 
REMARK  5 active torsions:
REMARK  status: ('A' for Active; 'I' for Inactive)
REMARK    1  A    between atoms: N_3  and  C_4
REMARK    2  A    between atoms: N_10  and  C_11
REMARK    3  A    between atoms: C_20  and  O_21
REMARK    4  A    between atoms: CA_24  and  C_25
REMARK    5  A    between atoms: C_25  and  OXT_27
REMARK                            x       y       z     vdW  Elec       q    Type
REMARK                         _______ _______ _______ _____ _____    ______ ____
ROOT
ATOM      1  C   UNL     1       0.807  10.536  18.184  0.00  0.00    +0.000 C 
ATOM      2  C   UNL     1       1.356   9.163  18.500  0.00  0.00    +0.000 A 
ATOM      3  C   UNL     1       1.715   8.116  17.673  0.00  0.00    +0.000 A 
ATOM      4  C   UNL     1       2.203   6.958  18.281  0.00  0.00    +0.000 A 
ATOM      5  C   UNL     1       2.327   6.873  19.682  0.00  0.00    +0.000 A 
ATOM      6  C   UNL     1       1.887   7.911  20.508  0.00  0.00    +0.000 A 
ATOM      7  C   UNL     1       1.351   9.030  19.903  0.00  0.00    +0.000 A 
ATOM      8  C   UNL     1       0.902  10.297  20.491  0.00  0.00    +0.000 A 
ATOM      9  N   UNL     1      -0.319  10.469  21.160  0.00  0.00    +0.000 NA
ATOM     10  C   UNL     1      -0.734  11.712  21.194  0.00  0.00    +0.000 A 
ATOM     11  C   UNL     1       0.070  12.833  20.786  0.00  0.00    +0.000 A 
ATOM     12  N   UNL     1       0.271  13.952  21.453  0.00  0.00    +0.000 NA
ATOM     13  CA  UNL     1       1.611  14.223  21.230  0.00  0.00    +0.000 A 
ATOM     14  C   UNL     1       2.121  13.368  20.268  0.00  0.00    +0.000 A 
ATOM     15  N   UNL     1       1.074  12.531  19.886  0.00  0.00    +0.000 N 
ATOM     16  C   UNL     1       1.202  11.194  19.516  0.00  0.00    +0.000 A 
ENDROOT
BRANCH   1  20
ATOM     17  O   UNL     1      -1.562  12.293  17.781  0.00  0.00    +0.000 OA
ATOM     18  C   UNL     1      -1.709  11.095  17.930  0.00  0.00    +0.000 C 
ATOM     19  N   UNL     1      -2.909  10.393  18.054  0.00  0.00    +0.000 N 
ATOM     20  N   UNL     1      -0.645  10.253  18.063  0.00  0.00    +0.000 N 
ATOM     21  H   UNL     1      -2.834   9.474  18.488  0.00  0.00    +0.000 HD
ATOM     22  H   UNL     1      -0.874   9.292  17.876  0.00  0.00    +0.000 HD
BRANCH  19  23
ATOM     23  C   UNL     1      -4.221  10.887  17.908  0.00  0.00    +0.000 A 
ATOM     24  C   UNL     1      -4.544  11.900  17.007  0.00  0.00    +0.000 A 
ATOM     25  C   UNL     1      -5.858  12.373  16.903  0.00  0.00    +0.000 A 
ATOM     26  C   UNL     1      -6.864  11.835  17.701  0.00  0.00    +0.000 A 
ATOM     27  C   UNL     1      -6.564  10.800  18.584  0.00  0.00    +0.000 A 
ATOM     28  C   UNL     1      -5.252  10.318  18.677  0.00  0.00    +0.000 A 
ENDBRANCH  19  23
ENDBRANCH   1  20
BRANCH  10  29
ATOM     29  O   UNL     1      -1.993  12.034  21.521  0.00  0.00    +0.000 OA
ATOM     30  H   UNL     1      -2.204  11.604  22.361  0.00  0.00    +0.000 HD
ENDBRANCH  10  29
BRANCH  13  31
ATOM     31  C   UNL     1       2.328  15.157  22.101  0.00  0.00    +0.000 C 
ATOM     32  O   UNL     1       3.288  14.871  22.800  0.00  0.00    +0.000 OA
BRANCH  31  33
ATOM     33  OXT UNL     1       1.756  16.392  22.095  0.00  0.00    +0.000 OA
ATOM     34  HXT UNL     1       2.371  16.996  21.618  0.00  0.00    +0.000 HD
ENDBRANCH  31  33
ENDBRANCH  13  31
TORSDOF 5
ENDMDL
MODEL 8
REMARK VINA RESULT:      -6.9      7.354     10.159
REMARK  Name = 
REMARK  5 active torsions:
REMARK  status: ('A' for Active; 'I' for Inactive)
REMARK    1  A    between atoms: N_3  and  C_4
REMARK    2  A    between atoms: N_10  and  C_11
REMARK    3  A    between atoms: C_20  and  O_21
REMARK    4  A    between atoms: CA_24  and  C_25
REMARK    5  A    between atoms: C_25  and  OXT_27
REMARK                            x       y       z     vdW  Elec       q    Type
REMARK                         _______ _______ _______ _____ _____    ______ ____
ROOT
ATOM      1  C   UNL     1      -0.125  12.502  19.133  0.00  0.00    +0.000 C 
ATOM      2  C   UNL     1       0.955  13.560  19.097  0.00  0.00    +0.000 A 
ATOM      3  C   UNL     1       1.881  13.878  18.122  0.00  0.00    +0.000 A 
ATOM      4  C   UNL     1       2.758  14.931  18.391  0.00  0.00    +0.000 A 
ATOM      5  C   UNL     1       2.689  15.638  19.608  0.00  0.00    +0.000 A 
ATOM      6  C   UNL     1       1.798  15.253  20.615  0.00  0.00    +0.000 A 
ATOM      7  C   UNL     1       0.975  14.174  20.365  0.00  0.00    +0.000 A 
ATOM      8  C   UNL     1      -0.109  13.607  21.176  0.00  0.00    +0.000 A 
ATOM      9  N   UNL     1       0.088  12.786  22.296  0.00  0.00    +0.000 NA
ATOM     10  C   UNL     1      -0.942  12.030  22.587  0.00  0.00    +0.000 A 
ATOM     11  C   UNL     1      -2.233  12.167  21.967  0.00  0.00    +0.000 A 
ATOM     12  N   UNL     1      -3.403  12.233  22.573  0.00  0.00    +0.000 NA
ATOM     13  CA  UNL     1      -4.090  13.188  21.842  0.00  0.00    +0.000 A 
ATOM     14  C   UNL     1      -3.385  13.516  20.696  0.00  0.00    +0.000 A 
ATOM     15  N   UNL     1      -2.218  12.753  20.717  0.00  0.00    +0.000 N 
ATOM     16  C   UNL     1      -0.977  13.160  20.231  0.00  0.00    +0.000 A 
ENDROOT
BRANCH   1  20
ATOM     17  O   UNL     1       0.283   9.790  17.977  0.00  0.00    +0.000 OA
ATOM     18  C   UNL     1       0.758  10.069  19.061  0.00  0.00    +0.000 C 
ATOM     19  N   UNL     1       1.418   9.216  19.947  0.00  0.00    +0.000 N 
ATOM     20  N   UNL     1       0.637  11.317  19.598  0.00  0.00    +0.000 N 
ATOM     21  H   UNL     1       1.454   9.535  20.915  0.00  0.00    +0.000 HD
ATOM     22  H   UNL     1       1.308  11.503  20.323  0.00  0.00    +0.000 HD
BRANCH  19  23
ATOM     23  C   UNL     1       1.798   7.875  19.738  0.00  0.00    +0.000 A 
ATOM     24  C   UNL     1       1.517   6.864  20.656  0.00  0.00    +0.000 A 
ATOM     25  C   UNL     1       1.925   5.546  20.416  0.00  0.00    +0.000 A 
ATOM     26  C   UNL     1       2.620   5.226  19.254  0.00  0.00    +0.000 A 
ATOM     27  C   UNL     1       2.881   6.218  18.311  0.00  0.00    +0.000 A 
ATOM     28  C   UNL     1       2.460   7.533  18.545  0.00  0.00    +0.000 A 
ENDBRANCH  19  23
ENDBRANCH   1  20
BRANCH  10  29
ATOM     29  O   UNL     1      -0.847  10.987  23.423  0.00  0.00    +0.000 OA
ATOM     30  H   UNL     1       0.082  10.719  23.463  0.00  0.00    +0.000 HD
ENDBRANCH  10  29
BRANCH  13  31
ATOM     31  C   UNL     1      -5.274  13.838  22.407  0.00  0.00    +0.000 C 
ATOM     32  O   UNL     1      -6.302  13.265  22.734  0.00  0.00    +0.000 OA
BRANCH  31  33
ATOM     33  OXT UNL     1      -5.124  15.190  22.471  0.00  0.00    +0.000 OA
ATOM     34  HXT UNL     1      -4.347  15.423  21.912  0.00  0.00    +0.000 HD
ENDBRANCH  31  33
ENDBRANCH  13  31
TORSDOF 5
ENDMDL
MODEL 9
REMARK VINA RESULT:      -6.9      6.708      9.681
REMARK  Name = 
REMARK  5 active torsions:
REMARK  status: ('A' for Active; 'I' for Inactive)
REMARK    1  A    between atoms: N_3  and  C_4
REMARK    2  A    between atoms: N_10  and  C_11
REMARK    3  A    between atoms: C_20  and  O_21
REMARK    4  A    between atoms: CA_24  and  C_25
REMARK    5  A    between atoms: C_25  and  OXT_27
REMARK                            x       y       z     vdW  Elec       q    Type
REMARK                         _______ _______ _______ _____ _____    ______ ____
ROOT
ATOM      1  C   UNL     1       0.615  12.766  18.420  0.00  0.00    +0.000 C 
ATOM      2  C   UNL     1       1.695  13.821  18.498  0.00  0.00    +0.000 A 
ATOM      3  C   UNL     1       2.537  14.332  17.528  0.00  0.00    +0.000 A 
ATOM      4  C   UNL     1       3.440  15.321  17.921  0.00  0.00    +0.000 A 
ATOM      5  C   UNL     1       3.479  15.778  19.253  0.00  0.00    +0.000 A 
ATOM      6  C   UNL     1       2.675  15.196  20.238  0.00  0.00    +0.000 A 
ATOM      7  C   UNL     1       1.826  14.178  19.854  0.00  0.00    +0.000 A 
ATOM      8  C   UNL     1       0.812  13.454  20.628  0.00  0.00    +0.000 A 
ATOM      9  N   UNL     1       1.098  12.434  21.548  0.00  0.00    +0.000 NA
ATOM     10  C   UNL     1       0.091  11.625  21.773  0.00  0.00    +0.000 A 
ATOM     11  C   UNL     1      -1.247  11.867  21.303  0.00  0.00    +0.000 A 
ATOM     12  N   UNL     1      -2.360  11.803  22.006  0.00  0.00    +0.000 NA
ATOM     13  CA  UNL     1      -3.101  12.874  21.535  0.00  0.00    +0.000 A 
ATOM     14  C   UNL     1      -2.494  13.424  20.418  0.00  0.00    +0.000 A 
ATOM     15  N   UNL     1      -1.334  12.683  20.192  0.00  0.00    +0.000 N 
ATOM     16  C   UNL     1      -0.137  13.190  19.692  0.00  0.00    +0.000 A 
ENDROOT
BRANCH   1  20
ATOM     17  O   UNL     1      -0.143   9.887  18.454  0.00  0.00    +0.000 OA
ATOM     18  C   UNL     1       1.013  10.217  18.641  0.00  0.00    +0.000 C 
ATOM     19  N   UNL     1       2.086   9.397  18.998  0.00  0.00    +0.000 N 
ATOM     20  N   UNL     1       1.407  11.521  18.579  0.00  0.00    +0.000 N 
ATOM     21  H   UNL     1       2.880   9.876  19.419  0.00  0.00    +0.000 HD
ATOM     22  H   UNL     1       2.398  11.630  18.449  0.00  0.00    +0.000 HD
BRANCH  19  23
ATOM     23  C   UNL     1       2.106   7.991  19.098  0.00  0.00    +0.000 A 
ATOM     24  C   UNL     1       2.434   7.168  18.022  0.00  0.00    +0.000 A 
ATOM     25  C   UNL     1       2.428   5.774  18.159  0.00  0.00    +0.000 A 
ATOM     26  C   UNL     1       2.093   5.190  19.377  0.00  0.00    +0.000 A 
ATOM     27  C   UNL     1       1.795   5.998  20.471  0.00  0.00    +0.000 A 
ATOM     28  C   UNL     1       1.815   7.393  20.337  0.00  0.00    +0.000 A 
ENDBRANCH  19  23
ENDBRANCH   1  20
BRANCH  10  29
ATOM     29  O   UNL     1       0.250  10.441  22.380  0.00  0.00    +0.000 OA
ATOM     30  H   UNL     1      -0.227   9.775  21.865  0.00  0.00    +0.000 HD
ENDBRANCH  10  29
BRANCH  13  31
ATOM     31  C   UNL     1      -4.229  13.390  22.313  0.00  0.00    +0.000 C 
ATOM     32  O   UNL     1      -4.365  14.550  22.670  0.00  0.00    +0.000 OA
BRANCH  31  33
ATOM     33  OXT UNL     1      -5.096  12.400  22.660  0.00  0.00    +0.000 OA
ATOM     34  HXT UNL     1      -5.858  12.449  22.037  0.00  0.00    +0.000 HD
ENDBRANCH  31  33
ENDBRANCH  13  31
TORSDOF 5
ENDMDL
