MODEL 1
REMARK VINA RESULT:      -8.3      0.000      0.000
REMARK  Name = 
REMARK  8 active torsions:
REMARK  status: ('A' for Active; 'I' for Inactive)
REMARK    1  A    between atoms: C_2  and  C_3
REMARK    2  A    between atoms: C_3  and  N_4
REMARK    3  A    between atoms: C_5  and  C_7
REMARK    4  A    between atoms: C_11  and  C_12
REMARK    5  A    between atoms: N_17  and  C_18
REMARK    6  A    between atoms: N_20  and  C_21
REMARK    7  A    between atoms: C_24  and  O_25
REMARK    8  A    between atoms: C_24  and  C_26
REMARK                            x       y       z     vdW  Elec       q    Type
REMARK                         _______ _______ _______ _____ _____    ______ ____
ROOT
ATOM      1  O   UNL     1       2.390   7.643  19.243  0.00  0.00    +0.000 OA
ATOM      2  C   UNL     1       1.887   7.390  20.335  0.00  0.00    +0.000 C 
ATOM      3  N   UNL     1       1.759   6.117  20.865  0.00  0.00    +0.000 N 
ATOM      4  H   UNL     1       1.506   6.089  21.854  0.00  0.00    +0.000 HD
ENDROOT
BRANCH   3   5
ATOM      5  C   UNL     1       2.080   4.830  20.188  0.00  0.00    +0.000 C 
ATOM      6  C   UNL     1       1.691   4.685  18.697  0.00  0.00    +0.000 C 
ATOM      7  N   UNL     1       2.971   3.986  18.466  0.00  0.00    +0.000 NA
ATOM      8  C   UNL     1       3.526   4.563  19.716  0.00  0.00    +0.000 C 
BRANCH   7   9
ATOM      9  C   UNL     1       3.666   4.394  17.224  0.00  0.00    +0.000 C 
ATOM     10  C   UNL     1       3.955   5.897  17.016  0.00  0.00    +0.000 C 
ATOM     11  C   UNL     1       4.875   6.185  15.832  0.00  0.00    +0.000 C 
ATOM     12  C   UNL     1       6.201   5.411  15.938  0.00  0.00    +0.000 C 
ATOM     13  C   UNL     1       5.843   3.917  15.916  0.00  0.00    +0.000 C 
ATOM     14  C   UNL     1       4.918   3.502  17.065  0.00  0.00    +0.000 C 
BRANCH  12  15
ATOM     15  C   UNL     1       7.057   5.865  17.121  0.00  0.00    +0.000 A 
ATOM     16  C   UNL     1       7.494   7.149  17.422  0.00  0.00    +0.000 A 
ATOM     17  C   UNL     1       8.190   7.231  18.661  0.00  0.00    +0.000 A 
ATOM     18  C   UNL     1       8.319   6.000  19.257  0.00  0.00    +0.000 A 
ATOM     19  S   UNL     1       7.661   4.755  18.294  0.00  0.00    +0.000 S 
ENDBRANCH  12  15
BRANCH  12  20
ATOM     20  O   UNL     1       6.971   5.697  14.765  0.00  0.00    +0.000 OA
ATOM     21  H   UNL     1       7.868   5.926  15.060  0.00  0.00    +0.000 HD
ENDBRANCH  12  20
ENDBRANCH   7   9
ENDBRANCH   3   5
BRANCH   2  22
ATOM     22  C   UNL     1       1.370   8.508  21.253  0.00  0.00    +0.000 C 
BRANCH  22  23
ATOM     23  N   UNL     1       0.278   9.277  20.684  0.00  0.00    +0.000 N 
ATOM     24  C   UNL     1       0.186  10.635  20.902  0.00  0.00    +0.000 C 
ATOM     25  O   UNL     1       1.070  11.265  21.478  0.00  0.00    +0.000 OA
ATOM     26  H   UNL     1      -0.329   8.826  20.010  0.00  0.00    +0.000 HD
BRANCH  24  27
ATOM     27  C   UNL     1      -1.036  11.329  20.391  0.00  0.00    +0.000 A 
ATOM     28  C   UNL     1      -1.627  12.305  21.202  0.00  0.00    +0.000 A 
ATOM     29  C   UNL     1      -2.782  12.973  20.789  0.00  0.00    +0.000 A 
ATOM     30  C   UNL     1      -3.372  12.651  19.568  0.00  0.00    +0.000 A 
ATOM     31  C   UNL     1      -2.815  11.659  18.745  0.00  0.00    +0.000 A 
ATOM     32  C   UNL     1      -1.642  10.997  19.168  0.00  0.00    +0.000 A 
BRANCH  31  33
ATOM     33  C   UNL     1      -3.470  11.292  17.433  0.00  0.00    +0.000 C 
ATOM     34  F   UNL     1      -4.553  12.060  17.127  0.00  0.00    +0.000 F 
ATOM     35  F   UNL     1      -2.617  11.412  16.379  0.00  0.00    +0.000 F 
ATOM     36  F   UNL     1      -3.909  10.004  17.414  0.00  0.00    +0.000 F 
ENDBRANCH  31  33
ENDBRANCH  24  27
ENDBRANCH  22  23
ENDBRANCH   2  22
TORSDOF 8
ENDMDL
MODEL 2
REMARK VINA RESULT:      -8.3      6.772     10.098
REMARK  Name = 
REMARK  8 active torsions:
REMARK  status: ('A' for Active; 'I' for Inactive)
REMARK    1  A    between atoms: C_2  and  C_3
REMARK    2  A    between atoms: C_3  and  N_4
REMARK    3  A    between atoms: C_5  and  C_7
REMARK    4  A    between atoms: C_11  and  C_12
REMARK    5  A    between atoms: N_17  and  C_18
REMARK    6  A    between atoms: N_20  and  C_21
REMARK    7  A    between atoms: C_24  and  O_25
REMARK    8  A    between atoms: C_24  and  C_26
REMARK                            x       y       z     vdW  Elec       q    Type
REMARK                         _______ _______ _______ _____ _____    ______ ____
ROOT
ATOM      1  O   UNL     1       7.345   7.853  16.890  0.00  0.00    +0.000 OA
ATOM      2  C   UNL     1       7.946   7.765  17.958  0.00  0.00    +0.000 C 
ATOM      3  N   UNL     1       8.689   8.784  18.529  0.00  0.00    +0.000 N 
ATOM      4  H   UNL     1       8.958   8.624  19.500  0.00  0.00    +0.000 HD
ENDROOT
BRANCH   3   5
ATOM      5  C   UNL     1       9.001  10.109  17.925  0.00  0.00    +0.000 C 
ATOM      6  C   UNL     1       8.043  11.285  18.236  0.00  0.00    +0.000 C 
ATOM      7  N   UNL     1       9.220  12.168  18.354  0.00  0.00    +0.000 NA
ATOM      8  C   UNL     1      10.100  10.991  18.557  0.00  0.00    +0.000 C 
BRANCH   7   9
ATOM      9  C   UNL     1       9.158  13.109  19.494  0.00  0.00    +0.000 C 
ATOM     10  C   UNL     1      10.491  13.601  20.100  0.00  0.00    +0.000 C 
ATOM     11  C   UNL     1      10.323  14.739  21.105  0.00  0.00    +0.000 C 
ATOM     12  C   UNL     1       9.559  15.928  20.498  0.00  0.00    +0.000 C 
ATOM     13  C   UNL     1       8.162  15.410  20.122  0.00  0.00    +0.000 C 
ATOM     14  C   UNL     1       8.199  14.259  19.111  0.00  0.00    +0.000 C 
BRANCH  12  15
ATOM     15  C   UNL     1      10.331  16.614  19.371  0.00  0.00    +0.000 A 
ATOM     16  C   UNL     1       9.865  16.996  18.119  0.00  0.00    +0.000 A 
ATOM     17  C   UNL     1      10.830  17.708  17.351  0.00  0.00    +0.000 A 
ATOM     18  C   UNL     1      12.032  17.808  18.008  0.00  0.00    +0.000 A 
ATOM     19  S   UNL     1      12.007  16.996  19.508  0.00  0.00    +0.000 S 
ENDBRANCH  12  15
BRANCH  12  20
ATOM     20  O   UNL     1       9.401  16.917  21.522  0.00  0.00    +0.000 OA
ATOM     21  H   UNL     1      10.180  16.859  22.099  0.00  0.00    +0.000 HD
ENDBRANCH  12  20
ENDBRANCH   7   9
ENDBRANCH   3   5
BRANCH   2  22
ATOM     22  C   UNL     1       7.895   6.479  18.796  0.00  0.00    +0.000 C 
BRANCH  22  23
ATOM     23  N   UNL     1       6.562   5.918  18.932  0.00  0.00    +0.000 N 
ATOM     24  C   UNL     1       6.150   4.882  18.122  0.00  0.00    +0.000 C 
ATOM     25  O   UNL     1       6.914   4.317  17.344  0.00  0.00    +0.000 OA
ATOM     26  H   UNL     1       5.999   6.203  19.724  0.00  0.00    +0.000 HD
BRANCH  24  27
ATOM     27  C   UNL     1       4.722   4.450  18.238  0.00  0.00    +0.000 A 
ATOM     28  C   UNL     1       4.139   3.803  17.142  0.00  0.00    +0.000 A 
ATOM     29  C   UNL     1       2.804   3.395  17.182  0.00  0.00    +0.000 A 
ATOM     30  C   UNL     1       2.032   3.653  18.312  0.00  0.00    +0.000 A 
ATOM     31  C   UNL     1       2.584   4.321  19.417  0.00  0.00    +0.000 A 
ATOM     32  C   UNL     1       3.937   4.721  19.370  0.00  0.00    +0.000 A 
BRANCH  31  33
ATOM     33  C   UNL     1       1.738   4.623  20.633  0.00  0.00    +0.000 C 
ATOM     34  F   UNL     1       0.413   4.360  20.459  0.00  0.00    +0.000 F 
ATOM     35  F   UNL     1       2.123   3.902  21.721  0.00  0.00    +0.000 F 
ATOM     36  F   UNL     1       1.812   5.931  21.005  0.00  0.00    +0.000 F 
ENDBRANCH  31  33
ENDBRANCH  24  27
ENDBRANCH  22  23
ENDBRANCH   2  22
TORSDOF 8
ENDMDL
MODEL 3
REMARK VINA RESULT:      -8.2      5.375     11.476
REMARK  Name = 
REMARK  8 active torsions:
REMARK  status: ('A' for Active; 'I' for Inactive)
REMARK    1  A    between atoms: C_2  and  C_3
REMARK    2  A    between atoms: C_3  and  N_4
REMARK    3  A    between atoms: C_5  and  C_7
REMARK    4  A    between atoms: C_11  and  C_12
REMARK    5  A    between atoms: N_17  and  C_18
REMARK    6  A    between atoms: N_20  and  C_21
REMARK    7  A    between atoms: C_24  and  O_25
REMARK    8  A    between atoms: C_24  and  C_26
REMARK                            x       y       z     vdW  Elec       q    Type
REMARK                         _______ _______ _______ _____ _____    ______ ____
ROOT
ATOM      1  O   UNL     1       1.746   9.120  22.302  0.00  0.00    +0.000 OA
ATOM      2  C   UNL     1       1.236   8.638  21.294  0.00  0.00    +0.000 C 
ATOM      3  N   UNL     1       0.576   9.368  20.321  0.00  0.00    +0.000 N 
ATOM      4  H   UNL     1       0.385   8.856  19.458  0.00  0.00    +0.000 HD
ENDROOT
BRANCH   3   5
ATOM      5  C   UNL     1       0.255  10.822  20.357  0.00  0.00    +0.000 C 
ATOM      6  C   UNL     1      -1.158  11.258  19.899  0.00  0.00    +0.000 C 
ATOM      7  N   UNL     1      -1.179  12.234  21.006  0.00  0.00    +0.000 NA
ATOM      8  C   UNL     1      -0.106  11.485  21.705  0.00  0.00    +0.000 C 
BRANCH   7   9
ATOM      9  C   UNL     1      -2.469  12.302  21.728  0.00  0.00    +0.000 C 
ATOM     10  C   UNL     1      -2.440  12.225  23.271  0.00  0.00    +0.000 C 
ATOM     11  C   UNL     1      -3.784  12.539  23.924  0.00  0.00    +0.000 C 
ATOM     12  C   UNL     1      -4.328  13.909  23.483  0.00  0.00    +0.000 C 
ATOM     13  C   UNL     1      -4.539  13.831  21.963  0.00  0.00    +0.000 C 
ATOM     14  C   UNL     1      -3.253  13.521  21.191  0.00  0.00    +0.000 C 
BRANCH  12  15
ATOM     15  C   UNL     1      -3.462  15.073  23.968  0.00  0.00    +0.000 A 
ATOM     16  C   UNL     1      -3.174  16.261  23.308  0.00  0.00    +0.000 A 
ATOM     17  C   UNL     1      -2.416  17.173  24.097  0.00  0.00    +0.000 A 
ATOM     18  C   UNL     1      -2.094  16.643  25.322  0.00  0.00    +0.000 A 
ATOM     19  S   UNL     1      -2.648  15.038  25.487  0.00  0.00    +0.000 S 
ENDBRANCH  12  15
BRANCH  12  20
ATOM     20  O   UNL     1      -5.609  14.092  24.097  0.00  0.00    +0.000 OA
ATOM     21  H   UNL     1      -5.450  14.410  25.001  0.00  0.00    +0.000 HD
ENDBRANCH  12  20
ENDBRANCH   7   9
ENDBRANCH   3   5
BRANCH   2  22
ATOM     22  C   UNL     1       1.318   7.132  21.003  0.00  0.00    +0.000 C 
BRANCH  22  23
ATOM     23  N   UNL     1       2.367   6.771  20.065  0.00  0.00    +0.000 N 
ATOM     24  C   UNL     1       2.436   5.497  19.543  0.00  0.00    +0.000 C 
ATOM     25  O   UNL     1       1.562   4.659  19.751  0.00  0.00    +0.000 OA
ATOM     26  H   UNL     1       2.956   7.508  19.695  0.00  0.00    +0.000 HD
BRANCH  24  27
ATOM     27  C   UNL     1       3.619   5.171  18.688  0.00  0.00    +0.000 A 
ATOM     28  C   UNL     1       3.398   4.463  17.501  0.00  0.00    +0.000 A 
ATOM     29  C   UNL     1       4.465   4.110  16.672  0.00  0.00    +0.000 A 
ATOM     30  C   UNL     1       5.768   4.443  17.035  0.00  0.00    +0.000 A 
ATOM     31  C   UNL     1       6.021   5.132  18.233  0.00  0.00    +0.000 A 
ATOM     32  C   UNL     1       4.935   5.492  19.059  0.00  0.00    +0.000 A 
BRANCH  31  33
ATOM     33  C   UNL     1       7.438   5.470  18.640  0.00  0.00    +0.000 C 
ATOM     34  F   UNL     1       7.604   5.608  19.984  0.00  0.00    +0.000 F 
ATOM     35  F   UNL     1       8.328   4.516  18.249  0.00  0.00    +0.000 F 
ATOM     36  F   UNL     1       7.873   6.635  18.087  0.00  0.00    +0.000 F 
ENDBRANCH  31  33
ENDBRANCH  24  27
ENDBRANCH  22  23
ENDBRANCH   2  22
TORSDOF 8
ENDMDL
MODEL 4
REMARK VINA RESULT:      -8.2      5.412     11.324
REMARK  Name = 
REMARK  8 active torsions:
REMARK  status: ('A' for Active; 'I' for Inactive)
REMARK    1  A    between atoms: C_2  and  C_3
REMARK    2  A    between atoms: C_3  and  N_4
REMARK    3  A    between atoms: C_5  and  C_7
REMARK    4  A    between atoms: C_11  and  C_12
REMARK    5  A    between atoms: N_17  and  C_18
REMARK    6  A    between atoms: N_20  and  C_21
REMARK    7  A    between atoms: C_24  and  O_25
REMARK    8  A    between atoms: C_24  and  C_26
REMARK                            x       y       z     vdW  Elec       q    Type
REMARK                         _______ _______ _______ _____ _____    ______ ____
ROOT
ATOM      1  O   UNL     1      -0.503   9.951  17.843  0.00  0.00    +0.000 OA
ATOM      2  C   UNL     1       0.523  10.460  18.289  0.00  0.00    +0.000 C 
ATOM      3  N   UNL     1       0.579  11.691  18.921  0.00  0.00    +0.000 N 
ATOM      4  H   UNL     1       1.456  11.883  19.406  0.00  0.00    +0.000 HD
ENDROOT
BRANCH   3   5
ATOM      5  C   UNL     1      -0.534  12.669  19.072  0.00  0.00    +0.000 C 
ATOM      6  C   UNL     1      -1.977  12.113  19.140  0.00  0.00    +0.000 C 
ATOM      7  N   UNL     1      -2.276  13.110  20.187  0.00  0.00    +0.000 NA
ATOM      8  C   UNL     1      -0.827  13.275  20.463  0.00  0.00    +0.000 C 
BRANCH   7   9
ATOM      9  C   UNL     1      -3.073  12.580  21.316  0.00  0.00    +0.000 C 
ATOM     10  C   UNL     1      -2.383  12.455  22.693  0.00  0.00    +0.000 C 
ATOM     11  C   UNL     1      -3.347  12.127  23.832  0.00  0.00    +0.000 C 
ATOM     12  C   UNL     1      -4.498  13.144  23.917  0.00  0.00    +0.000 C 
ATOM     13  C   UNL     1      -5.270  13.050  22.593  0.00  0.00    +0.000 C 
ATOM     14  C   UNL     1      -4.405  13.362  21.367  0.00  0.00    +0.000 C 
BRANCH  12  15
ATOM     15  C   UNL     1      -4.021  14.546  24.302  0.00  0.00    +0.000 A 
ATOM     16  C   UNL     1      -2.906  14.897  25.054  0.00  0.00    +0.000 A 
ATOM     17  C   UNL     1      -2.701  16.303  25.133  0.00  0.00    +0.000 A 
ATOM     18  C   UNL     1      -3.692  17.001  24.487  0.00  0.00    +0.000 A 
ATOM     19  S   UNL     1      -4.888  15.965  23.849  0.00  0.00    +0.000 S 
ENDBRANCH  12  15
BRANCH  12  20
ATOM     20  O   UNL     1      -5.375  12.727  24.970  0.00  0.00    +0.000 OA
ATOM     21  H   UNL     1      -4.832  12.615  25.768  0.00  0.00    +0.000 HD
ENDBRANCH  12  20
ENDBRANCH   7   9
ENDBRANCH   3   5
BRANCH   2  22
ATOM     22  C   UNL     1       1.873   9.732  18.210  0.00  0.00    +0.000 C 
BRANCH  22  23
ATOM     23  N   UNL     1       1.859   8.403  18.794  0.00  0.00    +0.000 N 
ATOM     24  C   UNL     1       2.702   7.419  18.323  0.00  0.00    +0.000 C 
ATOM     25  O   UNL     1       3.569   7.650  17.483  0.00  0.00    +0.000 OA
ATOM     26  H   UNL     1       1.327   8.256  19.643  0.00  0.00    +0.000 HD
BRANCH  24  27
ATOM     27  C   UNL     1       2.535   6.045  18.890  0.00  0.00    +0.000 A 
ATOM     28  C   UNL     1       2.018   5.926  20.185  0.00  0.00    +0.000 A 
ATOM     29  C   UNL     1       1.859   4.671  20.777  0.00  0.00    +0.000 A 
ATOM     30  C   UNL     1       2.239   3.523  20.086  0.00  0.00    +0.000 A 
ATOM     31  C   UNL     1       2.783   3.614  18.794  0.00  0.00    +0.000 A 
ATOM     32  C   UNL     1       2.931   4.887  18.201  0.00  0.00    +0.000 A 
BRANCH  31  33
ATOM     33  C   UNL     1       3.220   2.370  18.055  0.00  0.00    +0.000 C 
ATOM     34  F   UNL     1       3.629   1.361  18.872  0.00  0.00    +0.000 F 
ATOM     35  F   UNL     1       2.222   1.849  17.288  0.00  0.00    +0.000 F 
ATOM     36  F   UNL     1       4.258   2.608  17.206  0.00  0.00    +0.000 F 
ENDBRANCH  31  33
ENDBRANCH  24  27
ENDBRANCH  22  23
ENDBRANCH   2  22
TORSDOF 8
ENDMDL
MODEL 5
REMARK VINA RESULT:      -8.1      4.961     11.012
REMARK  Name = 
REMARK  8 active torsions:
REMARK  status: ('A' for Active; 'I' for Inactive)
REMARK    1  A    between atoms: C_2  and  C_3
REMARK    2  A    between atoms: C_3  and  N_4
REMARK    3  A    between atoms: C_5  and  C_7
REMARK    4  A    between atoms: C_11  and  C_12
REMARK    5  A    between atoms: N_17  and  C_18
REMARK    6  A    between atoms: N_20  and  C_21
REMARK    7  A    between atoms: C_24  and  O_25
REMARK    8  A    between atoms: C_24  and  C_26
REMARK                            x       y       z     vdW  Elec       q    Type
REMARK                         _______ _______ _______ _____ _____    ______ ____
ROOT
ATOM      1  O   UNL     1      -0.023   9.874  18.825  0.00  0.00    +0.000 OA
ATOM      2  C   UNL     1       1.073  10.273  18.440  0.00  0.00    +0.000 C 
ATOM      3  N   UNL     1       1.571  11.544  18.668  0.00  0.00    +0.000 N 
ATOM      4  H   UNL     1       2.564  11.658  18.461  0.00  0.00    +0.000 HD
ENDROOT
BRANCH   3   5
ATOM      5  C   UNL     1       0.853  12.686  19.298  0.00  0.00    +0.000 C 
ATOM      6  C   UNL     1      -0.688  12.733  19.157  0.00  0.00    +0.000 C 
ATOM      7  N   UNL     1      -0.770  13.194  20.557  0.00  0.00    +0.000 NA
ATOM      8  C   UNL     1       0.595  12.672  20.821  0.00  0.00    +0.000 C 
BRANCH   7   9
ATOM      9  C   UNL     1      -1.848  12.554  21.342  0.00  0.00    +0.000 C 
ATOM     10  C   UNL     1      -1.639  12.395  22.864  0.00  0.00    +0.000 C 
ATOM     11  C   UNL     1      -2.894  11.944  23.610  0.00  0.00    +0.000 C 
ATOM     12  C   UNL     1      -4.083  12.883  23.345  0.00  0.00    +0.000 C 
ATOM     13  C   UNL     1      -4.371  12.815  21.837  0.00  0.00    +0.000 C 
ATOM     14  C   UNL     1      -3.180  13.248  20.976  0.00  0.00    +0.000 C 
BRANCH  12  15
ATOM     15  C   UNL     1      -3.867  14.287  23.910  0.00  0.00    +0.000 A 
ATOM     16  C   UNL     1      -3.107  14.660  25.012  0.00  0.00    +0.000 A 
ATOM     17  C   UNL     1      -3.040  16.071  25.197  0.00  0.00    +0.000 A 
ATOM     18  C   UNL     1      -3.794  16.744  24.267  0.00  0.00    +0.000 A 
ATOM     19  S   UNL     1      -4.621  15.677  23.224  0.00  0.00    +0.000 S 
ENDBRANCH  12  15
BRANCH  12  20
ATOM     20  O   UNL     1      -5.222  12.354  24.035  0.00  0.00    +0.000 OA
ATOM     21  H   UNL     1      -5.998  12.852  23.731  0.00  0.00    +0.000 HD
ENDBRANCH  12  20
ENDBRANCH   7   9
ENDBRANCH   3   5
BRANCH   2  22
ATOM     22  C   UNL     1       2.033   9.350  17.673  0.00  0.00    +0.000 C 
BRANCH  22  23
ATOM     23  N   UNL     1       2.294   8.088  18.341  0.00  0.00    +0.000 N 
ATOM     24  C   UNL     1       3.331   7.278  17.931  0.00  0.00    +0.000 C 
ATOM     25  O   UNL     1       4.139   7.633  17.077  0.00  0.00    +0.000 OA
ATOM     26  H   UNL     1       1.795   7.885  19.199  0.00  0.00    +0.000 HD
BRANCH  24  27
ATOM     27  C   UNL     1       3.452   5.938  18.586  0.00  0.00    +0.000 A 
ATOM     28  C   UNL     1       4.655   5.238  18.437  0.00  0.00    +0.000 A 
ATOM     29  C   UNL     1       4.820   3.974  19.006  0.00  0.00    +0.000 A 
ATOM     30  C   UNL     1       3.773   3.386  19.711  0.00  0.00    +0.000 A 
ATOM     31  C   UNL     1       2.546   4.054  19.855  0.00  0.00    +0.000 A 
ATOM     32  C   UNL     1       2.392   5.336  19.284  0.00  0.00    +0.000 A 
BRANCH  31  33
ATOM     33  C   UNL     1       1.400   3.404  20.597  0.00  0.00    +0.000 C 
ATOM     34  F   UNL     1       1.119   2.140  20.176  0.00  0.00    +0.000 F 
ATOM     35  F   UNL     1       1.640   3.309  21.934  0.00  0.00    +0.000 F 
ATOM     36  F   UNL     1       0.239   4.105  20.475  0.00  0.00    +0.000 F 
ENDBRANCH  31  33
ENDBRANCH  24  27
ENDBRANCH  22  23
ENDBRANCH   2  22
TORSDOF 8
ENDMDL
MODEL 6
REMARK VINA RESULT:      -8.1      3.253      4.682
REMARK  Name = 
REMARK  8 active torsions:
REMARK  status: ('A' for Active; 'I' for Inactive)
REMARK    1  A    between atoms: C_2  and  C_3
REMARK    2  A    between atoms: C_3  and  N_4
REMARK    3  A    between atoms: C_5  and  C_7
REMARK    4  A    between atoms: C_11  and  C_12
REMARK    5  A    between atoms: N_17  and  C_18
REMARK    6  A    between atoms: N_20  and  C_21
REMARK    7  A    between atoms: C_24  and  O_25
REMARK    8  A    between atoms: C_24  and  C_26
REMARK                            x       y       z     vdW  Elec       q    Type
REMARK                         _______ _______ _______ _____ _____    ______ ____
ROOT
ATOM      1  O   UNL     1       0.567  12.103  18.820  0.00  0.00    +0.000 OA
ATOM      2  C   UNL     1      -0.160  11.159  18.521  0.00  0.00    +0.000 C 
ATOM      3  N   UNL     1       0.166   9.827  18.707  0.00  0.00    +0.000 N 
ATOM      4  H   UNL     1      -0.613   9.177  18.594  0.00  0.00    +0.000 HD
ENDROOT
BRANCH   3   5
ATOM      5  C   UNL     1       1.469   9.283  19.179  0.00  0.00    +0.000 C 
ATOM      6  C   UNL     1       1.436   8.080  20.153  0.00  0.00    +0.000 C 
ATOM      7  N   UNL     1       2.584   7.502  19.427  0.00  0.00    +0.000 NA
ATOM      8  C   UNL     1       2.286   8.357  18.251  0.00  0.00    +0.000 C 
BRANCH   7   9
ATOM      9  C   UNL     1       2.476   6.046  19.186  0.00  0.00    +0.000 C 
ATOM     10  C   UNL     1       2.239   5.567  17.737  0.00  0.00    +0.000 C 
ATOM     11  C   UNL     1       2.379   4.056  17.562  0.00  0.00    +0.000 C 
ATOM     12  C   UNL     1       3.743   3.548  18.060  0.00  0.00    +0.000 C 
ATOM     13  C   UNL     1       3.811   3.865  19.562  0.00  0.00    +0.000 C 
ATOM     14  C   UNL     1       3.682   5.361  19.868  0.00  0.00    +0.000 C 
BRANCH  12  15
ATOM     15  C   UNL     1       4.911   4.072  17.224  0.00  0.00    +0.000 A 
ATOM     16  C   UNL     1       5.003   4.165  15.841  0.00  0.00    +0.000 A 
ATOM     17  C   UNL     1       6.198   4.800  15.398  0.00  0.00    +0.000 A 
ATOM     18  C   UNL     1       7.021   5.130  16.447  0.00  0.00    +0.000 A 
ATOM     19  S   UNL     1       6.380   4.619  17.944  0.00  0.00    +0.000 S 
ENDBRANCH  12  15
BRANCH  12  20
ATOM     20  O   UNL     1       3.762   2.123  17.909  0.00  0.00    +0.000 OA
ATOM     21  H   UNL     1       3.965   1.937  16.978  0.00  0.00    +0.000 HD
ENDBRANCH  12  20
ENDBRANCH   7   9
ENDBRANCH   3   5
BRANCH   2  22
ATOM     22  C   UNL     1      -1.556  11.387  17.921  0.00  0.00    +0.000 C 
BRANCH  22  23
ATOM     23  N   UNL     1      -2.600  11.566  18.915  0.00  0.00    +0.000 N 
ATOM     24  C   UNL     1      -3.907  11.772  18.531  0.00  0.00    +0.000 C 
ATOM     25  O   UNL     1      -4.263  11.698  17.357  0.00  0.00    +0.000 OA
ATOM     26  H   UNL     1      -2.374  11.393  19.887  0.00  0.00    +0.000 HD
BRANCH  24  27
ATOM     27  C   UNL     1      -4.898  12.076  19.610  0.00  0.00    +0.000 A 
ATOM     28  C   UNL     1      -6.259  11.940  19.312  0.00  0.00    +0.000 A 
ATOM     29  C   UNL     1      -7.231  12.229  20.272  0.00  0.00    +0.000 A 
ATOM     30  C   UNL     1      -6.851  12.683  21.533  0.00  0.00    +0.000 A 
ATOM     31  C   UNL     1      -5.493  12.852  21.851  0.00  0.00    +0.000 A 
ATOM     32  C   UNL     1      -4.518  12.547  20.877  0.00  0.00    +0.000 A 
BRANCH  31  33
ATOM     33  C   UNL     1      -5.082  13.369  23.211  0.00  0.00    +0.000 C 
ATOM     34  F   UNL     1      -6.120  13.510  24.082  0.00  0.00    +0.000 F 
ATOM     35  F   UNL     1      -4.187  12.548  23.826  0.00  0.00    +0.000 F 
ATOM     36  F   UNL     1      -4.484  14.590  23.143  0.00  0.00    +0.000 F 
ENDBRANCH  31  33
ENDBRANCH  24  27
ENDBRANCH  22  23
ENDBRANCH   2  22
TORSDOF 8
ENDMDL
MODEL 7
REMARK VINA RESULT:      -8.0      6.394      9.712
REMARK  Name = 
REMARK  8 active torsions:
REMARK  status: ('A' for Active; 'I' for Inactive)
REMARK    1  A    between atoms: C_2  and  C_3
REMARK    2  A    between atoms: C_3  and  N_4
REMARK    3  A    between atoms: C_5  and  C_7
REMARK    4  A    between atoms: C_11  and  C_12
REMARK    5  A    between atoms: N_17  and  C_18
REMARK    6  A    between atoms: N_20  and  C_21
REMARK    7  A    between atoms: C_24  and  O_25
REMARK    8  A    between atoms: C_24  and  C_26
REMARK                            x       y       z     vdW  Elec       q    Type
REMARK                         _______ _______ _______ _____ _____    ______ ____
ROOT
ATOM      1  O   UNL     1       8.595   7.286  18.965  0.00  0.00    +0.000 OA
ATOM      2  C   UNL     1       8.130   8.153  18.229  0.00  0.00    +0.000 C 
ATOM      3  N   UNL     1       8.463   9.495  18.289  0.00  0.00    +0.000 N 
ATOM      4  H   UNL     1       8.148  10.050  17.492  0.00  0.00    +0.000 HD
ENDROOT
BRANCH   3   5
ATOM      5  C   UNL     1       9.331  10.157  19.303  0.00  0.00    +0.000 C 
ATOM      6  C   UNL     1      10.616  10.860  18.801  0.00  0.00    +0.000 C 
ATOM      7  N   UNL     1      10.353  11.951  19.761  0.00  0.00    +0.000 NA
ATOM      8  C   UNL     1       8.929  11.542  19.855  0.00  0.00    +0.000 C 
BRANCH   7   9
ATOM      9  C   UNL     1      10.582  13.306  19.212  0.00  0.00    +0.000 C 
ATOM     10  C   UNL     1      10.104  13.594  17.772  0.00  0.00    +0.000 C 
ATOM     11  C   UNL     1      10.171  15.071  17.389  0.00  0.00    +0.000 C 
ATOM     12  C   UNL     1       9.394  15.954  18.381  0.00  0.00    +0.000 C 
ATOM     13  C   UNL     1      10.070  15.781  19.750  0.00  0.00    +0.000 C 
ATOM     14  C   UNL     1      10.064  14.331  20.246  0.00  0.00    +0.000 C 
BRANCH  12  15
ATOM     15  C   UNL     1       7.888  15.689  18.353  0.00  0.00    +0.000 A 
ATOM     16  C   UNL     1       7.200  14.716  17.638  0.00  0.00    +0.000 A 
ATOM     17  C   UNL     1       5.807  14.685  17.927  0.00  0.00    +0.000 A 
ATOM     18  C   UNL     1       5.447  15.669  18.814  0.00  0.00    +0.000 A 
ATOM     19  S   UNL     1       6.771  16.656  19.242  0.00  0.00    +0.000 S 
ENDBRANCH  12  15
BRANCH  12  20
ATOM     20  O   UNL     1       9.558  17.318  17.977  0.00  0.00    +0.000 OA
ATOM     21  H   UNL     1      10.461  17.582  18.219  0.00  0.00    +0.000 HD
ENDBRANCH  12  20
ENDBRANCH   7   9
ENDBRANCH   3   5
BRANCH   2  22
ATOM     22  C   UNL     1       7.128   7.803  17.119  0.00  0.00    +0.000 C 
BRANCH  22  23
ATOM     23  N   UNL     1       5.976   7.051  17.583  0.00  0.00    +0.000 N 
ATOM     24  C   UNL     1       5.862   5.703  17.318  0.00  0.00    +0.000 C 
ATOM     25  O   UNL     1       6.768   5.063  16.789  0.00  0.00    +0.000 OA
ATOM     26  H   UNL     1       5.334   7.501  18.225  0.00  0.00    +0.000 HD
BRANCH  24  27
ATOM     27  C   UNL     1       4.586   5.032  17.717  0.00  0.00    +0.000 A 
ATOM     28  C   UNL     1       4.065   4.049  16.868  0.00  0.00    +0.000 A 
ATOM     29  C   UNL     1       2.867   3.402  17.176  0.00  0.00    +0.000 A 
ATOM     30  C   UNL     1       2.164   3.751  18.327  0.00  0.00    +0.000 A 
ATOM     31  C   UNL     1       2.651   4.751  19.185  0.00  0.00    +0.000 A 
ATOM     32  C   UNL     1       3.868   5.392  18.869  0.00  0.00    +0.000 A 
BRANCH  31  33
ATOM     33  C   UNL     1       1.874   5.148  20.420  0.00  0.00    +0.000 C 
ATOM     34  F   UNL     1       2.461   4.758  21.586  0.00  0.00    +0.000 F 
ATOM     35  F   UNL     1       1.711   6.496  20.516  0.00  0.00    +0.000 F 
ATOM     36  F   UNL     1       0.621   4.617  20.438  0.00  0.00    +0.000 F 
ENDBRANCH  31  33
ENDBRANCH  24  27
ENDBRANCH  22  23
ENDBRANCH   2  22
TORSDOF 8
ENDMDL
MODEL 8
REMARK VINA RESULT:      -8.0      5.287     11.434
REMARK  Name = 
REMARK  8 active torsions:
REMARK  status: ('A' for Active; 'I' for Inactive)
REMARK    1  A    between atoms: C_2  and  C_3
REMARK    2  A    between atoms: C_3  and  N_4
REMARK    3  A    between atoms: C_5  and  C_7
REMARK    4  A    between atoms: C_11  and  C_12
REMARK    5  A    between atoms: N_17  and  C_18
REMARK    6  A    between atoms: N_20  and  C_21
REMARK    7  A    between atoms: C_24  and  O_25
REMARK    8  A    between atoms: C_24  and  C_26
REMARK                            x       y       z     vdW  Elec       q    Type
REMARK                         _______ _______ _______ _____ _____    ______ ____
ROOT
ATOM      1  O   UNL     1       2.076   9.585  17.902  0.00  0.00    +0.000 OA
ATOM      2  C   UNL     1       1.658   9.048  18.925  0.00  0.00    +0.000 C 
ATOM      3  N   UNL     1       0.795   9.643  19.829  0.00  0.00    +0.000 N 
ATOM      4  H   UNL     1       0.387   9.005  20.514  0.00  0.00    +0.000 HD
ENDROOT
BRANCH   3   5
ATOM      5  C   UNL     1       0.312  11.051  19.810  0.00  0.00    +0.000 C 
ATOM      6  C   UNL     1      -1.188  11.294  19.514  0.00  0.00    +0.000 C 
ATOM      7  N   UNL     1      -1.187  12.349  20.546  0.00  0.00    +0.000 NA
ATOM      8  C   UNL     1       0.046  11.780  21.145  0.00  0.00    +0.000 C 
BRANCH   7   9
ATOM      9  C   UNL     1      -2.376  12.336  21.426  0.00  0.00    +0.000 C 
ATOM     10  C   UNL     1      -2.151  12.164  22.944  0.00  0.00    +0.000 C 
ATOM     11  C   UNL     1      -3.409  12.399  23.779  0.00  0.00    +0.000 C 
ATOM     12  C   UNL     1      -4.030  13.779  23.500  0.00  0.00    +0.000 C 
ATOM     13  C   UNL     1      -4.430  13.790  22.016  0.00  0.00    +0.000 C 
ATOM     14  C   UNL     1      -3.245  13.564  21.071  0.00  0.00    +0.000 C 
BRANCH  12  15
ATOM     15  C   UNL     1      -3.133  14.933  23.948  0.00  0.00    +0.000 A 
ATOM     16  C   UNL     1      -2.199  14.945  24.977  0.00  0.00    +0.000 A 
ATOM     17  C   UNL     1      -1.462  16.160  25.054  0.00  0.00    +0.000 A 
ATOM     18  C   UNL     1      -1.883  17.073  24.118  0.00  0.00    +0.000 A 
ATOM     19  S   UNL     1      -3.197  16.486  23.202  0.00  0.00    +0.000 S 
ENDBRANCH  12  15
BRANCH  12  20
ATOM     20  O   UNL     1      -5.226  13.887  24.279  0.00  0.00    +0.000 OA
ATOM     21  H   UNL     1      -5.123  13.301  25.046  0.00  0.00    +0.000 HD
ENDBRANCH  12  20
ENDBRANCH   7   9
ENDBRANCH   3   5
BRANCH   2  22
ATOM     22  C   UNL     1       2.046   7.605  19.282  0.00  0.00    +0.000 C 
BRANCH  22  23
ATOM     23  N   UNL     1       3.191   7.104  18.543  0.00  0.00    +0.000 N 
ATOM     24  C   UNL     1       3.469   5.755  18.507  0.00  0.00    +0.000 C 
ATOM     25  O   UNL     1       2.709   4.918  18.991  0.00  0.00    +0.000 OA
ATOM     26  H   UNL     1       3.692   7.745  17.940  0.00  0.00    +0.000 HD
BRANCH  24  27
ATOM     27  C   UNL     1       4.736   5.334  17.833  0.00  0.00    +0.000 A 
ATOM     28  C   UNL     1       5.905   5.284  18.601  0.00  0.00    +0.000 A 
ATOM     29  C   UNL     1       7.123   4.920  18.023  0.00  0.00    +0.000 A 
ATOM     30  C   UNL     1       7.188   4.625  16.663  0.00  0.00    +0.000 A 
ATOM     31  C   UNL     1       6.035   4.691  15.863  0.00  0.00    +0.000 A 
ATOM     32  C   UNL     1       4.807   5.051  16.459  0.00  0.00    +0.000 A 
BRANCH  31  33
ATOM     33  C   UNL     1       6.110   4.396  14.382  0.00  0.00    +0.000 C 
ATOM     34  F   UNL     1       4.912   4.488  13.743  0.00  0.00    +0.000 F 
ATOM     35  F   UNL     1       6.949   5.247  13.729  0.00  0.00    +0.000 F 
ATOM     36  F   UNL     1       6.575   3.142  14.126  0.00  0.00    +0.000 F 
ENDBRANCH  31  33
ENDBRANCH  24  27
ENDBRANCH  22  23
ENDBRANCH   2  22
TORSDOF 8
ENDMDL
MODEL 9
REMARK VINA RESULT:      -8.0      5.299     11.785
REMARK  Name = 
REMARK  8 active torsions:
REMARK  status: ('A' for Active; 'I' for Inactive)
REMARK    1  A    between atoms: C_2  and  C_3
REMARK    2  A    between atoms: C_3  and  N_4
REMARK    3  A    between atoms: C_5  and  C_7
REMARK    4  A    between atoms: C_11  and  C_12
REMARK    5  A    between atoms: N_17  and  C_18
REMARK    6  A    between atoms: N_20  and  C_21
REMARK    7  A    between atoms: C_24  and  O_25
REMARK    8  A    between atoms: C_24  and  C_26
REMARK                            x       y       z     vdW  Elec       q    Type
REMARK                         _______ _______ _______ _____ _____    ______ ____
ROOT
ATOM      1  O   UNL     1       0.691   9.787  19.498  0.00  0.00    +0.000 OA
ATOM      2  C   UNL     1       0.814   9.463  20.677  0.00  0.00    +0.000 C 
ATOM      3  N   UNL     1       0.347  10.204  21.749  0.00  0.00    +0.000 N 
ATOM      4  H   UNL     1       0.349   9.711  22.643  0.00  0.00    +0.000 HD
ENDROOT
BRANCH   3   5
ATOM      5  C   UNL     1      -0.269  11.559  21.698  0.00  0.00    +0.000 C 
ATOM      6  C   UNL     1      -1.619  11.708  20.954  0.00  0.00    +0.000 C 
ATOM      7  N   UNL     1      -2.067  12.627  22.019  0.00  0.00    +0.000 NA
ATOM      8  C   UNL     1      -1.026  12.094  22.934  0.00  0.00    +0.000 C 
BRANCH   7   9
ATOM      9  C   UNL     1      -3.462  12.407  22.460  0.00  0.00    +0.000 C 
ATOM     10  C   UNL     1      -3.877  12.949  23.845  0.00  0.00    +0.000 C 
ATOM     11  C   UNL     1      -5.382  12.880  24.102  0.00  0.00    +0.000 C 
ATOM     12  C   UNL     1      -6.182  13.598  23.002  0.00  0.00    +0.000 C 
ATOM     13  C   UNL     1      -5.886  12.860  21.688  0.00  0.00    +0.000 C 
ATOM     14  C   UNL     1      -4.399  12.861  21.318  0.00  0.00    +0.000 C 
BRANCH  12  15
ATOM     15  C   UNL     1      -5.935  15.107  22.979  0.00  0.00    +0.000 A 
ATOM     16  C   UNL     1      -5.747  15.962  24.058  0.00  0.00    +0.000 A 
ATOM     17  C   UNL     1      -5.437  17.297  23.670  0.00  0.00    +0.000 A 
ATOM     18  C   UNL     1      -5.448  17.448  22.305  0.00  0.00    +0.000 A 
ATOM     19  S   UNL     1      -5.890  16.006  21.508  0.00  0.00    +0.000 S 
ENDBRANCH  12  15
BRANCH  12  20
ATOM     20  O   UNL     1      -7.575  13.434  23.296  0.00  0.00    +0.000 OA
ATOM     21  H   UNL     1      -7.690  13.604  24.245  0.00  0.00    +0.000 HD
ENDBRANCH  12  20
ENDBRANCH   7   9
ENDBRANCH   3   5
BRANCH   2  22
ATOM     22  C   UNL     1       1.492   8.143  21.073  0.00  0.00    +0.000 C 
BRANCH  22  23
ATOM     23  N   UNL     1       2.090   7.431  19.958  0.00  0.00    +0.000 N 
ATOM     24  C   UNL     1       2.169   6.055  19.964  0.00  0.00    +0.000 C 
ATOM     25  O   UNL     1       1.642   5.374  20.841  0.00  0.00    +0.000 OA
ATOM     26  H   UNL     1       2.313   7.952  19.118  0.00  0.00    +0.000 HD
BRANCH  24  27
ATOM     27  C   UNL     1       2.913   5.407  18.840  0.00  0.00    +0.000 A 
ATOM     28  C   UNL     1       2.726   4.036  18.628  0.00  0.00    +0.000 A 
ATOM     29  C   UNL     1       3.410   3.372  17.608  0.00  0.00    +0.000 A 
ATOM     30  C   UNL     1       4.308   4.069  16.804  0.00  0.00    +0.000 A 
ATOM     31  C   UNL     1       4.534   5.440  17.008  0.00  0.00    +0.000 A 
ATOM     32  C   UNL     1       3.831   6.105  18.036  0.00  0.00    +0.000 A 
BRANCH  31  33
ATOM     33  C   UNL     1       5.528   6.191  16.152  0.00  0.00    +0.000 C 
ATOM     34  F   UNL     1       5.007   6.649  14.980  0.00  0.00    +0.000 F 
ATOM     35  F   UNL     1       6.036   7.282  16.787  0.00  0.00    +0.000 F 
ATOM     36  F   UNL     1       6.601   5.425  15.809  0.00  0.00    +0.000 F 
ENDBRANCH  31  33
ENDBRANCH  24  27
ENDBRANCH  22  23
ENDBRANCH   2  22
TORSDOF 8
ENDMDL
