MODEL 1
REMARK VINA RESULT:      -7.4      0.000      0.000
REMARK  Name = 
REMARK  1 active torsions:
REMARK  status: ('A' for Active; 'I' for Inactive)
REMARK    1  A    between atoms: C_5  and  C_6
REMARK                            x       y       z     vdW  Elec       q    Type
REMARK                         _______ _______ _______ _____ _____    ______ ____
ROOT
ATOM      1  C   UNL     1       5.211   4.941  17.272  0.00  0.00    +0.000 A 
ATOM      2  C   UNL     1       5.398   5.315  15.994  0.00  0.00    +0.000 A 
ATOM      3  C   UNL     1       6.663   6.045  15.708  0.00  0.00    +0.000 A 
ATOM      4  N   UNL     1       7.584   6.356  16.565  0.00  0.00    +0.000 NA
ATOM      5  C   UNL     1       7.352   5.966  17.855  0.00  0.00    +0.000 A 
ATOM      6  N   UNL     1       8.081   6.134  18.938  0.00  0.00    +0.000 NA
ATOM      7  N   UNL     1       7.393   5.552  19.969  0.00  0.00    +0.000 NA
ATOM      8  N   UNL     1       6.252   5.026  19.551  0.00  0.00    +0.000 NA
ATOM      9  N   UNL     1       6.191   5.267  18.220  0.00  0.00    +0.000 N 
ENDROOT
BRANCH   1  14
ATOM     10 CL   UNL     1       0.226   2.003  18.833  0.00  0.00    +0.000 Cl
ATOM     11  C   UNL     1       1.653   2.844  18.366  0.00  0.00    +0.000 A 
ATOM     12  C   UNL     1       2.805   2.130  18.045  0.00  0.00    +0.000 A 
ATOM     13  C   UNL     1       3.970   2.814  17.677  0.00  0.00    +0.000 A 
ATOM     14  C   UNL     1       3.985   4.215  17.635  0.00  0.00    +0.000 A 
ATOM     15  C   UNL     1       2.811   4.920  17.939  0.00  0.00    +0.000 A 
ATOM     16  C   UNL     1       1.648   4.235  18.310  0.00  0.00    +0.000 A 
ENDBRANCH   1  14
TORSDOF 1
ENDMDL
MODEL 2
REMARK VINA RESULT:      -7.3      0.098      1.212
REMARK  Name = 
REMARK  1 active torsions:
REMARK  status: ('A' for Active; 'I' for Inactive)
REMARK    1  A    between atoms: C_5  and  C_6
REMARK                            x       y       z     vdW  Elec       q    Type
REMARK                         _______ _______ _______ _____ _____    ______ ____
ROOT
ATOM      1  C   UNL     1       5.190   5.029  17.321  0.00  0.00    +0.000 A 
ATOM      2  C   UNL     1       5.331   5.457  16.054  0.00  0.00    +0.000 A 
ATOM      3  C   UNL     1       6.583   6.204  15.754  0.00  0.00    +0.000 A 
ATOM      4  N   UNL     1       7.534   6.482  16.591  0.00  0.00    +0.000 NA
ATOM      5  C   UNL     1       7.347   6.036  17.871  0.00  0.00    +0.000 A 
ATOM      6  N   UNL     1       8.114   6.161  18.934  0.00  0.00    +0.000 NA
ATOM      7  N   UNL     1       7.464   5.534  19.963  0.00  0.00    +0.000 NA
ATOM      8  N   UNL     1       6.310   5.022  19.563  0.00  0.00    +0.000 NA
ATOM      9  N   UNL     1       6.202   5.319  18.247  0.00  0.00    +0.000 N 
ENDROOT
BRANCH   1  14
ATOM     10 CL   UNL     1       0.241   1.974  18.765  0.00  0.00    +0.000 Cl
ATOM     11  C   UNL     1       1.665   2.853  18.369  0.00  0.00    +0.000 A 
ATOM     12  C   UNL     1       1.650   4.246  18.389  0.00  0.00    +0.000 A 
ATOM     13  C   UNL     1       2.805   4.961  18.054  0.00  0.00    +0.000 A 
ATOM     14  C   UNL     1       3.978   4.284  17.695  0.00  0.00    +0.000 A 
ATOM     15  C   UNL     1       3.986   2.881  17.702  0.00  0.00    +0.000 A 
ATOM     16  C   UNL     1       2.830   2.167  18.033  0.00  0.00    +0.000 A 
ENDBRANCH   1  14
TORSDOF 1
ENDMDL
MODEL 3
REMARK VINA RESULT:      -7.2      1.578      2.520
REMARK  Name = 
REMARK  1 active torsions:
REMARK  status: ('A' for Active; 'I' for Inactive)
REMARK    1  A    between atoms: C_5  and  C_6
REMARK                            x       y       z     vdW  Elec       q    Type
REMARK                         _______ _______ _______ _____ _____    ______ ____
ROOT
ATOM      1  C   UNL     1       5.260   5.048  17.229  0.00  0.00    +0.000 A 
ATOM      2  C   UNL     1       5.793   5.911  18.111  0.00  0.00    +0.000 A 
ATOM      3  C   UNL     1       7.020   6.624  17.664  0.00  0.00    +0.000 A 
ATOM      4  N   UNL     1       7.619   6.486  16.522  0.00  0.00    +0.000 NA
ATOM      5  C   UNL     1       7.051   5.592  15.658  0.00  0.00    +0.000 A 
ATOM      6  N   UNL     1       7.418   5.231  14.446  0.00  0.00    +0.000 NA
ATOM      7  N   UNL     1       6.505   4.305  14.018  0.00  0.00    +0.000 NA
ATOM      8  N   UNL     1       5.578   4.082  14.937  0.00  0.00    +0.000 NA
ATOM      9  N   UNL     1       5.890   4.877  15.988  0.00  0.00    +0.000 N 
ENDROOT
BRANCH   1  14
ATOM     10 CL   UNL     1       0.319   2.048  18.808  0.00  0.00    +0.000 Cl
ATOM     11  C   UNL     1       1.734   2.903  18.337  0.00  0.00    +0.000 A 
ATOM     12  C   UNL     1       2.938   2.220  18.178  0.00  0.00    +0.000 A 
ATOM     13  C   UNL     1       4.093   2.919  17.806  0.00  0.00    +0.000 A 
ATOM     14  C   UNL     1       4.046   4.304  17.597  0.00  0.00    +0.000 A 
ATOM     15  C   UNL     1       2.822   4.975  17.738  0.00  0.00    +0.000 A 
ATOM     16  C   UNL     1       1.669   4.277  18.113  0.00  0.00    +0.000 A 
ENDBRANCH   1  14
TORSDOF 1
ENDMDL
MODEL 4
REMARK VINA RESULT:      -7.2      1.572      2.772
REMARK  Name = 
REMARK  1 active torsions:
REMARK  status: ('A' for Active; 'I' for Inactive)
REMARK    1  A    between atoms: C_5  and  C_6
REMARK                            x       y       z     vdW  Elec       q    Type
REMARK                         _______ _______ _______ _____ _____    ______ ____
ROOT
ATOM      1  C   UNL     1       5.274   5.070  17.288  0.00  0.00    +0.000 A 
ATOM      2  C   UNL     1       5.814   5.949  18.149  0.00  0.00    +0.000 A 
ATOM      3  C   UNL     1       7.039   6.652  17.679  0.00  0.00    +0.000 A 
ATOM      4  N   UNL     1       7.629   6.491  16.536  0.00  0.00    +0.000 NA
ATOM      5  C   UNL     1       7.053   5.582  15.693  0.00  0.00    +0.000 A 
ATOM      6  N   UNL     1       7.410   5.197  14.485  0.00  0.00    +0.000 NA
ATOM      7  N   UNL     1       6.492   4.265  14.082  0.00  0.00    +0.000 NA
ATOM      8  N   UNL     1       5.572   4.060  15.013  0.00  0.00    +0.000 NA
ATOM      9  N   UNL     1       5.893   4.875  16.045  0.00  0.00    +0.000 N 
ENDROOT
BRANCH   1  14
ATOM     10 CL   UNL     1       0.334   2.036  18.807  0.00  0.00    +0.000 Cl
ATOM     11  C   UNL     1       1.753   2.913  18.389  0.00  0.00    +0.000 A 
ATOM     12  C   UNL     1       1.662   4.264  18.062  0.00  0.00    +0.000 A 
ATOM     13  C   UNL     1       2.815   4.975  17.709  0.00  0.00    +0.000 A 
ATOM     14  C   UNL     1       4.061   4.334  17.680  0.00  0.00    +0.000 A 
ATOM     15  C   UNL     1       4.141   2.979  18.034  0.00  0.00    +0.000 A 
ATOM     16  C   UNL     1       2.988   2.268  18.383  0.00  0.00    +0.000 A 
ENDBRANCH   1  14
TORSDOF 1
ENDMDL
MODEL 5
REMARK VINA RESULT:      -7.1      1.785      1.829
REMARK  Name = 
REMARK  1 active torsions:
REMARK  status: ('A' for Active; 'I' for Inactive)
REMARK    1  A    between atoms: C_5  and  C_6
REMARK                            x       y       z     vdW  Elec       q    Type
REMARK                         _______ _______ _______ _____ _____    ______ ____
ROOT
ATOM      1  C   UNL     1       4.690   5.420  18.375  0.00  0.00    +0.000 A 
ATOM      2  C   UNL     1       4.198   5.921  17.229  0.00  0.00    +0.000 A 
ATOM      3  C   UNL     1       5.162   6.669  16.377  0.00  0.00    +0.000 A 
ATOM      4  N   UNL     1       6.414   6.885  16.637  0.00  0.00    +0.000 NA
ATOM      5  C   UNL     1       6.873   6.366  17.816  0.00  0.00    +0.000 A 
ATOM      6  N   UNL     1       8.073   6.417  18.357  0.00  0.00    +0.000 NA
ATOM      7  N   UNL     1       7.998   5.738  19.543  0.00  0.00    +0.000 NA
ATOM      8  N   UNL     1       6.779   5.265  19.752  0.00  0.00    +0.000 NA
ATOM      9  N   UNL     1       6.040   5.641  18.682  0.00  0.00    +0.000 N 
ENDROOT
BRANCH   1  14
ATOM     10 CL   UNL     1       1.101   2.387  22.094  0.00  0.00    +0.000 Cl
ATOM     11  C   UNL     1       2.120   3.253  21.012  0.00  0.00    +0.000 A 
ATOM     12  C   UNL     1       3.075   2.571  20.261  0.00  0.00    +0.000 A 
ATOM     13  C   UNL     1       3.912   3.277  19.390  0.00  0.00    +0.000 A 
ATOM     14  C   UNL     1       3.798   4.669  19.271  0.00  0.00    +0.000 A 
ATOM     15  C   UNL     1       2.817   5.340  20.016  0.00  0.00    +0.000 A 
ATOM     16  C   UNL     1       1.983   4.634  20.889  0.00  0.00    +0.000 A 
ENDBRANCH   1  14
TORSDOF 1
ENDMDL
MODEL 6
REMARK VINA RESULT:      -7.1      1.467      1.776
REMARK  Name = 
REMARK  1 active torsions:
REMARK  status: ('A' for Active; 'I' for Inactive)
REMARK    1  A    between atoms: C_5  and  C_6
REMARK                            x       y       z     vdW  Elec       q    Type
REMARK                         _______ _______ _______ _____ _____    ______ ____
ROOT
ATOM      1  C   UNL     1       5.240   4.403  16.861  0.00  0.00    +0.000 A 
ATOM      2  C   UNL     1       5.368   3.679  15.736  0.00  0.00    +0.000 A 
ATOM      3  C   UNL     1       6.438   4.116  14.799  0.00  0.00    +0.000 A 
ATOM      4  N   UNL     1       7.242   5.121  14.962  0.00  0.00    +0.000 NA
ATOM      5  C   UNL     1       7.073   5.835  16.115  0.00  0.00    +0.000 A 
ATOM      6  N   UNL     1       7.717   6.894  16.561  0.00  0.00    +0.000 NA
ATOM      7  N   UNL     1       7.156   7.217  17.767  0.00  0.00    +0.000 NA
ATOM      8  N   UNL     1       6.176   6.383  18.081  0.00  0.00    +0.000 NA
ATOM      9  N   UNL     1       6.095   5.496  17.062  0.00  0.00    +0.000 N 
ENDROOT
BRANCH   1  14
ATOM     10 CL   UNL     1       1.016   2.978  20.867  0.00  0.00    +0.000 Cl
ATOM     11  C   UNL     1       2.227   3.370  19.710  0.00  0.00    +0.000 A 
ATOM     12  C   UNL     1       3.547   2.982  19.928  0.00  0.00    +0.000 A 
ATOM     13  C   UNL     1       4.535   3.311  18.992  0.00  0.00    +0.000 A 
ATOM     14  C   UNL     1       4.203   4.033  17.838  0.00  0.00    +0.000 A 
ATOM     15  C   UNL     1       2.866   4.398  17.620  0.00  0.00    +0.000 A 
ATOM     16  C   UNL     1       1.881   4.071  18.557  0.00  0.00    +0.000 A 
ENDBRANCH   1  14
TORSDOF 1
ENDMDL
MODEL 7
REMARK VINA RESULT:      -7.1      2.054      2.816
REMARK  Name = 
REMARK  1 active torsions:
REMARK  status: ('A' for Active; 'I' for Inactive)
REMARK    1  A    between atoms: C_5  and  C_6
REMARK                            x       y       z     vdW  Elec       q    Type
REMARK                         _______ _______ _______ _____ _____    ______ ____
ROOT
ATOM      1  C   UNL     1       5.603   5.156  18.280  0.00  0.00    +0.000 A 
ATOM      2  C   UNL     1       6.547   5.908  18.873  0.00  0.00    +0.000 A 
ATOM      3  C   UNL     1       7.565   6.507  17.969  0.00  0.00    +0.000 A 
ATOM      4  N   UNL     1       7.630   6.368  16.681  0.00  0.00    +0.000 NA
ATOM      5  C   UNL     1       6.656   5.590  16.118  0.00  0.00    +0.000 A 
ATOM      6  N   UNL     1       6.455   5.258  14.860  0.00  0.00    +0.000 NA
ATOM      7  N   UNL     1       5.342   4.461  14.837  0.00  0.00    +0.000 NA
ATOM      8  N   UNL     1       4.847   4.289  16.053  0.00  0.00    +0.000 NA
ATOM      9  N   UNL     1       5.651   4.987  16.889  0.00  0.00    +0.000 N 
ENDROOT
BRANCH   1  14
ATOM     10 CL   UNL     1       1.395   2.633  21.721  0.00  0.00    +0.000 Cl
ATOM     11  C   UNL     1       2.593   3.352  20.718  0.00  0.00    +0.000 A 
ATOM     12  C   UNL     1       3.610   2.566  20.180  0.00  0.00    +0.000 A 
ATOM     13  C   UNL     1       4.593   3.153  19.374  0.00  0.00    +0.000 A 
ATOM     14  C   UNL     1       4.561   4.529  19.108  0.00  0.00    +0.000 A 
ATOM     15  C   UNL     1       3.518   5.304  19.637  0.00  0.00    +0.000 A 
ATOM     16  C   UNL     1       2.539   4.717  20.445  0.00  0.00    +0.000 A 
ENDBRANCH   1  14
TORSDOF 1
ENDMDL
MODEL 8
REMARK VINA RESULT:      -7.0      1.470      2.036
REMARK  Name = 
REMARK  1 active torsions:
REMARK  status: ('A' for Active; 'I' for Inactive)
REMARK    1  A    between atoms: C_5  and  C_6
REMARK                            x       y       z     vdW  Elec       q    Type
REMARK                         _______ _______ _______ _____ _____    ______ ____
ROOT
ATOM      1  C   UNL     1       5.227   4.429  16.884  0.00  0.00    +0.000 A 
ATOM      2  C   UNL     1       5.336   3.698  15.761  0.00  0.00    +0.000 A 
ATOM      3  C   UNL     1       6.406   4.113  14.814  0.00  0.00    +0.000 A 
ATOM      4  N   UNL     1       7.227   5.106  14.966  0.00  0.00    +0.000 NA
ATOM      5  C   UNL     1       7.077   5.830  16.116  0.00  0.00    +0.000 A 
ATOM      6  N   UNL     1       7.740   6.881  16.552  0.00  0.00    +0.000 NA
ATOM      7  N   UNL     1       7.192   7.219  17.759  0.00  0.00    +0.000 NA
ATOM      8  N   UNL     1       6.202   6.402  18.085  0.00  0.00    +0.000 NA
ATOM      9  N   UNL     1       6.100   5.510  17.071  0.00  0.00    +0.000 N 
ENDROOT
BRANCH   1  14
ATOM     10 CL   UNL     1       1.012   2.930  20.870  0.00  0.00    +0.000 Cl
ATOM     11  C   UNL     1       2.223   3.377  19.734  0.00  0.00    +0.000 A 
ATOM     12  C   UNL     1       1.878   4.122  18.608  0.00  0.00    +0.000 A 
ATOM     13  C   UNL     1       2.861   4.475  17.677  0.00  0.00    +0.000 A 
ATOM     14  C   UNL     1       4.192   4.081  17.869  0.00  0.00    +0.000 A 
ATOM     15  C   UNL     1       4.530   3.351  19.019  0.00  0.00    +0.000 A 
ATOM     16  C   UNL     1       3.545   2.995  19.947  0.00  0.00    +0.000 A 
ENDBRANCH   1  14
TORSDOF 1
ENDMDL
MODEL 9
REMARK VINA RESULT:      -7.0      2.059      3.066
REMARK  Name = 
REMARK  1 active torsions:
REMARK  status: ('A' for Active; 'I' for Inactive)
REMARK    1  A    between atoms: C_5  and  C_6
REMARK                            x       y       z     vdW  Elec       q    Type
REMARK                         _______ _______ _______ _____ _____    ______ ____
ROOT
ATOM      1  C   UNL     1       5.602   5.156  18.309  0.00  0.00    +0.000 A 
ATOM      2  C   UNL     1       6.563   5.895  18.890  0.00  0.00    +0.000 A 
ATOM      3  C   UNL     1       7.574   6.486  17.972  0.00  0.00    +0.000 A 
ATOM      4  N   UNL     1       7.619   6.350  16.683  0.00  0.00    +0.000 NA
ATOM      5  C   UNL     1       6.629   5.584  16.133  0.00  0.00    +0.000 A 
ATOM      6  N   UNL     1       6.406   5.258  14.877  0.00  0.00    +0.000 NA
ATOM      7  N   UNL     1       5.284   4.473  14.868  0.00  0.00    +0.000 NA
ATOM      8  N   UNL     1       4.805   4.303  16.090  0.00  0.00    +0.000 NA
ATOM      9  N   UNL     1       5.628   4.990  16.917  0.00  0.00    +0.000 N 
ENDROOT
BRANCH   1  14
ATOM     10 CL   UNL     1       1.343   2.603  21.663  0.00  0.00    +0.000 Cl
ATOM     11  C   UNL     1       2.574   3.341  20.716  0.00  0.00    +0.000 A 
ATOM     12  C   UNL     1       2.529   4.711  20.465  0.00  0.00    +0.000 A 
ATOM     13  C   UNL     1       3.525   5.309  19.684  0.00  0.00    +0.000 A 
ATOM     14  C   UNL     1       4.565   4.537  19.149  0.00  0.00    +0.000 A 
ATOM     15  C   UNL     1       4.610   3.164  19.429  0.00  0.00    +0.000 A 
ATOM     16  C   UNL     1       3.613   2.565  20.207  0.00  0.00    +0.000 A 
ENDBRANCH   1  14
TORSDOF 1
ENDMDL
