MODEL 1
REMARK VINA RESULT:      -8.8      0.000      0.000
REMARK  Name = 
REMARK  10 active torsions:
REMARK  status: ('A' for Active; 'I' for Inactive)
REMARK    1  A    between atoms: C_1  and  C_2
REMARK    2  A    between atoms: C_2  and  C_3
REMARK    3  A    between atoms: C_3  and  C_4
REMARK    4  A    between atoms: C_4  and  O_5
REMARK    5  A    between atoms: O_5  and  C_6
REMARK    6  A    between atoms: C_11  and  C_12
REMARK    7  A    between atoms: N_14  and  C_15
REMARK    8  A    between atoms: C_15  and  C_16
REMARK    9  A    between atoms: C_15  and  C_23
REMARK   10  A    between atoms: C_16  and  C_17
REMARK                            x       y       z     vdW  Elec       q    Type
REMARK                         _______ _______ _______ _____ _____    ______ ____
ROOT
ATOM      1  C   UNL     1       3.049   6.357  18.501  0.00  0.00    +0.000 C 
ENDROOT
BRANCH   1   2
ATOM      2  C   UNL     1       2.855   4.856  18.889  0.00  0.00    +0.000 C 
ATOM      3  C   UNL     1       3.384   4.297  19.986  0.00  0.00    +0.000 C 
ATOM      4  S   UNL     1       3.427   2.676  20.511  0.00  0.00    +0.000 S 
ATOM      5  O   UNL     1       2.842   2.654  21.840  0.00  0.00    +0.000 OA
ATOM      6  O   UNL     1       4.785   2.210  20.313  0.00  0.00    +0.000 OA
ATOM      7  C   UNL     1       2.404   1.694  19.503  0.00  0.00    +0.000 C 
ATOM      8  C   UNL     1       1.533   2.380  18.496  0.00  0.00    +0.000 C 
ATOM      9  S   UNL     1       2.153   3.816  17.694  0.00  0.00    +0.000 S 
ATOM     10  O   UNL     1       3.229   3.373  16.820  0.00  0.00    +0.000 OA
ATOM     11  O   UNL     1       0.993   4.487  17.143  0.00  0.00    +0.000 OA
ENDBRANCH   1   2
BRANCH   1  14
ATOM     12  C   UNL     1       1.702   8.464  19.032  0.00  0.00    +0.000 C 
ATOM     13  O   UNL     1       1.858   8.965  17.927  0.00  0.00    +0.000 OA
ATOM     14  N   UNL     1       2.201   7.217  19.359  0.00  0.00    +0.000 N 
ATOM     15  H   UNL     1       1.633   6.736  20.062  0.00  0.00    +0.000 HD
BRANCH  12  21
ATOM     16  C   UNL     1       0.170  10.397  19.901  0.00  0.00    +0.000 A 
ATOM     17  C   UNL     1      -0.388  11.058  21.008  0.00  0.00    +0.000 A 
ATOM     18  C   UNL     1      -0.232  10.566  22.304  0.00  0.00    +0.000 A 
ATOM     19  C   UNL     1       0.478   9.391  22.506  0.00  0.00    +0.000 A 
ATOM     20  C   UNL     1       1.061   8.739  21.415  0.00  0.00    +0.000 A 
ATOM     21  C   UNL     1       0.960   9.246  20.096  0.00  0.00    +0.000 A 
BRANCH  16  22
ATOM     22  O   UNL     1      -0.117  11.016  18.710  0.00  0.00    +0.000 OA
BRANCH  22  23
ATOM     23  C   UNL     1      -1.305  11.804  18.703  0.00  0.00    +0.000 C 
BRANCH  23  24
ATOM     24  C   UNL     1      -2.338  11.347  17.706  0.00  0.00    +0.000 C 
BRANCH  24  26
ATOM     25  C   UNL     1      -2.771   9.831  15.804  0.00  0.00    +0.000 C 
ATOM     26  C   UNL     1      -1.941  10.035  17.051  0.00  0.00    +0.000 C 
ENDBRANCH  24  26
ENDBRANCH  23  24
ENDBRANCH  22  23
ENDBRANCH  16  22
ENDBRANCH  12  21
ENDBRANCH   1  14
BRANCH   1  27
ATOM     27  C   UNL     1       4.565   6.831  18.361  0.00  0.00    +0.000 C 
BRANCH  27  28
ATOM     28  C   UNL     1       5.451   6.152  17.318  0.00  0.00    +0.000 A 
ATOM     29  C   UNL     1       5.109   6.195  15.952  0.00  0.00    +0.000 A 
ATOM     30  C   UNL     1       5.696   5.313  15.043  0.00  0.00    +0.000 A 
ATOM     31  C   UNL     1       6.689   4.436  15.467  0.00  0.00    +0.000 A 
ATOM     32  C   UNL     1       7.151   4.506  16.778  0.00  0.00    +0.000 A 
ATOM     33  C   UNL     1       6.557   5.387  17.685  0.00  0.00    +0.000 A 
ENDBRANCH  27  28
ENDBRANCH   1  27
TORSDOF 9
ENDMDL
MODEL 2
REMARK VINA RESULT:      -8.7      0.435      1.047
REMARK  Name = 
REMARK  10 active torsions:
REMARK  status: ('A' for Active; 'I' for Inactive)
REMARK    1  A    between atoms: C_1  and  C_2
REMARK    2  A    between atoms: C_2  and  C_3
REMARK    3  A    between atoms: C_3  and  C_4
REMARK    4  A    between atoms: C_4  and  O_5
REMARK    5  A    between atoms: O_5  and  C_6
REMARK    6  A    between atoms: C_11  and  C_12
REMARK    7  A    between atoms: N_14  and  C_15
REMARK    8  A    between atoms: C_15  and  C_16
REMARK    9  A    between atoms: C_15  and  C_23
REMARK   10  A    between atoms: C_16  and  C_17
REMARK                            x       y       z     vdW  Elec       q    Type
REMARK                         _______ _______ _______ _____ _____    ______ ____
ROOT
ATOM      1  C   UNL     1       2.854   6.306  18.417  0.00  0.00    +0.000 C 
ENDROOT
BRANCH   1   2
ATOM      2  C   UNL     1       2.679   4.821  18.873  0.00  0.00    +0.000 C 
ATOM      3  C   UNL     1       3.224   4.317  19.989  0.00  0.00    +0.000 C 
ATOM      4  S   UNL     1       3.289   2.722  20.585  0.00  0.00    +0.000 S 
ATOM      5  O   UNL     1       2.716   2.752  21.919  0.00  0.00    +0.000 OA
ATOM      6  O   UNL     1       4.650   2.262  20.396  0.00  0.00    +0.000 OA
ATOM      7  C   UNL     1       2.269   1.685  19.630  0.00  0.00    +0.000 C 
ATOM      8  C   UNL     1       1.381   2.317  18.603  0.00  0.00    +0.000 C 
ATOM      9  S   UNL     1       1.979   3.722  17.732  0.00  0.00    +0.000 S 
ATOM     10  O   UNL     1       3.051   3.252  16.868  0.00  0.00    +0.000 OA
ATOM     11  O   UNL     1       0.806   4.355  17.162  0.00  0.00    +0.000 OA
ENDBRANCH   1   2
BRANCH   1  14
ATOM     12  C   UNL     1       1.638   8.478  18.998  0.00  0.00    +0.000 C 
ATOM     13  O   UNL     1       1.789   8.978  17.891  0.00  0.00    +0.000 OA
ATOM     14  N   UNL     1       2.078   7.204  19.303  0.00  0.00    +0.000 N 
ATOM     15  H   UNL     1       1.504   6.749  20.019  0.00  0.00    +0.000 HD
BRANCH  12  21
ATOM     16  C   UNL     1       0.298  10.520  19.930  0.00  0.00    +0.000 A 
ATOM     17  C   UNL     1      -0.200  11.194  21.058  0.00  0.00    +0.000 A 
ATOM     18  C   UNL     1      -0.102  10.643  22.337  0.00  0.00    +0.000 A 
ATOM     19  C   UNL     1       0.488   9.398  22.498  0.00  0.00    +0.000 A 
ATOM     20  C   UNL     1       1.011   8.731  21.386  0.00  0.00    +0.000 A 
ATOM     21  C   UNL     1       0.969   9.291  20.087  0.00  0.00    +0.000 A 
BRANCH  16  22
ATOM     22  O   UNL     1       0.080  11.207  18.761  0.00  0.00    +0.000 OA
BRANCH  22  23
ATOM     23  C   UNL     1      -1.266  11.203  18.292  0.00  0.00    +0.000 C 
BRANCH  23  24
ATOM     24  C   UNL     1      -1.625   9.995  17.468  0.00  0.00    +0.000 C 
BRANCH  24  26
ATOM     25  C   UNL     1      -3.737  11.272  17.577  0.00  0.00    +0.000 C 
ATOM     26  C   UNL     1      -3.095   9.995  17.086  0.00  0.00    +0.000 C 
ENDBRANCH  24  26
ENDBRANCH  23  24
ENDBRANCH  22  23
ENDBRANCH  16  22
ENDBRANCH  12  21
ENDBRANCH   1  14
BRANCH   1  27
ATOM     27  C   UNL     1       4.359   6.760  18.147  0.00  0.00    +0.000 C 
BRANCH  27  28
ATOM     28  C   UNL     1       5.249   5.868  17.286  0.00  0.00    +0.000 A 
ATOM     29  C   UNL     1       6.292   5.122  17.869  0.00  0.00    +0.000 A 
ATOM     30  C   UNL     1       7.311   4.583  17.080  0.00  0.00    +0.000 A 
ATOM     31  C   UNL     1       7.259   4.711  15.696  0.00  0.00    +0.000 A 
ATOM     32  C   UNL     1       6.146   5.299  15.103  0.00  0.00    +0.000 A 
ATOM     33  C   UNL     1       5.131   5.839  15.897  0.00  0.00    +0.000 A 
ENDBRANCH  27  28
ENDBRANCH   1  27
TORSDOF 9
ENDMDL
MODEL 3
REMARK VINA RESULT:      -8.4      1.323      1.990
REMARK  Name = 
REMARK  10 active torsions:
REMARK  status: ('A' for Active; 'I' for Inactive)
REMARK    1  A    between atoms: C_1  and  C_2
REMARK    2  A    between atoms: C_2  and  C_3
REMARK    3  A    between atoms: C_3  and  C_4
REMARK    4  A    between atoms: C_4  and  O_5
REMARK    5  A    between atoms: O_5  and  C_6
REMARK    6  A    between atoms: C_11  and  C_12
REMARK    7  A    between atoms: N_14  and  C_15
REMARK    8  A    between atoms: C_15  and  C_16
REMARK    9  A    between atoms: C_15  and  C_23
REMARK   10  A    between atoms: C_16  and  C_17
REMARK                            x       y       z     vdW  Elec       q    Type
REMARK                         _______ _______ _______ _____ _____    ______ ____
ROOT
ATOM      1  C   UNL     1       3.035   6.360  18.534  0.00  0.00    +0.000 C 
ENDROOT
BRANCH   1   2
ATOM      2  C   UNL     1       2.855   4.853  18.908  0.00  0.00    +0.000 C 
ATOM      3  C   UNL     1       3.396   4.287  19.996  0.00  0.00    +0.000 C 
ATOM      4  S   UNL     1       3.455   2.662  20.503  0.00  0.00    +0.000 S 
ATOM      5  O   UNL     1       2.879   2.621  21.836  0.00  0.00    +0.000 OA
ATOM      6  O   UNL     1       4.815   2.208  20.292  0.00  0.00    +0.000 OA
ATOM      7  C   UNL     1       2.433   1.682  19.492  0.00  0.00    +0.000 C 
ATOM      8  C   UNL     1       1.550   2.372  18.498  0.00  0.00    +0.000 C 
ATOM      9  S   UNL     1       2.153   3.820  17.707  0.00  0.00    +0.000 S 
ATOM     10  O   UNL     1       3.226   3.395  16.821  0.00  0.00    +0.000 OA
ATOM     11  O   UNL     1       0.984   4.488  17.170  0.00  0.00    +0.000 OA
ENDBRANCH   1   2
BRANCH   1  14
ATOM     12  C   UNL     1       1.717   8.472  19.117  0.00  0.00    +0.000 C 
ATOM     13  O   UNL     1       1.905   9.011  18.034  0.00  0.00    +0.000 OA
ATOM     14  N   UNL     1       2.186   7.205  19.407  0.00  0.00    +0.000 N 
ATOM     15  H   UNL     1       1.594   6.709  20.080  0.00  0.00    +0.000 HD
BRANCH  12  21
ATOM     16  C   UNL     1       0.239  10.423  20.034  0.00  0.00    +0.000 A 
ATOM     17  C   UNL     1      -0.333  11.049  21.155  0.00  0.00    +0.000 A 
ATOM     18  C   UNL     1      -0.250  10.482  22.427  0.00  0.00    +0.000 A 
ATOM     19  C   UNL     1       0.400   9.267  22.589  0.00  0.00    +0.000 A 
ATOM     20  C   UNL     1       0.997   8.648  21.486  0.00  0.00    +0.000 A 
ATOM     21  C   UNL     1       0.970   9.229  20.195  0.00  0.00    +0.000 A 
BRANCH  16  22
ATOM     22  O   UNL     1       0.025  11.118  18.869  0.00  0.00    +0.000 OA
BRANCH  22  23
ATOM     23  C   UNL     1       0.570  12.435  18.836  0.00  0.00    +0.000 C 
BRANCH  23  24
ATOM     24  C   UNL     1       2.023  12.488  18.448  0.00  0.00    +0.000 C 
BRANCH  24  26
ATOM     25  C   UNL     1       2.177  13.696  20.598  0.00  0.00    +0.000 C 
ATOM     26  C   UNL     1       2.768  13.570  19.213  0.00  0.00    +0.000 C 
ENDBRANCH  24  26
ENDBRANCH  23  24
ENDBRANCH  22  23
ENDBRANCH  16  22
ENDBRANCH  12  21
ENDBRANCH   1  14
BRANCH   1  27
ATOM     27  C   UNL     1       4.546   6.847  18.388  0.00  0.00    +0.000 C 
BRANCH  27  28
ATOM     28  C   UNL     1       5.439   6.163  17.355  0.00  0.00    +0.000 A 
ATOM     29  C   UNL     1       5.121   6.221  15.985  0.00  0.00    +0.000 A 
ATOM     30  C   UNL     1       5.711   5.338  15.078  0.00  0.00    +0.000 A 
ATOM     31  C   UNL     1       6.684   4.444  15.512  0.00  0.00    +0.000 A 
ATOM     32  C   UNL     1       7.125   4.497  16.830  0.00  0.00    +0.000 A 
ATOM     33  C   UNL     1       6.528   5.380  17.735  0.00  0.00    +0.000 A 
ENDBRANCH  27  28
ENDBRANCH   1  27
TORSDOF 9
ENDMDL
MODEL 4
REMARK VINA RESULT:      -8.2      2.371      7.275
REMARK  Name = 
REMARK  10 active torsions:
REMARK  status: ('A' for Active; 'I' for Inactive)
REMARK    1  A    between atoms: C_1  and  C_2
REMARK    2  A    between atoms: C_2  and  C_3
REMARK    3  A    between atoms: C_3  and  C_4
REMARK    4  A    between atoms: C_4  and  O_5
REMARK    5  A    between atoms: O_5  and  C_6
REMARK    6  A    between atoms: C_11  and  C_12
REMARK    7  A    between atoms: N_14  and  C_15
REMARK    8  A    between atoms: C_15  and  C_16
REMARK    9  A    between atoms: C_15  and  C_23
REMARK   10  A    between atoms: C_16  and  C_17
REMARK                            x       y       z     vdW  Elec       q    Type
REMARK                         _______ _______ _______ _____ _____    ______ ____
ROOT
ATOM      1  C   UNL     1       3.112   6.033  18.329  0.00  0.00    +0.000 C 
ENDROOT
BRANCH   1   2
ATOM      2  C   UNL     1       2.594   4.726  19.013  0.00  0.00    +0.000 C 
ATOM      3  C   UNL     1       2.917   4.362  20.262  0.00  0.00    +0.000 C 
ATOM      4  S   UNL     1       2.597   2.933  21.132  0.00  0.00    +0.000 S 
ATOM      5  O   UNL     1       1.919   3.331  22.353  0.00  0.00    +0.000 OA
ATOM      6  O   UNL     1       3.847   2.203  21.208  0.00  0.00    +0.000 OA
ATOM      7  C   UNL     1       1.481   1.932  20.250  0.00  0.00    +0.000 C 
ATOM      8  C   UNL     1       0.843   2.498  19.019  0.00  0.00    +0.000 C 
ATOM      9  S   UNL     1       1.795   3.569  18.001  0.00  0.00    +0.000 S 
ATOM     10  O   UNL     1       2.825   2.749  17.382  0.00  0.00    +0.000 OA
ATOM     11  O   UNL     1       0.836   4.280  17.179  0.00  0.00    +0.000 OA
ENDBRANCH   1   2
BRANCH   1  14
ATOM     12  C   UNL     1       5.125   5.011  17.131  0.00  0.00    +0.000 C 
ATOM     13  O   UNL     1       5.617   4.536  18.146  0.00  0.00    +0.000 OA
ATOM     14  N   UNL     1       3.924   5.695  17.137  0.00  0.00    +0.000 N 
ATOM     15  H   UNL     1       3.416   5.608  16.252  0.00  0.00    +0.000 HD
BRANCH  12  21
ATOM     16  C   UNL     1       7.103   5.473  15.485  0.00  0.00    +0.000 A 
ATOM     17  C   UNL     1       7.628   5.316  14.191  0.00  0.00    +0.000 A 
ATOM     18  C   UNL     1       6.987   4.523  13.237  0.00  0.00    +0.000 A 
ATOM     19  C   UNL     1       5.813   3.866  13.576  0.00  0.00    +0.000 A 
ATOM     20  C   UNL     1       5.268   4.037  14.852  0.00  0.00    +0.000 A 
ATOM     21  C   UNL     1       5.872   4.876  15.820  0.00  0.00    +0.000 A 
BRANCH  16  22
ATOM     22  O   UNL     1       7.890   6.264  16.286  0.00  0.00    +0.000 OA
BRANCH  22  23
ATOM     23  C   UNL     1       7.210   7.322  16.956  0.00  0.00    +0.000 C 
BRANCH  23  24
ATOM     24  C   UNL     1       7.991   7.932  18.090  0.00  0.00    +0.000 C 
BRANCH  24  26
ATOM     25  C   UNL     1       9.090   9.953  18.991  0.00  0.00    +0.000 C 
ATOM     26  C   UNL     1       8.229   9.417  17.871  0.00  0.00    +0.000 C 
ENDBRANCH  24  26
ENDBRANCH  23  24
ENDBRANCH  22  23
ENDBRANCH  16  22
ENDBRANCH  12  21
ENDBRANCH   1  14
BRANCH   1  27
ATOM     27  C   UNL     1       2.007   7.159  18.095  0.00  0.00    +0.000 C 
BRANCH  27  28
ATOM     28  C   UNL     1       1.753   8.176  19.204  0.00  0.00    +0.000 A 
ATOM     29  C   UNL     1       1.765   7.779  20.556  0.00  0.00    +0.000 A 
ATOM     30  C   UNL     1       1.208   8.594  21.543  0.00  0.00    +0.000 A 
ATOM     31  C   UNL     1       0.708   9.848  21.209  0.00  0.00    +0.000 A 
ATOM     32  C   UNL     1       0.846  10.316  19.906  0.00  0.00    +0.000 A 
ATOM     33  C   UNL     1       1.401   9.495  18.921  0.00  0.00    +0.000 A 
ENDBRANCH  27  28
ENDBRANCH   1  27
TORSDOF 9
ENDMDL
MODEL 5
REMARK VINA RESULT:      -8.1      1.081      1.956
REMARK  Name = 
REMARK  10 active torsions:
REMARK  status: ('A' for Active; 'I' for Inactive)
REMARK    1  A    between atoms: C_1  and  C_2
REMARK    2  A    between atoms: C_2  and  C_3
REMARK    3  A    between atoms: C_3  and  C_4
REMARK    4  A    between atoms: C_4  and  O_5
REMARK    5  A    between atoms: O_5  and  C_6
REMARK    6  A    between atoms: C_11  and  C_12
REMARK    7  A    between atoms: N_14  and  C_15
REMARK    8  A    between atoms: C_15  and  C_16
REMARK    9  A    between atoms: C_15  and  C_23
REMARK   10  A    between atoms: C_16  and  C_17
REMARK                            x       y       z     vdW  Elec       q    Type
REMARK                         _______ _______ _______ _____ _____    ______ ____
ROOT
ATOM      1  C   UNL     1       2.872   6.311  18.432  0.00  0.00    +0.000 C 
ENDROOT
BRANCH   1   2
ATOM      2  C   UNL     1       2.697   4.823  18.877  0.00  0.00    +0.000 C 
ATOM      3  C   UNL     1       3.242   4.311  19.990  0.00  0.00    +0.000 C 
ATOM      4  S   UNL     1       3.307   2.712  20.574  0.00  0.00    +0.000 S 
ATOM      5  O   UNL     1       2.734   2.733  21.908  0.00  0.00    +0.000 OA
ATOM      6  O   UNL     1       4.668   2.253  20.381  0.00  0.00    +0.000 OA
ATOM      7  C   UNL     1       2.286   1.682  19.613  0.00  0.00    +0.000 C 
ATOM      8  C   UNL     1       1.398   2.321  18.589  0.00  0.00    +0.000 C 
ATOM      9  S   UNL     1       1.996   3.732  17.729  0.00  0.00    +0.000 S 
ATOM     10  O   UNL     1       3.068   3.268  16.861  0.00  0.00    +0.000 OA
ATOM     11  O   UNL     1       0.823   4.370  17.163  0.00  0.00    +0.000 OA
ENDBRANCH   1   2
BRANCH   1  14
ATOM     12  C   UNL     1       1.644   8.470  19.035  0.00  0.00    +0.000 C 
ATOM     13  O   UNL     1       1.757   8.966  17.922  0.00  0.00    +0.000 OA
ATOM     14  N   UNL     1       2.110   7.205  19.335  0.00  0.00    +0.000 N 
ATOM     15  H   UNL     1       1.563   6.747  20.070  0.00  0.00    +0.000 HD
BRANCH  12  21
ATOM     16  C   UNL     1       0.454  10.577  20.026  0.00  0.00    +0.000 A 
ATOM     17  C   UNL     1      -0.039  11.231  21.167  0.00  0.00    +0.000 A 
ATOM     18  C   UNL     1      -0.064  10.602  22.413  0.00  0.00    +0.000 A 
ATOM     19  C   UNL     1       0.397   9.298  22.525  0.00  0.00    +0.000 A 
ATOM     20  C   UNL     1       0.915   8.647  21.401  0.00  0.00    +0.000 A 
ATOM     21  C   UNL     1       0.997   9.282  20.138  0.00  0.00    +0.000 A 
BRANCH  16  22
ATOM     22  O   UNL     1       0.367  11.347  18.892  0.00  0.00    +0.000 OA
BRANCH  22  23
ATOM     23  C   UNL     1      -0.710  12.281  18.869  0.00  0.00    +0.000 C 
BRANCH  23  24
ATOM     24  C   UNL     1      -0.341  13.630  18.312  0.00  0.00    +0.000 C 
BRANCH  24  26
ATOM     25  C   UNL     1       0.625  15.776  19.064  0.00  0.00    +0.000 C 
ATOM     26  C   UNL     1      -0.401  14.711  19.378  0.00  0.00    +0.000 C 
ENDBRANCH  24  26
ENDBRANCH  23  24
ENDBRANCH  22  23
ENDBRANCH  16  22
ENDBRANCH  12  21
ENDBRANCH   1  14
BRANCH   1  27
ATOM     27  C   UNL     1       4.375   6.762  18.148  0.00  0.00    +0.000 C 
BRANCH  27  28
ATOM     28  C   UNL     1       5.256   5.866  17.281  0.00  0.00    +0.000 A 
ATOM     29  C   UNL     1       6.291   5.106  17.859  0.00  0.00    +0.000 A 
ATOM     30  C   UNL     1       7.305   4.562  17.066  0.00  0.00    +0.000 A 
ATOM     31  C   UNL     1       7.254   4.700  15.683  0.00  0.00    +0.000 A 
ATOM     32  C   UNL     1       6.147   5.302  15.094  0.00  0.00    +0.000 A 
ATOM     33  C   UNL     1       5.138   5.848  15.892  0.00  0.00    +0.000 A 
ENDBRANCH  27  28
ENDBRANCH   1  27
TORSDOF 9
ENDMDL
MODEL 6
REMARK VINA RESULT:      -8.1      1.434      1.894
REMARK  Name = 
REMARK  10 active torsions:
REMARK  status: ('A' for Active; 'I' for Inactive)
REMARK    1  A    between atoms: C_1  and  C_2
REMARK    2  A    between atoms: C_2  and  C_3
REMARK    3  A    between atoms: C_3  and  C_4
REMARK    4  A    between atoms: C_4  and  O_5
REMARK    5  A    between atoms: O_5  and  C_6
REMARK    6  A    between atoms: C_11  and  C_12
REMARK    7  A    between atoms: N_14  and  C_15
REMARK    8  A    between atoms: C_15  and  C_16
REMARK    9  A    between atoms: C_15  and  C_23
REMARK   10  A    between atoms: C_16  and  C_17
REMARK                            x       y       z     vdW  Elec       q    Type
REMARK                         _______ _______ _______ _____ _____    ______ ____
ROOT
ATOM      1  C   UNL     1       3.122   6.348  18.389  0.00  0.00    +0.000 C 
ENDROOT
BRANCH   1   2
ATOM      2  C   UNL     1       3.081   5.048  19.256  0.00  0.00    +0.000 C 
ATOM      3  C   UNL     1       3.833   3.966  19.011  0.00  0.00    +0.000 C 
ATOM      4  S   UNL     1       3.836   2.417  19.720  0.00  0.00    +0.000 S 
ATOM      5  O   UNL     1       5.189   2.177  20.191  0.00  0.00    +0.000 OA
ATOM      6  O   UNL     1       3.239   1.516  18.754  0.00  0.00    +0.000 OA
ATOM      7  C   UNL     1       2.811   2.401  21.126  0.00  0.00    +0.000 C 
ATOM      8  C   UNL     1       2.251   3.703  21.608  0.00  0.00    +0.000 C 
ATOM      9  S   UNL     1       1.800   4.912  20.415  0.00  0.00    +0.000 S 
ATOM     10  O   UNL     1       0.635   4.393  19.715  0.00  0.00    +0.000 OA
ATOM     11  O   UNL     1       1.718   6.165  21.140  0.00  0.00    +0.000 OA
ENDBRANCH   1   2
BRANCH   1  14
ATOM     12  C   UNL     1       1.826   8.551  18.330  0.00  0.00    +0.000 C 
ATOM     13  O   UNL     1       2.320   8.930  17.276  0.00  0.00    +0.000 OA
ATOM     14  N   UNL     1       2.128   7.325  18.892  0.00  0.00    +0.000 N 
ATOM     15  H   UNL     1       1.354   6.942  19.442  0.00  0.00    +0.000 HD
BRANCH  12  21
ATOM     16  C   UNL     1      -0.331  10.009  18.569  0.00  0.00    +0.000 A 
ATOM     17  C   UNL     1      -1.067  10.914  19.352  0.00  0.00    +0.000 A 
ATOM     18  C   UNL     1      -0.670  11.245  20.648  0.00  0.00    +0.000 A 
ATOM     19  C   UNL     1       0.470  10.661  21.181  0.00  0.00    +0.000 A 
ATOM     20  C   UNL     1       1.225   9.780  20.401  0.00  0.00    +0.000 A 
ATOM     21  C   UNL     1       0.871   9.467  19.066  0.00  0.00    +0.000 A 
BRANCH  16  22
ATOM     22  O   UNL     1      -0.896   9.788  17.337  0.00  0.00    +0.000 OA
BRANCH  22  23
ATOM     23  C   UNL     1      -2.301  10.021  17.260  0.00  0.00    +0.000 C 
BRANCH  23  24
ATOM     24  C   UNL     1      -2.689  11.111  16.296  0.00  0.00    +0.000 C 
BRANCH  24  26
ATOM     25  C   UNL     1      -3.218   9.973  14.168  0.00  0.00    +0.000 C 
ATOM     26  C   UNL     1      -3.810  10.668  15.372  0.00  0.00    +0.000 C 
ENDBRANCH  24  26
ENDBRANCH  23  24
ENDBRANCH  22  23
ENDBRANCH  16  22
ENDBRANCH  12  21
ENDBRANCH   1  14
BRANCH   1  27
ATOM     27  C   UNL     1       4.578   6.943  18.127  0.00  0.00    +0.000 C 
BRANCH  27  28
ATOM     28  C   UNL     1       5.483   6.242  17.117  0.00  0.00    +0.000 A 
ATOM     29  C   UNL     1       5.078   6.092  15.776  0.00  0.00    +0.000 A 
ATOM     30  C   UNL     1       5.715   5.175  14.937  0.00  0.00    +0.000 A 
ATOM     31  C   UNL     1       6.815   4.459  15.399  0.00  0.00    +0.000 A 
ATOM     32  C   UNL     1       7.325   4.726  16.665  0.00  0.00    +0.000 A 
ATOM     33  C   UNL     1       6.681   5.641  17.502  0.00  0.00    +0.000 A 
ENDBRANCH  27  28
ENDBRANCH   1  27
TORSDOF 9
ENDMDL
MODEL 7
REMARK VINA RESULT:      -7.9      1.201      2.041
REMARK  Name = 
REMARK  10 active torsions:
REMARK  status: ('A' for Active; 'I' for Inactive)
REMARK    1  A    between atoms: C_1  and  C_2
REMARK    2  A    between atoms: C_2  and  C_3
REMARK    3  A    between atoms: C_3  and  C_4
REMARK    4  A    between atoms: C_4  and  O_5
REMARK    5  A    between atoms: O_5  and  C_6
REMARK    6  A    between atoms: C_11  and  C_12
REMARK    7  A    between atoms: N_14  and  C_15
REMARK    8  A    between atoms: C_15  and  C_16
REMARK    9  A    between atoms: C_15  and  C_23
REMARK   10  A    between atoms: C_16  and  C_17
REMARK                            x       y       z     vdW  Elec       q    Type
REMARK                         _______ _______ _______ _____ _____    ______ ____
ROOT
ATOM      1  C   UNL     1       3.011   6.654  17.884  0.00  0.00    +0.000 C 
ENDROOT
BRANCH   1   2
ATOM      2  C   UNL     1       2.973   5.148  18.302  0.00  0.00    +0.000 C 
ATOM      3  C   UNL     1       2.285   4.209  17.639  0.00  0.00    +0.000 C 
ATOM      4  S   UNL     1       1.986   2.571  18.001  0.00  0.00    +0.000 S 
ATOM      5  O   UNL     1       2.450   1.801  16.860  0.00  0.00    +0.000 OA
ATOM      6  O   UNL     1       0.600   2.482  18.416  0.00  0.00    +0.000 OA
ATOM      7  C   UNL     1       2.953   2.073  19.360  0.00  0.00    +0.000 C 
ATOM      8  C   UNL     1       3.987   3.023  19.878  0.00  0.00    +0.000 C 
ATOM      9  S   UNL     1       3.630   4.744  19.854  0.00  0.00    +0.000 S 
ATOM     10  O   UNL     1       2.584   4.966  20.839  0.00  0.00    +0.000 OA
ATOM     11  O   UNL     1       4.911   5.410  19.985  0.00  0.00    +0.000 OA
ENDBRANCH   1   2
BRANCH   1  14
ATOM     12  C   UNL     1       1.698   8.733  18.584  0.00  0.00    +0.000 C 
ATOM     13  O   UNL     1       1.850   9.313  17.517  0.00  0.00    +0.000 OA
ATOM     14  N   UNL     1       2.183   7.459  18.813  0.00  0.00    +0.000 N 
ATOM     15  H   UNL     1       1.615   6.935  19.484  0.00  0.00    +0.000 HD
BRANCH  12  21
ATOM     16  C   UNL     1       0.063  10.509  19.589  0.00  0.00    +0.000 A 
ATOM     17  C   UNL     1      -0.459  11.118  20.742  0.00  0.00    +0.000 A 
ATOM     18  C   UNL     1      -0.142  10.652  22.018  0.00  0.00    +0.000 A 
ATOM     19  C   UNL     1       0.697   9.555  22.154  0.00  0.00    +0.000 A 
ATOM     20  C   UNL     1       1.244   8.958  21.014  0.00  0.00    +0.000 A 
ATOM     21  C   UNL     1       0.978   9.444  19.711  0.00  0.00    +0.000 A 
BRANCH  16  22
ATOM     22  O   UNL     1      -0.387  11.090  18.429  0.00  0.00    +0.000 OA
BRANCH  22  23
ATOM     23  C   UNL     1      -1.533  10.476  17.844  0.00  0.00    +0.000 C 
BRANCH  23  24
ATOM     24  C   UNL     1      -2.624  11.444  17.470  0.00  0.00    +0.000 C 
BRANCH  24  26
ATOM     25  C   UNL     1      -2.802   9.722  15.707  0.00  0.00    +0.000 C 
ATOM     26  C   UNL     1      -3.222  11.116  16.112  0.00  0.00    +0.000 C 
ENDBRANCH  24  26
ENDBRANCH  23  24
ENDBRANCH  22  23
ENDBRANCH  16  22
ENDBRANCH  12  21
ENDBRANCH   1  14
BRANCH   1  27
ATOM     27  C   UNL     1       4.464   7.242  17.594  0.00  0.00    +0.000 C 
BRANCH  27  28
ATOM     28  C   UNL     1       5.440   6.406  16.770  0.00  0.00    +0.000 A 
ATOM     29  C   UNL     1       5.147   6.074  15.433  0.00  0.00    +0.000 A 
ATOM     30  C   UNL     1       5.839   5.049  14.784  0.00  0.00    +0.000 A 
ATOM     31  C   UNL     1       6.885   4.399  15.431  0.00  0.00    +0.000 A 
ATOM     32  C   UNL     1       7.290   4.836  16.688  0.00  0.00    +0.000 A 
ATOM     33  C   UNL     1       6.592   5.860  17.334  0.00  0.00    +0.000 A 
ENDBRANCH  27  28
ENDBRANCH   1  27
TORSDOF 9
ENDMDL
MODEL 8
REMARK VINA RESULT:      -7.8      1.263      2.189
REMARK  Name = 
REMARK  10 active torsions:
REMARK  status: ('A' for Active; 'I' for Inactive)
REMARK    1  A    between atoms: C_1  and  C_2
REMARK    2  A    between atoms: C_2  and  C_3
REMARK    3  A    between atoms: C_3  and  C_4
REMARK    4  A    between atoms: C_4  and  O_5
REMARK    5  A    between atoms: O_5  and  C_6
REMARK    6  A    between atoms: C_11  and  C_12
REMARK    7  A    between atoms: N_14  and  C_15
REMARK    8  A    between atoms: C_15  and  C_16
REMARK    9  A    between atoms: C_15  and  C_23
REMARK   10  A    between atoms: C_16  and  C_17
REMARK                            x       y       z     vdW  Elec       q    Type
REMARK                         _______ _______ _______ _____ _____    ______ ____
ROOT
ATOM      1  C   UNL     1       2.645   6.640  17.899  0.00  0.00    +0.000 C 
ENDROOT
BRANCH   1   2
ATOM      2  C   UNL     1       2.577   5.164  18.409  0.00  0.00    +0.000 C 
ATOM      3  C   UNL     1       1.970   4.173  17.740  0.00  0.00    +0.000 C 
ATOM      4  S   UNL     1       1.649   2.558  18.176  0.00  0.00    +0.000 S 
ATOM      5  O   UNL     1       2.236   1.723  17.142  0.00  0.00    +0.000 OA
ATOM      6  O   UNL     1       0.228   2.474  18.448  0.00  0.00    +0.000 OA
ATOM      7  C   UNL     1       2.470   2.163  19.658  0.00  0.00    +0.000 C 
ATOM      8  C   UNL     1       3.437   3.160  20.218  0.00  0.00    +0.000 C 
ATOM      9  S   UNL     1       3.070   4.870  20.043  0.00  0.00    +0.000 S 
ATOM     10  O   UNL     1       1.923   5.140  20.898  0.00  0.00    +0.000 OA
ATOM     11  O   UNL     1       4.324   5.563  20.264  0.00  0.00    +0.000 OA
ENDBRANCH   1   2
BRANCH   1  14
ATOM     12  C   UNL     1       1.539   8.842  18.580  0.00  0.00    +0.000 C 
ATOM     13  O   UNL     1       1.739   9.392  17.506  0.00  0.00    +0.000 OA
ATOM     14  N   UNL     1       1.903   7.530  18.822  0.00  0.00    +0.000 N 
ATOM     15  H   UNL     1       1.291   7.070  19.502  0.00  0.00    +0.000 HD
BRANCH  12  21
ATOM     16  C   UNL     1       0.135  10.810  19.575  0.00  0.00    +0.000 A 
ATOM     17  C   UNL     1      -0.327  11.472  20.726  0.00  0.00    +0.000 A 
ATOM     18  C   UNL     1      -0.104  10.953  22.002  0.00  0.00    +0.000 A 
ATOM     19  C   UNL     1       0.577   9.752  22.139  0.00  0.00    +0.000 A 
ATOM     20  C   UNL     1       1.065   9.099  21.003  0.00  0.00    +0.000 A 
ATOM     21  C   UNL     1       0.896   9.631  19.701  0.00  0.00    +0.000 A 
BRANCH  16  22
ATOM     22  O   UNL     1      -0.208  11.459  18.414  0.00  0.00    +0.000 OA
BRANCH  22  23
ATOM     23  C   UNL     1      -1.606  11.642  18.208  0.00  0.00    +0.000 C 
BRANCH  23  24
ATOM     24  C   UNL     1      -2.366  10.362  17.981  0.00  0.00    +0.000 C 
BRANCH  24  26
ATOM     25  C   UNL     1      -2.896  10.882  15.625  0.00  0.00    +0.000 C 
ATOM     26  C   UNL     1      -2.237   9.881  16.546  0.00  0.00    +0.000 C 
ENDBRANCH  24  26
ENDBRANCH  23  24
ENDBRANCH  22  23
ENDBRANCH  16  22
ENDBRANCH  12  21
ENDBRANCH   1  14
BRANCH   1  27
ATOM     27  C   UNL     1       4.100   7.151  17.494  0.00  0.00    +0.000 C 
BRANCH  27  28
ATOM     28  C   UNL     1       5.086   6.151  16.894  0.00  0.00    +0.000 A 
ATOM     29  C   UNL     1       6.185   5.692  17.646  0.00  0.00    +0.000 A 
ATOM     30  C   UNL     1       7.264   5.064  17.021  0.00  0.00    +0.000 A 
ATOM     31  C   UNL     1       7.224   4.812  15.653  0.00  0.00    +0.000 A 
ATOM     32  C   UNL     1       6.071   5.110  14.935  0.00  0.00    +0.000 A 
ATOM     33  C   UNL     1       4.995   5.742  15.565  0.00  0.00    +0.000 A 
ENDBRANCH  27  28
ENDBRANCH   1  27
TORSDOF 9
ENDMDL
MODEL 9
REMARK VINA RESULT:      -7.8      1.784      2.919
REMARK  Name = 
REMARK  10 active torsions:
REMARK  status: ('A' for Active; 'I' for Inactive)
REMARK    1  A    between atoms: C_1  and  C_2
REMARK    2  A    between atoms: C_2  and  C_3
REMARK    3  A    between atoms: C_3  and  C_4
REMARK    4  A    between atoms: C_4  and  O_5
REMARK    5  A    between atoms: O_5  and  C_6
REMARK    6  A    between atoms: C_11  and  C_12
REMARK    7  A    between atoms: N_14  and  C_15
REMARK    8  A    between atoms: C_15  and  C_16
REMARK    9  A    between atoms: C_15  and  C_23
REMARK   10  A    between atoms: C_16  and  C_17
REMARK                            x       y       z     vdW  Elec       q    Type
REMARK                         _______ _______ _______ _____ _____    ______ ____
ROOT
ATOM      1  C   UNL     1       3.319   5.871  18.083  0.00  0.00    +0.000 C 
ENDROOT
BRANCH   1   2
ATOM      2  C   UNL     1       2.730   4.666  18.885  0.00  0.00    +0.000 C 
ATOM      3  C   UNL     1       3.084   4.364  20.141  0.00  0.00    +0.000 C 
ATOM      4  S   UNL     1       2.691   3.033  21.130  0.00  0.00    +0.000 S 
ATOM      5  O   UNL     1       2.113   3.575  22.347  0.00  0.00    +0.000 OA
ATOM      6  O   UNL     1       3.877   2.203  21.203  0.00  0.00    +0.000 OA
ATOM      7  C   UNL     1       1.450   2.075  20.376  0.00  0.00    +0.000 C 
ATOM      8  C   UNL     1       0.799   2.607  19.137  0.00  0.00    +0.000 C 
ATOM      9  S   UNL     1       1.784   3.516  17.999  0.00  0.00    +0.000 S 
ATOM     10  O   UNL     1       2.707   2.566  17.397  0.00  0.00    +0.000 OA
ATOM     11  O   UNL     1       0.847   4.249  17.171  0.00  0.00    +0.000 OA
ENDBRANCH   1   2
BRANCH   1  14
ATOM     12  C   UNL     1       2.585   8.300  17.773  0.00  0.00    +0.000 C 
ATOM     13  O   UNL     1       2.999   8.386  16.625  0.00  0.00    +0.000 OA
ATOM     14  N   UNL     1       2.665   7.131  18.507  0.00  0.00    +0.000 N 
ATOM     15  H   UNL     1       1.909   7.041  19.190  0.00  0.00    +0.000 HD
BRANCH  12  21
ATOM     16  C   UNL     1       1.076   9.546  19.508  0.00  0.00    +0.000 A 
ATOM     17  C   UNL     1       0.549  10.769  19.955  0.00  0.00    +0.000 A 
ATOM     18  C   UNL     1       0.954  11.983  19.398  0.00  0.00    +0.000 A 
ATOM     19  C   UNL     1       1.908  11.985  18.390  0.00  0.00    +0.000 A 
ATOM     20  C   UNL     1       2.420  10.772  17.919  0.00  0.00    +0.000 A 
ATOM     21  C   UNL     1       1.987   9.526  18.432  0.00  0.00    +0.000 A 
BRANCH  16  22
ATOM     22  O   UNL     1       0.578   8.468  20.197  0.00  0.00    +0.000 OA
BRANCH  22  23
ATOM     23  C   UNL     1       0.827   8.473  21.601  0.00  0.00    +0.000 C 
BRANCH  23  24
ATOM     24  C   UNL     1      -0.409   8.656  22.441  0.00  0.00    +0.000 C 
BRANCH  24  26
ATOM     25  C   UNL     1      -1.260  10.880  23.099  0.00  0.00    +0.000 C 
ATOM     26  C   UNL     1      -0.252   9.803  23.426  0.00  0.00    +0.000 C 
ENDBRANCH  24  26
ENDBRANCH  23  24
ENDBRANCH  22  23
ENDBRANCH  16  22
ENDBRANCH  12  21
ENDBRANCH   1  14
BRANCH   1  27
ATOM     27  C   UNL     1       4.911   5.928  18.015  0.00  0.00    +0.000 C 
BRANCH  27  28
ATOM     28  C   UNL     1       5.618   5.262  16.837  0.00  0.00    +0.000 A 
ATOM     29  C   UNL     1       7.014   5.367  16.688  0.00  0.00    +0.000 A 
ATOM     30  C   UNL     1       7.625   5.070  15.467  0.00  0.00    +0.000 A 
ATOM     31  C   UNL     1       6.864   4.587  14.409  0.00  0.00    +0.000 A 
ATOM     32  C   UNL     1       5.512   4.320  14.602  0.00  0.00    +0.000 A 
ATOM     33  C   UNL     1       4.905   4.622  15.824  0.00  0.00    +0.000 A 
ENDBRANCH  27  28
ENDBRANCH   1  27
TORSDOF 9
ENDMDL
