MODEL 1
REMARK VINA RESULT:      -7.5      0.000      0.000
REMARK  Name = 
REMARK  4 active torsions:
REMARK  status: ('A' for Active; 'I' for Inactive)
REMARK    1  A    between atoms: N_5  and  C_6
REMARK    2  A    between atoms: C_8  and  C_9
REMARK    3  A    between atoms: C_9  and  O_10
REMARK    4  A    between atoms: C_11  and  O_12
REMARK                            x       y       z     vdW  Elec       q    Type
REMARK                         _______ _______ _______ _____ _____    ______ ____
ROOT
ATOM      1  C   UNL     1       5.480   3.791  17.976  0.00  0.00    +0.000 C 
ATOM      2  O   UNL     1       6.525   4.208  18.895  0.00  0.00    +0.000 OA
ATOM      3  C   UNL     1       7.409   5.087  18.170  0.00  0.00    +0.000 C 
ATOM      4  C   UNL     1       6.576   5.730  17.074  0.00  0.00    +0.000 C 
ATOM      5  C   UNL     1       5.656   4.592  16.673  0.00  0.00    +0.000 C 
ATOM      6  F   UNL     1       6.277   3.844  15.722  0.00  0.00    +0.000 F 
ATOM      7  F   UNL     1       4.509   5.060  16.144  0.00  0.00    +0.000 F 
ENDROOT
BRANCH   1  12
ATOM      8  N   UNL     1       0.531   3.943  20.399  0.00  0.00    +0.000 N 
ATOM      9  C   UNL     1       1.748   3.950  19.775  0.00  0.00    +0.000 A 
ATOM     10  C   UNL     1       2.633   5.120  19.933  0.00  0.00    +0.000 A 
ATOM     11  C   UNL     1       3.823   5.036  19.343  0.00  0.00    +0.000 A 
ATOM     12  N   UNL     1       4.182   3.916  18.626  0.00  0.00    +0.000 N 
ATOM     13  C   UNL     1       3.289   2.857  18.440  0.00  0.00    +0.000 A 
ATOM     14  O   UNL     1       3.602   1.891  17.745  0.00  0.00    +0.000 OA
ATOM     15  N   UNL     1       2.070   2.908  19.075  0.00  0.00    +0.000 NA
ATOM     16  H   UNL     1       0.436   4.474  21.255  0.00  0.00    +0.000 HD
ATOM     17  H   UNL     1       0.123   3.014  20.449  0.00  0.00    +0.000 HD
ENDBRANCH   1  12
BRANCH   4  18
ATOM     18  O   UNL     1       7.400   6.228  16.020  0.00  0.00    +0.000 OA
ATOM     19  H   UNL     1       7.948   6.951  16.385  0.00  0.00    +0.000 HD
ENDBRANCH   4  18
BRANCH   3  20
ATOM     20  C   UNL     1       7.986   6.114  19.141  0.00  0.00    +0.000 C 
BRANCH  20  21
ATOM     21  O   UNL     1       8.066   5.553  20.450  0.00  0.00    +0.000 OA
ATOM     22  H   UNL     1       7.194   5.155  20.634  0.00  0.00    +0.000 HD
ENDBRANCH  20  21
ENDBRANCH   3  20
TORSDOF 4
ENDMDL
MODEL 2
REMARK VINA RESULT:      -7.3      2.923      5.245
REMARK  Name = 
REMARK  4 active torsions:
REMARK  status: ('A' for Active; 'I' for Inactive)
REMARK    1  A    between atoms: N_5  and  C_6
REMARK    2  A    between atoms: C_8  and  C_9
REMARK    3  A    between atoms: C_9  and  O_10
REMARK    4  A    between atoms: C_11  and  O_12
REMARK                            x       y       z     vdW  Elec       q    Type
REMARK                         _______ _______ _______ _____ _____    ______ ____
ROOT
ATOM      1  C   UNL     1       3.454   4.650  18.037  0.00  0.00    +0.000 C 
ATOM      2  O   UNL     1       3.993   4.246  19.324  0.00  0.00    +0.000 OA
ATOM      3  C   UNL     1       3.176   3.163  19.811  0.00  0.00    +0.000 C 
ATOM      4  C   UNL     1       2.598   2.473  18.588  0.00  0.00    +0.000 C 
ATOM      5  C   UNL     1       2.351   3.645  17.657  0.00  0.00    +0.000 C 
ATOM      6  F   UNL     1       1.118   4.155  17.915  0.00  0.00    +0.000 F 
ATOM      7  F   UNL     1       2.371   3.252  16.368  0.00  0.00    +0.000 F 
ENDROOT
BRANCH   1  12
ATOM      8  N   UNL     1       7.583   5.497  14.485  0.00  0.00    +0.000 N 
ATOM      9  C   UNL     1       6.537   5.254  15.332  0.00  0.00    +0.000 A 
ATOM     10  C   UNL     1       6.207   3.862  15.691  0.00  0.00    +0.000 A 
ATOM     11  C   UNL     1       5.213   3.704  16.561  0.00  0.00    +0.000 A 
ATOM     12  N   UNL     1       4.541   4.790  17.076  0.00  0.00    +0.000 N 
ATOM     13  C   UNL     1       4.837   6.091  16.658  0.00  0.00    +0.000 A 
ATOM     14  O   UNL     1       4.185   7.046  17.080  0.00  0.00    +0.000 OA
ATOM     15  N   UNL     1       5.887   6.278  15.790  0.00  0.00    +0.000 NA
ATOM     16  H   UNL     1       8.345   4.830  14.471  0.00  0.00    +0.000 HD
ATOM     17  H   UNL     1       7.891   6.465  14.511  0.00  0.00    +0.000 HD
ENDBRANCH   1  12
BRANCH   4  18
ATOM     18  O   UNL     1       1.430   1.721  18.919  0.00  0.00    +0.000 OA
ATOM     19  H   UNL     1       1.715   0.938  19.433  0.00  0.00    +0.000 HD
ENDBRANCH   4  18
BRANCH   3  20
ATOM     20  C   UNL     1       4.047   2.229  20.649  0.00  0.00    +0.000 C 
BRANCH  20  21
ATOM     21  O   UNL     1       5.187   1.823  19.895  0.00  0.00    +0.000 OA
ATOM     22  H   UNL     1       5.085   2.213  19.006  0.00  0.00    +0.000 HD
ENDBRANCH  20  21
ENDBRANCH   3  20
TORSDOF 4
ENDMDL
MODEL 3
REMARK VINA RESULT:      -7.2      2.635      5.508
REMARK  Name = 
REMARK  4 active torsions:
REMARK  status: ('A' for Active; 'I' for Inactive)
REMARK    1  A    between atoms: N_5  and  C_6
REMARK    2  A    between atoms: C_8  and  C_9
REMARK    3  A    between atoms: C_9  and  O_10
REMARK    4  A    between atoms: C_11  and  O_12
REMARK                            x       y       z     vdW  Elec       q    Type
REMARK                         _______ _______ _______ _____ _____    ______ ____
ROOT
ATOM      1  C   UNL     1       5.072   4.734  18.462  0.00  0.00    +0.000 C 
ATOM      2  O   UNL     1       4.933   3.332  18.817  0.00  0.00    +0.000 OA
ATOM      3  C   UNL     1       3.579   3.138  19.275  0.00  0.00    +0.000 C 
ATOM      4  C   UNL     1       2.734   4.195  18.585  0.00  0.00    +0.000 C 
ATOM      5  C   UNL     1       3.679   5.381  18.559  0.00  0.00    +0.000 C 
ATOM      6  F   UNL     1       3.543   6.073  19.721  0.00  0.00    +0.000 F 
ATOM      7  F   UNL     1       3.377   6.217  17.546  0.00  0.00    +0.000 F 
ENDROOT
BRANCH   1  12
ATOM      8  N   UNL     1       7.813   5.316  13.715  0.00  0.00    +0.000 N 
ATOM      9  C   UNL     1       7.089   5.179  14.867  0.00  0.00    +0.000 A 
ATOM     10  C   UNL     1       6.004   4.180  14.922  0.00  0.00    +0.000 A 
ATOM     11  C   UNL     1       5.378   4.063  16.091  0.00  0.00    +0.000 A 
ATOM     12  N   UNL     1       5.734   4.844  17.167  0.00  0.00    +0.000 N 
ATOM     13  C   UNL     1       6.720   5.829  17.056  0.00  0.00    +0.000 A 
ATOM     14  O   UNL     1       6.982   6.561  18.010  0.00  0.00    +0.000 OA
ATOM     15  N   UNL     1       7.406   5.938  15.869  0.00  0.00    +0.000 NA
ATOM     16  H   UNL     1       7.910   4.505  13.118  0.00  0.00    +0.000 HD
ATOM     17  H   UNL     1       8.683   5.822  13.858  0.00  0.00    +0.000 HD
ENDBRANCH   1  12
BRANCH   4  18
ATOM     18  O   UNL     1       1.513   4.423  19.289  0.00  0.00    +0.000 OA
ATOM     19  H   UNL     1       1.117   5.247  18.941  0.00  0.00    +0.000 HD
ENDBRANCH   4  18
BRANCH   3  20
ATOM     20  C   UNL     1       3.140   1.719  18.920  0.00  0.00    +0.000 C 
BRANCH  20  21
ATOM     21  O   UNL     1       2.179   1.757  17.867  0.00  0.00    +0.000 OA
ATOM     22  H   UNL     1       1.655   0.938  17.941  0.00  0.00    +0.000 HD
ENDBRANCH  20  21
ENDBRANCH   3  20
TORSDOF 4
ENDMDL
MODEL 4
REMARK VINA RESULT:      -7.2      2.704      5.547
REMARK  Name = 
REMARK  4 active torsions:
REMARK  status: ('A' for Active; 'I' for Inactive)
REMARK    1  A    between atoms: N_5  and  C_6
REMARK    2  A    between atoms: C_8  and  C_9
REMARK    3  A    between atoms: C_9  and  O_10
REMARK    4  A    between atoms: C_11  and  O_12
REMARK                            x       y       z     vdW  Elec       q    Type
REMARK                         _______ _______ _______ _____ _____    ______ ____
ROOT
ATOM      1  C   UNL     1       4.974   4.077  18.397  0.00  0.00    +0.000 C 
ATOM      2  O   UNL     1       4.265   2.816  18.273  0.00  0.00    +0.000 OA
ATOM      3  C   UNL     1       2.946   3.009  18.822  0.00  0.00    +0.000 C 
ATOM      4  C   UNL     1       2.620   4.483  18.655  0.00  0.00    +0.000 C 
ATOM      5  C   UNL     1       3.970   5.130  18.900  0.00  0.00    +0.000 C 
ATOM      6  F   UNL     1       4.116   5.343  20.235  0.00  0.00    +0.000 F 
ATOM      7  F   UNL     1       4.053   6.325  18.282  0.00  0.00    +0.000 F 
ENDROOT
BRANCH   1  12
ATOM      8  N   UNL     1       7.772   5.163  13.772  0.00  0.00    +0.000 N 
ATOM      9  C   UNL     1       7.048   4.935  14.910  0.00  0.00    +0.000 A 
ATOM     10  C   UNL     1       5.580   4.817  14.820  0.00  0.00    +0.000 A 
ATOM     11  C   UNL     1       4.946   4.541  15.957  0.00  0.00    +0.000 A 
ATOM     12  N   UNL     1       5.639   4.387  17.137  0.00  0.00    +0.000 N 
ATOM     13  C   UNL     1       7.023   4.576  17.195  0.00  0.00    +0.000 A 
ATOM     14  O   UNL     1       7.620   4.496  18.269  0.00  0.00    +0.000 OA
ATOM     15  N   UNL     1       7.701   4.821  16.024  0.00  0.00    +0.000 NA
ATOM     16  H   UNL     1       7.394   4.824  12.896  0.00  0.00    +0.000 HD
ATOM     17  H   UNL     1       8.761   4.965  13.892  0.00  0.00    +0.000 HD
ENDBRANCH   1  12
BRANCH   4  18
ATOM     18  O   UNL     1       1.592   4.892  19.558  0.00  0.00    +0.000 OA
ATOM     19  H   UNL     1       1.352   4.119  20.107  0.00  0.00    +0.000 HD
ENDBRANCH   4  18
BRANCH   3  20
ATOM     20  C   UNL     1       1.966   2.108  18.074  0.00  0.00    +0.000 C 
BRANCH  20  21
ATOM     21  O   UNL     1       0.629   2.419  18.460  0.00  0.00    +0.000 OA
ATOM     22  H   UNL     1       0.050   1.803  17.973  0.00  0.00    +0.000 HD
ENDBRANCH  20  21
ENDBRANCH   3  20
TORSDOF 4
ENDMDL
MODEL 5
REMARK VINA RESULT:      -7.1      2.717      5.303
REMARK  Name = 
REMARK  4 active torsions:
REMARK  status: ('A' for Active; 'I' for Inactive)
REMARK    1  A    between atoms: N_5  and  C_6
REMARK    2  A    between atoms: C_8  and  C_9
REMARK    3  A    between atoms: C_9  and  O_10
REMARK    4  A    between atoms: C_11  and  O_12
REMARK                            x       y       z     vdW  Elec       q    Type
REMARK                         _______ _______ _______ _____ _____    ______ ____
ROOT
ATOM      1  C   UNL     1       5.212   5.117  18.598  0.00  0.00    +0.000 C 
ATOM      2  O   UNL     1       5.403   3.827  19.239  0.00  0.00    +0.000 OA
ATOM      3  C   UNL     1       4.134   3.436  19.801  0.00  0.00    +0.000 C 
ATOM      4  C   UNL     1       3.062   4.105  18.958  0.00  0.00    +0.000 C 
ATOM      5  C   UNL     1       3.708   5.440  18.637  0.00  0.00    +0.000 C 
ATOM      6  F   UNL     1       3.424   6.314  19.639  0.00  0.00    +0.000 F 
ATOM      7  F   UNL     1       3.215   5.954  17.493  0.00  0.00    +0.000 F 
ENDROOT
BRANCH   1  12
ATOM      8  N   UNL     1       7.765   5.214  13.713  0.00  0.00    +0.000 N 
ATOM      9  C   UNL     1       7.087   5.195  14.901  0.00  0.00    +0.000 A 
ATOM     10  C   UNL     1       5.995   4.221  15.092  0.00  0.00    +0.000 A 
ATOM     11  C   UNL     1       5.415   4.223  16.290  0.00  0.00    +0.000 A 
ATOM     12  N   UNL     1       5.822   5.096  17.274  0.00  0.00    +0.000 N 
ATOM     13  C   UNL     1       6.813   6.052  17.031  0.00  0.00    +0.000 A 
ATOM     14  O   UNL     1       7.121   6.866  17.902  0.00  0.00    +0.000 OA
ATOM     15  N   UNL     1       7.451   6.040  15.814  0.00  0.00    +0.000 NA
ATOM     16  H   UNL     1       7.829   4.349  13.191  0.00  0.00    +0.000 HD
ATOM     17  H   UNL     1       8.645   5.718  13.774  0.00  0.00    +0.000 HD
ENDBRANCH   1  12
BRANCH   4  18
ATOM     18  O   UNL     1       1.826   4.197  19.666  0.00  0.00    +0.000 OA
ATOM     19  H   UNL     1       1.153   4.547  19.048  0.00  0.00    +0.000 HD
ENDBRANCH   4  18
BRANCH   3  20
ATOM     20  C   UNL     1       4.032   1.912  19.769  0.00  0.00    +0.000 C 
BRANCH  20  21
ATOM     21  O   UNL     1       5.259   1.334  20.209  0.00  0.00    +0.000 OA
ATOM     22  H   UNL     1       5.229   0.393  19.954  0.00  0.00    +0.000 HD
ENDBRANCH  20  21
ENDBRANCH   3  20
TORSDOF 4
ENDMDL
MODEL 6
REMARK VINA RESULT:      -7.1      1.164      1.257
REMARK  Name = 
REMARK  4 active torsions:
REMARK  status: ('A' for Active; 'I' for Inactive)
REMARK    1  A    between atoms: N_5  and  C_6
REMARK    2  A    between atoms: C_8  and  C_9
REMARK    3  A    between atoms: C_9  and  O_10
REMARK    4  A    between atoms: C_11  and  O_12
REMARK                            x       y       z     vdW  Elec       q    Type
REMARK                         _______ _______ _______ _____ _____    ______ ____
ROOT
ATOM      1  C   UNL     1       4.879   4.643  17.325  0.00  0.00    +0.000 C 
ATOM      2  O   UNL     1       6.127   4.345  18.005  0.00  0.00    +0.000 OA
ATOM      3  C   UNL     1       7.036   5.429  17.730  0.00  0.00    +0.000 C 
ATOM      4  C   UNL     1       6.179   6.658  17.476  0.00  0.00    +0.000 C 
ATOM      5  C   UNL     1       4.992   6.063  16.742  0.00  0.00    +0.000 C 
ATOM      6  F   UNL     1       5.276   6.023  15.413  0.00  0.00    +0.000 F 
ATOM      7  F   UNL     1       3.892   6.825  16.904  0.00  0.00    +0.000 F 
ENDROOT
BRANCH   1  12
ATOM      8  N   UNL     1       0.555   3.558  20.567  0.00  0.00    +0.000 N 
ATOM      9  C   UNL     1       1.621   3.877  19.773  0.00  0.00    +0.000 A 
ATOM     10  C   UNL     1       2.718   4.692  20.330  0.00  0.00    +0.000 A 
ATOM     11  C   UNL     1       3.747   4.919  19.518  0.00  0.00    +0.000 A 
ATOM     12  N   UNL     1       3.762   4.419  18.235  0.00  0.00    +0.000 N 
ATOM     13  C   UNL     1       2.673   3.710  17.720  0.00  0.00    +0.000 A 
ATOM     14  O   UNL     1       2.676   3.324  16.551  0.00  0.00    +0.000 OA
ATOM     15  N   UNL     1       1.617   3.432  18.556  0.00  0.00    +0.000 NA
ATOM     16  H   UNL     1       0.712   3.489  21.565  0.00  0.00    +0.000 HD
ATOM     17  H   UNL     1       0.000   2.795  20.189  0.00  0.00    +0.000 HD
ENDBRANCH   1  12
BRANCH   4  18
ATOM     18  O   UNL     1       6.897   7.649  16.740  0.00  0.00    +0.000 OA
ATOM     19  H   UNL     1       7.295   8.269  17.384  0.00  0.00    +0.000 HD
ENDBRANCH   4  18
BRANCH   3  20
ATOM     20  C   UNL     1       7.966   5.606  18.927  0.00  0.00    +0.000 C 
BRANCH  20  21
ATOM     21  O   UNL     1       7.259   5.337  20.136  0.00  0.00    +0.000 OA
ATOM     22  H   UNL     1       7.908   5.414  20.860  0.00  0.00    +0.000 HD
ENDBRANCH  20  21
ENDBRANCH   3  20
TORSDOF 4
ENDMDL
MODEL 7
REMARK VINA RESULT:      -7.0      2.631      5.623
REMARK  Name = 
REMARK  4 active torsions:
REMARK  status: ('A' for Active; 'I' for Inactive)
REMARK    1  A    between atoms: N_5  and  C_6
REMARK    2  A    between atoms: C_8  and  C_9
REMARK    3  A    between atoms: C_9  and  O_10
REMARK    4  A    between atoms: C_11  and  O_12
REMARK                            x       y       z     vdW  Elec       q    Type
REMARK                         _______ _______ _______ _____ _____    ______ ____
ROOT
ATOM      1  C   UNL     1       4.294   3.898  19.436  0.00  0.00    +0.000 C 
ATOM      2  O   UNL     1       3.787   2.552  19.235  0.00  0.00    +0.000 OA
ATOM      3  C   UNL     1       2.387   2.566  19.580  0.00  0.00    +0.000 C 
ATOM      4  C   UNL     1       1.895   3.982  19.336  0.00  0.00    +0.000 C 
ATOM      5  C   UNL     1       3.095   4.806  19.764  0.00  0.00    +0.000 C 
ATOM      6  F   UNL     1       3.011   5.038  21.101  0.00  0.00    +0.000 F 
ATOM      7  F   UNL     1       3.109   6.000  19.140  0.00  0.00    +0.000 F 
ENDROOT
BRANCH   1  12
ATOM      8  N   UNL     1       7.566   5.434  15.274  0.00  0.00    +0.000 N 
ATOM      9  C   UNL     1       6.715   5.080  16.284  0.00  0.00    +0.000 A 
ATOM     10  C   UNL     1       5.437   4.421  15.954  0.00  0.00    +0.000 A 
ATOM     11  C   UNL     1       4.684   4.055  16.989  0.00  0.00    +0.000 A 
ATOM     12  N   UNL     1       5.092   4.295  18.282  0.00  0.00    +0.000 N 
ATOM     13  C   UNL     1       6.278   4.984  18.553  0.00  0.00    +0.000 A 
ATOM     14  O   UNL     1       6.597   5.245  19.713  0.00  0.00    +0.000 OA
ATOM     15  N   UNL     1       7.088   5.335  17.499  0.00  0.00    +0.000 NA
ATOM     16  H   UNL     1       7.541   4.889  14.421  0.00  0.00    +0.000 HD
ATOM     17  H   UNL     1       8.506   5.629  15.604  0.00  0.00    +0.000 HD
ENDBRANCH   1  12
BRANCH   4  18
ATOM     18  O   UNL     1       0.699   4.250  20.069  0.00  0.00    +0.000 OA
ATOM     19  H   UNL     1      -0.059   4.082  19.474  0.00  0.00    +0.000 HD
ENDBRANCH   4  18
BRANCH   3  20
ATOM     20  C   UNL     1       1.658   1.540  18.714  0.00  0.00    +0.000 C 
BRANCH  20  21
ATOM     21  O   UNL     1       0.337   1.996  18.431  0.00  0.00    +0.000 OA
ATOM     22  H   UNL     1      -0.272   1.357  18.849  0.00  0.00    +0.000 HD
ENDBRANCH  20  21
ENDBRANCH   3  20
TORSDOF 4
ENDMDL
MODEL 8
REMARK VINA RESULT:      -6.9      2.861      5.379
REMARK  Name = 
REMARK  4 active torsions:
REMARK  status: ('A' for Active; 'I' for Inactive)
REMARK    1  A    between atoms: N_5  and  C_6
REMARK    2  A    between atoms: C_8  and  C_9
REMARK    3  A    between atoms: C_9  and  O_10
REMARK    4  A    between atoms: C_11  and  O_12
REMARK                            x       y       z     vdW  Elec       q    Type
REMARK                         _______ _______ _______ _____ _____    ______ ____
ROOT
ATOM      1  C   UNL     1       2.768   5.072  18.556  0.00  0.00    +0.000 C 
ATOM      2  O   UNL     1       2.784   4.738  19.969  0.00  0.00    +0.000 OA
ATOM      3  C   UNL     1       2.045   3.510  20.128  0.00  0.00    +0.000 C 
ATOM      4  C   UNL     1       2.163   2.761  18.812  0.00  0.00    +0.000 C 
ATOM      5  C   UNL     1       2.122   3.894  17.804  0.00  0.00    +0.000 C 
ATOM      6  F   UNL     1       0.824   4.163  17.502  0.00  0.00    +0.000 F 
ATOM      7  F   UNL     1       2.747   3.548  16.661  0.00  0.00    +0.000 F 
ENDROOT
BRANCH   1  12
ATOM      8  N   UNL     1       7.754   6.761  16.922  0.00  0.00    +0.000 N 
ATOM      9  C   UNL     1       6.523   6.300  17.298  0.00  0.00    +0.000 A 
ATOM     10  C   UNL     1       6.403   4.944  17.866  0.00  0.00    +0.000 A 
ATOM     11  C   UNL     1       5.184   4.582  18.260  0.00  0.00    +0.000 A 
ATOM     12  N   UNL     1       4.113   5.437  18.127  0.00  0.00    +0.000 N 
ATOM     13  C   UNL     1       4.253   6.688  17.519  0.00  0.00    +0.000 A 
ATOM     14  O   UNL     1       3.274   7.414  17.351  0.00  0.00    +0.000 OA
ATOM     15  N   UNL     1       5.511   7.096  17.142  0.00  0.00    +0.000 NA
ATOM     16  H   UNL     1       8.564   6.398  17.409  0.00  0.00    +0.000 HD
ATOM     17  H   UNL     1       7.773   7.770  16.798  0.00  0.00    +0.000 HD
ENDBRANCH   1  12
BRANCH   4  18
ATOM     18  O   UNL     1       1.118   1.799  18.667  0.00  0.00    +0.000 OA
ATOM     19  H   UNL     1       1.517   0.973  18.327  0.00  0.00    +0.000 HD
ENDBRANCH   4  18
BRANCH   3  20
ATOM     20  C   UNL     1       2.639   2.728  21.298  0.00  0.00    +0.000 C 
BRANCH  20  21
ATOM     21  O   UNL     1       1.619   2.431  22.250  0.00  0.00    +0.000 OA
ATOM     22  H   UNL     1       1.030   1.777  21.829  0.00  0.00    +0.000 HD
ENDBRANCH  20  21
ENDBRANCH   3  20
TORSDOF 4
ENDMDL
MODEL 9
REMARK VINA RESULT:      -6.9      2.224      3.186
REMARK  Name = 
REMARK  4 active torsions:
REMARK  status: ('A' for Active; 'I' for Inactive)
REMARK    1  A    between atoms: N_5  and  C_6
REMARK    2  A    between atoms: C_8  and  C_9
REMARK    3  A    between atoms: C_9  and  O_10
REMARK    4  A    between atoms: C_11  and  O_12
REMARK                            x       y       z     vdW  Elec       q    Type
REMARK                         _______ _______ _______ _____ _____    ______ ____
ROOT
ATOM      1  C   UNL     1       4.605   5.561  17.675  0.00  0.00    +0.000 C 
ATOM      2  O   UNL     1       4.589   5.636  16.224  0.00  0.00    +0.000 OA
ATOM      3  C   UNL     1       5.928   5.361  15.765  0.00  0.00    +0.000 C 
ATOM      4  C   UNL     1       6.575   4.481  16.821  0.00  0.00    +0.000 C 
ATOM      5  C   UNL     1       5.994   5.053  18.101  0.00  0.00    +0.000 C 
ATOM      6  F   UNL     1       6.782   6.080  18.516  0.00  0.00    +0.000 F 
ATOM      7  F   UNL     1       5.977   4.127  19.080  0.00  0.00    +0.000 F 
ENDROOT
BRANCH   1  12
ATOM      8  N   UNL     1       0.217   2.820  19.575  0.00  0.00    +0.000 N 
ATOM      9  C   UNL     1       1.333   3.457  19.109  0.00  0.00    +0.000 A 
ATOM     10  C   UNL     1       2.071   2.879  17.969  0.00  0.00    +0.000 A 
ATOM     11  C   UNL     1       3.115   3.580  17.533  0.00  0.00    +0.000 A 
ATOM     12  N   UNL     1       3.472   4.767  18.133  0.00  0.00    +0.000 N 
ATOM     13  C   UNL     1       2.791   5.247  19.256  0.00  0.00    +0.000 A 
ATOM     14  O   UNL     1       3.162   6.277  19.818  0.00  0.00    +0.000 OA
ATOM     15  N   UNL     1       1.685   4.558  19.696  0.00  0.00    +0.000 NA
ATOM     16  H   UNL     1      -0.320   2.265  18.920  0.00  0.00    +0.000 HD
ATOM     17  H   UNL     1      -0.355   3.416  20.166  0.00  0.00    +0.000 HD
ENDBRANCH   1  12
BRANCH   4  18
ATOM     18  O   UNL     1       8.000   4.534  16.739  0.00  0.00    +0.000 OA
ATOM     19  H   UNL     1       8.236   4.850  15.844  0.00  0.00    +0.000 HD
ENDBRANCH   4  18
BRANCH   3  20
ATOM     20  C   UNL     1       5.849   4.674  14.404  0.00  0.00    +0.000 C 
BRANCH  20  21
ATOM     21  O   UNL     1       6.375   3.352  14.497  0.00  0.00    +0.000 OA
ATOM     22  H   UNL     1       7.223   3.424  14.975  0.00  0.00    +0.000 HD
ENDBRANCH  20  21
ENDBRANCH   3  20
TORSDOF 4
ENDMDL
