MODEL 1
REMARK VINA RESULT:      -6.8      0.000      0.000
REMARK  Name = 
REMARK  4 active torsions:
REMARK  status: ('A' for Active; 'I' for Inactive)
REMARK    1  A    between atoms: C_1  and  C_2
REMARK    2  A    between atoms: C_2  and  C_4
REMARK    3  A    between atoms: C_10  and  C_11
REMARK    4  A    between atoms: C_14  and  C_15
REMARK                            x       y       z     vdW  Elec       q    Type
REMARK                         _______ _______ _______ _____ _____    ______ ____
ROOT
ATOM      1  C   UNL     1       3.141   3.650  19.753  0.00  0.00    +0.000 A 
ATOM      2  S   UNL     1       3.367   5.389  19.698  0.00  0.00    +0.000 S 
ATOM      3  C   UNL     1       4.166   5.256  18.132  0.00  0.00    +0.000 A 
ATOM      4  N   UNL     1       4.574   6.296  17.493  0.00  0.00    +0.000 NA
ATOM      5  C   UNL     1       5.148   5.966  16.283  0.00  0.00    +0.000 A 
ATOM      6  O   UNL     1       5.607   6.814  15.529  0.00  0.00    +0.000 OA
ATOM      7  C   UNL     1       5.234   4.498  15.819  0.00  0.00    +0.000 A 
ATOM      8  C   UNL     1       5.831   4.203  14.474  0.00  0.00    +0.000 C 
ATOM      9  N   UNL     1       4.791   3.520  16.560  0.00  0.00    +0.000 NA
ATOM     10  N   UNL     1       4.247   3.920  17.752  0.00  0.00    +0.000 N 
ATOM     11  C   UNL     1       3.664   3.032  18.669  0.00  0.00    +0.000 A 
ATOM     12  C   UNL     1       3.643   1.559  18.400  0.00  0.00    +0.000 C 
ENDROOT
BRANCH   1  14
ATOM     13  C   UNL     1       0.921   2.984  20.904  0.00  0.00    +0.000 C 
ATOM     14  C   UNL     1       2.431   3.009  20.898  0.00  0.00    +0.000 C 
ATOM     15  O   UNL     1       3.062   2.509  21.830  0.00  0.00    +0.000 OA
ENDBRANCH   1  14
TORSDOF 1
ENDMDL
MODEL 2
REMARK VINA RESULT:      -6.6      0.973      1.027
REMARK  Name = 
REMARK  4 active torsions:
REMARK  status: ('A' for Active; 'I' for Inactive)
REMARK    1  A    between atoms: C_1  and  C_2
REMARK    2  A    between atoms: C_2  and  C_4
REMARK    3  A    between atoms: C_10  and  C_11
REMARK    4  A    between atoms: C_14  and  C_15
REMARK                            x       y       z     vdW  Elec       q    Type
REMARK                         _______ _______ _______ _____ _____    ______ ____
ROOT
ATOM      1  C   UNL     1       2.510   3.811  19.339  0.00  0.00    +0.000 A 
ATOM      2  S   UNL     1       2.631   5.554  19.173  0.00  0.00    +0.000 S 
ATOM      3  C   UNL     1       3.755   5.369  17.828  0.00  0.00    +0.000 A 
ATOM      4  N   UNL     1       4.223   6.388  17.196  0.00  0.00    +0.000 NA
ATOM      5  C   UNL     1       5.064   6.016  16.168  0.00  0.00    +0.000 A 
ATOM      6  O   UNL     1       5.619   6.839  15.452  0.00  0.00    +0.000 OA
ATOM      7  C   UNL     1       5.343   4.530  15.868  0.00  0.00    +0.000 A 
ATOM      8  C   UNL     1       6.234   4.183  14.711  0.00  0.00    +0.000 C 
ATOM      9  N   UNL     1       4.815   3.577  16.587  0.00  0.00    +0.000 NA
ATOM     10  N   UNL     1       4.002   4.020  17.597  0.00  0.00    +0.000 N 
ATOM     11  C   UNL     1       3.294   3.158  18.449  0.00  0.00    +0.000 A 
ATOM     12  C   UNL     1       3.427   1.672  18.318  0.00  0.00    +0.000 C 
ENDROOT
BRANCH   1  14
ATOM     13  C   UNL     1       2.158   2.931  21.746  0.00  0.00    +0.000 C 
ATOM     14  C   UNL     1       1.614   3.202  20.364  0.00  0.00    +0.000 C 
ATOM     15  O   UNL     1       0.446   2.920  20.092  0.00  0.00    +0.000 OA
ENDBRANCH   1  14
TORSDOF 1
ENDMDL
MODEL 3
REMARK VINA RESULT:      -6.5      1.271      1.293
REMARK  Name = 
REMARK  4 active torsions:
REMARK  status: ('A' for Active; 'I' for Inactive)
REMARK    1  A    between atoms: C_1  and  C_2
REMARK    2  A    between atoms: C_2  and  C_4
REMARK    3  A    between atoms: C_10  and  C_11
REMARK    4  A    between atoms: C_14  and  C_15
REMARK                            x       y       z     vdW  Elec       q    Type
REMARK                         _______ _______ _______ _____ _____    ______ ____
ROOT
ATOM      1  C   UNL     1       2.938   4.070  19.373  0.00  0.00    +0.000 A 
ATOM      2  S   UNL     1       3.962   5.464  19.669  0.00  0.00    +0.000 S 
ATOM      3  C   UNL     1       4.835   5.168  18.166  0.00  0.00    +0.000 A 
ATOM      4  N   UNL     1       5.776   5.950  17.769  0.00  0.00    +0.000 NA
ATOM      5  C   UNL     1       6.307   5.547  16.562  0.00  0.00    +0.000 A 
ATOM      6  O   UNL     1       7.221   6.153  16.018  0.00  0.00    +0.000 OA
ATOM      7  C   UNL     1       5.763   4.302  15.831  0.00  0.00    +0.000 A 
ATOM      8  C   UNL     1       6.350   3.935  14.499  0.00  0.00    +0.000 C 
ATOM      9  N   UNL     1       4.803   3.577  16.338  0.00  0.00    +0.000 NA
ATOM     10  N   UNL     1       4.335   4.029  17.543  0.00  0.00    +0.000 N 
ATOM     11  C   UNL     1       3.270   3.427  18.230  0.00  0.00    +0.000 A 
ATOM     12  C   UNL     1       2.600   2.204  17.682  0.00  0.00    +0.000 C 
ENDROOT
BRANCH   1  14
ATOM     13  C   UNL     1       2.151   2.799  21.485  0.00  0.00    +0.000 C 
ATOM     14  C   UNL     1       1.844   3.712  20.322  0.00  0.00    +0.000 C 
ATOM     15  O   UNL     1       0.703   4.149  20.162  0.00  0.00    +0.000 OA
ENDBRANCH   1  14
TORSDOF 1
ENDMDL
MODEL 4
REMARK VINA RESULT:      -6.5      1.558      1.624
REMARK  Name = 
REMARK  4 active torsions:
REMARK  status: ('A' for Active; 'I' for Inactive)
REMARK    1  A    between atoms: C_1  and  C_2
REMARK    2  A    between atoms: C_2  and  C_4
REMARK    3  A    between atoms: C_10  and  C_11
REMARK    4  A    between atoms: C_14  and  C_15
REMARK                            x       y       z     vdW  Elec       q    Type
REMARK                         _______ _______ _______ _____ _____    ______ ____
ROOT
ATOM      1  C   UNL     1       3.851   4.168  19.111  0.00  0.00    +0.000 A 
ATOM      2  S   UNL     1       5.270   5.188  19.273  0.00  0.00    +0.000 S 
ATOM      3  C   UNL     1       5.691   4.903  17.585  0.00  0.00    +0.000 A 
ATOM      4  N   UNL     1       6.715   5.464  17.043  0.00  0.00    +0.000 NA
ATOM      5  C   UNL     1       6.847   5.123  15.713  0.00  0.00    +0.000 A 
ATOM      6  O   UNL     1       7.764   5.545  15.021  0.00  0.00    +0.000 OA
ATOM      7  C   UNL     1       5.831   4.186  15.029  0.00  0.00    +0.000 A 
ATOM      8  C   UNL     1       6.000   3.883  13.569  0.00  0.00    +0.000 C 
ATOM      9  N   UNL     1       4.829   3.668  15.687  0.00  0.00    +0.000 NA
ATOM     10  N   UNL     1       4.769   4.040  17.003  0.00  0.00    +0.000 N 
ATOM     11  C   UNL     1       3.741   3.639  17.871  0.00  0.00    +0.000 A 
ATOM     12  C   UNL     1       2.651   2.728  17.395  0.00  0.00    +0.000 C 
ENDROOT
BRANCH   1  14
ATOM     13  C   UNL     1       1.904   5.041  20.575  0.00  0.00    +0.000 C 
ATOM     14  C   UNL     1       2.920   3.968  20.260  0.00  0.00    +0.000 C 
ATOM     15  O   UNL     1       2.975   2.947  20.946  0.00  0.00    +0.000 OA
ENDBRANCH   1  14
TORSDOF 1
ENDMDL
MODEL 5
REMARK VINA RESULT:      -6.2      2.360      5.357
REMARK  Name = 
REMARK  4 active torsions:
REMARK  status: ('A' for Active; 'I' for Inactive)
REMARK    1  A    between atoms: C_1  and  C_2
REMARK    2  A    between atoms: C_2  and  C_4
REMARK    3  A    between atoms: C_10  and  C_11
REMARK    4  A    between atoms: C_14  and  C_15
REMARK                            x       y       z     vdW  Elec       q    Type
REMARK                         _______ _______ _______ _____ _____    ______ ____
ROOT
ATOM      1  C   UNL     1       5.748   4.667  17.234  0.00  0.00    +0.000 A 
ATOM      2  S   UNL     1       4.619   3.937  16.107  0.00  0.00    +0.000 S 
ATOM      3  C   UNL     1       3.495   3.595  17.422  0.00  0.00    +0.000 A 
ATOM      4  N   UNL     1       2.353   3.044  17.205  0.00  0.00    +0.000 NA
ATOM      5  C   UNL     1       1.626   2.889  18.367  0.00  0.00    +0.000 A 
ATOM      6  O   UNL     1       0.515   2.377  18.376  0.00  0.00    +0.000 OA
ATOM      7  C   UNL     1       2.185   3.365  19.723  0.00  0.00    +0.000 A 
ATOM      8  C   UNL     1       1.333   3.210  20.948  0.00  0.00    +0.000 C 
ATOM      9  N   UNL     1       3.369   3.907  19.822  0.00  0.00    +0.000 NA
ATOM     10  N   UNL     1       4.037   4.016  18.632  0.00  0.00    +0.000 N 
ATOM     11  C   UNL     1       5.299   4.619  18.510  0.00  0.00    +0.000 A 
ATOM     12  C   UNL     1       6.013   5.151  19.715  0.00  0.00    +0.000 C 
ENDROOT
BRANCH   1  14
ATOM     13  C   UNL     1       7.254   6.745  16.903  0.00  0.00    +0.000 C 
ATOM     14  C   UNL     1       7.030   5.259  16.754  0.00  0.00    +0.000 C 
ATOM     15  O   UNL     1       7.897   4.552  16.240  0.00  0.00    +0.000 OA
ENDBRANCH   1  14
TORSDOF 1
ENDMDL
MODEL 6
REMARK VINA RESULT:      -6.2      2.008      2.745
REMARK  Name = 
REMARK  4 active torsions:
REMARK  status: ('A' for Active; 'I' for Inactive)
REMARK    1  A    between atoms: C_1  and  C_2
REMARK    2  A    between atoms: C_2  and  C_4
REMARK    3  A    between atoms: C_10  and  C_11
REMARK    4  A    between atoms: C_14  and  C_15
REMARK                            x       y       z     vdW  Elec       q    Type
REMARK                         _______ _______ _______ _____ _____    ______ ____
ROOT
ATOM      1  C   UNL     1       2.620   3.505  18.899  0.00  0.00    +0.000 A 
ATOM      2  S   UNL     1       3.511   2.492  17.777  0.00  0.00    +0.000 S 
ATOM      3  C   UNL     1       4.653   3.801  17.472  0.00  0.00    +0.000 A 
ATOM      4  N   UNL     1       5.659   3.646  16.685  0.00  0.00    +0.000 NA
ATOM      5  C   UNL     1       6.433   4.785  16.607  0.00  0.00    +0.000 A 
ATOM      6  O   UNL     1       7.433   4.845  15.903  0.00  0.00    +0.000 OA
ATOM      7  C   UNL     1       6.073   6.046  17.417  0.00  0.00    +0.000 A 
ATOM      8  C   UNL     1       6.976   7.242  17.327  0.00  0.00    +0.000 C 
ATOM      9  N   UNL     1       5.016   6.089  18.182  0.00  0.00    +0.000 NA
ATOM     10  N   UNL     1       4.289   4.929  18.199  0.00  0.00    +0.000 N 
ATOM     11  C   UNL     1       3.149   4.746  18.998  0.00  0.00    +0.000 A 
ATOM     12  C   UNL     1       2.637   5.856  19.865  0.00  0.00    +0.000 C 
ENDROOT
BRANCH   1  14
ATOM     13  C   UNL     1       1.491   2.838  21.130  0.00  0.00    +0.000 C 
ATOM     14  C   UNL     1       1.431   2.974  19.627  0.00  0.00    +0.000 C 
ATOM     15  O   UNL     1       0.413   2.647  19.017  0.00  0.00    +0.000 OA
ENDBRANCH   1  14
TORSDOF 1
ENDMDL
MODEL 7
REMARK VINA RESULT:      -6.1      1.822      1.967
REMARK  Name = 
REMARK  4 active torsions:
REMARK  status: ('A' for Active; 'I' for Inactive)
REMARK    1  A    between atoms: C_1  and  C_2
REMARK    2  A    between atoms: C_2  and  C_4
REMARK    3  A    between atoms: C_10  and  C_11
REMARK    4  A    between atoms: C_14  and  C_15
REMARK                            x       y       z     vdW  Elec       q    Type
REMARK                         _______ _______ _______ _____ _____    ______ ____
ROOT
ATOM      1  C   UNL     1       3.038   4.230  19.486  0.00  0.00    +0.000 A 
ATOM      2  S   UNL     1       4.686   4.394  20.066  0.00  0.00    +0.000 S 
ATOM      3  C   UNL     1       5.295   4.329  18.413  0.00  0.00    +0.000 A 
ATOM      4  N   UNL     1       6.550   4.446  18.153  0.00  0.00    +0.000 NA
ATOM      5  C   UNL     1       6.804   4.389  16.799  0.00  0.00    +0.000 A 
ATOM      6  O   UNL     1       7.938   4.471  16.346  0.00  0.00    +0.000 OA
ATOM      7  C   UNL     1       5.657   4.222  15.782  0.00  0.00    +0.000 A 
ATOM      8  C   UNL     1       5.988   4.210  14.318  0.00  0.00    +0.000 C 
ATOM      9  N   UNL     1       4.415   4.106  16.166  0.00  0.00    +0.000 NA
ATOM     10  N   UNL     1       4.240   4.158  17.523  0.00  0.00    +0.000 N 
ATOM     11  C   UNL     1       2.980   4.108  18.140  0.00  0.00    +0.000 A 
ATOM     12  C   UNL     1       1.734   3.952  17.322  0.00  0.00    +0.000 C 
ENDROOT
BRANCH   1  14
ATOM     13  C   UNL     1       1.401   2.936  21.017  0.00  0.00    +0.000 C 
ATOM     14  C   UNL     1       1.889   4.243  20.438  0.00  0.00    +0.000 C 
ATOM     15  O   UNL     1       1.341   5.301  20.749  0.00  0.00    +0.000 OA
ENDBRANCH   1  14
TORSDOF 1
ENDMDL
MODEL 8
REMARK VINA RESULT:      -6.1      1.813      1.974
REMARK  Name = 
REMARK  4 active torsions:
REMARK  status: ('A' for Active; 'I' for Inactive)
REMARK    1  A    between atoms: C_1  and  C_2
REMARK    2  A    between atoms: C_2  and  C_4
REMARK    3  A    between atoms: C_10  and  C_11
REMARK    4  A    between atoms: C_14  and  C_15
REMARK                            x       y       z     vdW  Elec       q    Type
REMARK                         _______ _______ _______ _____ _____    ______ ____
ROOT
ATOM      1  C   UNL     1       2.320   3.582  19.194  0.00  0.00    +0.000 A 
ATOM      2  S   UNL     1       2.077   4.920  18.085  0.00  0.00    +0.000 S 
ATOM      3  C   UNL     1       3.818   5.067  17.850  0.00  0.00    +0.000 A 
ATOM      4  N   UNL     1       4.317   5.933  17.040  0.00  0.00    +0.000 NA
ATOM      5  C   UNL     1       5.694   5.862  16.991  0.00  0.00    +0.000 A 
ATOM      6  O   UNL     1       6.360   6.608  16.287  0.00  0.00    +0.000 OA
ATOM      7  C   UNL     1       6.465   4.822  17.830  0.00  0.00    +0.000 A 
ATOM      8  C   UNL     1       7.959   4.761  17.705  0.00  0.00    +0.000 C 
ATOM      9  N   UNL     1       5.847   3.994  18.627  0.00  0.00    +0.000 NA
ATOM     10  N   UNL     1       4.485   4.131  18.634  0.00  0.00    +0.000 N 
ATOM     11  C   UNL     1       3.631   3.303  19.379  0.00  0.00    +0.000 A 
ATOM     12  C   UNL     1       4.186   2.225  20.258  0.00  0.00    +0.000 C 
ENDROOT
BRANCH   1  14
ATOM     13  C   UNL     1       1.053   2.814  21.316  0.00  0.00    +0.000 C 
ATOM     14  C   UNL     1       1.156   2.881  19.811  0.00  0.00    +0.000 C 
ATOM     15  O   UNL     1       0.289   2.361  19.108  0.00  0.00    +0.000 OA
ENDBRANCH   1  14
TORSDOF 1
ENDMDL
MODEL 9
REMARK VINA RESULT:      -6.1      2.199      2.599
REMARK  Name = 
REMARK  4 active torsions:
REMARK  status: ('A' for Active; 'I' for Inactive)
REMARK    1  A    between atoms: C_1  and  C_2
REMARK    2  A    between atoms: C_2  and  C_4
REMARK    3  A    between atoms: C_10  and  C_11
REMARK    4  A    between atoms: C_14  and  C_15
REMARK                            x       y       z     vdW  Elec       q    Type
REMARK                         _______ _______ _______ _____ _____    ______ ____
ROOT
ATOM      1  C   UNL     1       4.288   5.149  18.278  0.00  0.00    +0.000 A 
ATOM      2  S   UNL     1       5.764   6.092  18.171  0.00  0.00    +0.000 S 
ATOM      3  C   UNL     1       6.092   5.433  16.568  0.00  0.00    +0.000 A 
ATOM      4  N   UNL     1       7.118   5.804  15.886  0.00  0.00    +0.000 NA
ATOM      5  C   UNL     1       7.171   5.183  14.655  0.00  0.00    +0.000 A 
ATOM      6  O   UNL     1       8.076   5.394  13.858  0.00  0.00    +0.000 OA
ATOM      7  C   UNL     1       6.076   4.188  14.221  0.00  0.00    +0.000 A 
ATOM      8  C   UNL     1       6.162   3.575  12.853  0.00  0.00    +0.000 C 
ATOM      9  N   UNL     1       5.080   3.881  15.007  0.00  0.00    +0.000 NA
ATOM     10  N   UNL     1       5.101   4.525  16.215  0.00  0.00    +0.000 N 
ATOM     11  C   UNL     1       4.094   4.379  17.182  0.00  0.00    +0.000 A 
ATOM     12  C   UNL     1       2.936   3.456  16.949  0.00  0.00    +0.000 C 
ENDROOT
BRANCH   1  14
ATOM     13  C   UNL     1       2.544   6.484  19.646  0.00  0.00    +0.000 C 
ATOM     14  C   UNL     1       3.401   5.252  19.473  0.00  0.00    +0.000 C 
ATOM     15  O   UNL     1       3.367   4.352  20.312  0.00  0.00    +0.000 OA
ENDBRANCH   1  14
TORSDOF 1
ENDMDL
