MODEL 1
REMARK VINA RESULT:      -7.6      0.000      0.000
REMARK  Name = 
REMARK  4 active torsions:
REMARK  status: ('A' for Active; 'I' for Inactive)
REMARK    1  A    between atoms: C_1  and  C_2
REMARK    2  A    between atoms: N_8  and  C_9
REMARK    3  A    between atoms: C_11  and  C_12
REMARK    4  A    between atoms: C_16  and  C_17
REMARK                            x       y       z     vdW  Elec       q    Type
REMARK                         _______ _______ _______ _____ _____    ______ ____
ROOT
ATOM      1  C   UNL     1       1.478   1.900  19.595  0.00  0.00    +0.000 C 
ATOM      2  C   UNL     1       1.782   3.347  19.397  0.00  0.00    +0.000 A 
ATOM      3  C   UNL     1       2.375   3.911  18.277  0.00  0.00    +0.000 A 
ATOM      4  C   UNL     1       2.543   5.303  18.390  0.00  0.00    +0.000 A 
ATOM      5  C   UNL     1       2.070   5.812  19.576  0.00  0.00    +0.000 A 
ATOM      6  S   UNL     1       1.469   4.562  20.520  0.00  0.00    +0.000 S 
ATOM      7  C   UNL     1       2.099   7.244  19.959  0.00  0.00    +0.000 C 
ATOM      8  N   UNL     1       2.438   8.131  18.826  0.00  0.00    +0.000 NA
ATOM      9  C   UNL     1       1.480   9.203  18.546  0.00  0.00    +0.000 C 
ATOM     10  C   UNL     1       3.271   7.671  17.689  0.00  0.00    +0.000 C 
ATOM     11  C   UNL     1       3.202   6.148  17.341  0.00  0.00    +0.000 C 
ENDROOT
BRANCH  11  12
ATOM     12  C   UNL     1       4.612   5.610  17.151  0.00  0.00    +0.000 A 
ATOM     13  C   UNL     1       4.953   4.842  16.024  0.00  0.00    +0.000 A 
ATOM     14  C   UNL     1       6.253   4.346  15.888  0.00  0.00    +0.000 A 
ATOM     15  C   UNL     1       7.224   4.617  16.858  0.00  0.00    +0.000 A 
ATOM     16  C   UNL     1       6.901   5.384  17.989  0.00  0.00    +0.000 A 
ATOM     17  C   UNL     1       5.591   5.867  18.130  0.00  0.00    +0.000 A 
BRANCH  16  18
ATOM     18  C   UNL     1       7.914   5.701  19.061  0.00  0.00    +0.000 C 
ATOM     19  F   UNL     1       7.341   5.705  20.321  0.00  0.00    +0.000 F 
ATOM     20  F   UNL     1       8.921   4.751  19.037  0.00  0.00    +0.000 F 
ATOM     21  F   UNL     1       8.467   6.947  18.824  0.00  0.00    +0.000 F 
ENDBRANCH  16  18
ENDBRANCH  11  12
TORSDOF 2
ENDMDL
MODEL 2
REMARK VINA RESULT:      -7.3      3.767      6.257
REMARK  Name = 
REMARK  4 active torsions:
REMARK  status: ('A' for Active; 'I' for Inactive)
REMARK    1  A    between atoms: C_1  and  C_2
REMARK    2  A    between atoms: N_8  and  C_9
REMARK    3  A    between atoms: C_11  and  C_12
REMARK    4  A    between atoms: C_16  and  C_17
REMARK                            x       y       z     vdW  Elec       q    Type
REMARK                         _______ _______ _______ _____ _____    ______ ____
ROOT
ATOM      1  C   UNL     1       7.550   7.696  17.439  0.00  0.00    +0.000 C 
ATOM      2  C   UNL     1       6.537   6.652  17.770  0.00  0.00    +0.000 A 
ATOM      3  C   UNL     1       5.166   6.760  17.590  0.00  0.00    +0.000 A 
ATOM      4  C   UNL     1       4.468   5.612  18.008  0.00  0.00    +0.000 A 
ATOM      5  C   UNL     1       5.292   4.622  18.489  0.00  0.00    +0.000 A 
ATOM      6  S   UNL     1       6.884   5.147  18.441  0.00  0.00    +0.000 S 
ATOM      7  C   UNL     1       4.835   3.300  18.980  0.00  0.00    +0.000 C 
ATOM      8  N   UNL     1       3.420   3.027  18.653  0.00  0.00    +0.000 NA
ATOM      9  C   UNL     1       3.163   1.784  17.922  0.00  0.00    +0.000 C 
ATOM     10  C   UNL     1       2.428   4.115  18.483  0.00  0.00    +0.000 C 
ATOM     11  C   UNL     1       2.975   5.487  17.969  0.00  0.00    +0.000 C 
ENDROOT
BRANCH  11  12
ATOM     12  C   UNL     1       2.407   6.608  18.825  0.00  0.00    +0.000 A 
ATOM     13  C   UNL     1       2.173   6.429  20.199  0.00  0.00    +0.000 A 
ATOM     14  C   UNL     1       1.631   7.474  20.955  0.00  0.00    +0.000 A 
ATOM     15  C   UNL     1       1.331   8.704  20.358  0.00  0.00    +0.000 A 
ATOM     16  C   UNL     1       1.561   8.900  18.987  0.00  0.00    +0.000 A 
ATOM     17  C   UNL     1       2.089   7.844  18.229  0.00  0.00    +0.000 A 
BRANCH  16  18
ATOM     18  C   UNL     1       1.252  10.207  18.300  0.00  0.00    +0.000 C 
ATOM     19  F   UNL     1       2.307  10.632  17.511  0.00  0.00    +0.000 F 
ATOM     20  F   UNL     1       0.135  10.052  17.496  0.00  0.00    +0.000 F 
ATOM     21  F   UNL     1       0.990  11.180  19.248  0.00  0.00    +0.000 F 
ENDBRANCH  16  18
ENDBRANCH  11  12
TORSDOF 2
ENDMDL
MODEL 3
REMARK VINA RESULT:      -7.3      3.482      5.500
REMARK  Name = 
REMARK  4 active torsions:
REMARK  status: ('A' for Active; 'I' for Inactive)
REMARK    1  A    between atoms: C_1  and  C_2
REMARK    2  A    between atoms: N_8  and  C_9
REMARK    3  A    between atoms: C_11  and  C_12
REMARK    4  A    between atoms: C_16  and  C_17
REMARK                            x       y       z     vdW  Elec       q    Type
REMARK                         _______ _______ _______ _____ _____    ______ ____
ROOT
ATOM      1  C   UNL     1       0.467   2.258  19.143  0.00  0.00    +0.000 C 
ATOM      2  C   UNL     1       1.676   2.996  18.675  0.00  0.00    +0.000 A 
ATOM      3  C   UNL     1       2.208   4.139  19.253  0.00  0.00    +0.000 A 
ATOM      4  C   UNL     1       3.348   4.613  18.577  0.00  0.00    +0.000 A 
ATOM      5  C   UNL     1       3.702   3.835  17.501  0.00  0.00    +0.000 A 
ATOM      6  S   UNL     1       2.608   2.574  17.338  0.00  0.00    +0.000 S 
ATOM      7  C   UNL     1       4.868   4.083  16.619  0.00  0.00    +0.000 C 
ATOM      8  N   UNL     1       5.790   5.101  17.166  0.00  0.00    +0.000 NA
ATOM      9  C   UNL     1       7.188   4.685  17.307  0.00  0.00    +0.000 C 
ATOM     10  C   UNL     1       5.324   6.181  18.068  0.00  0.00    +0.000 C 
ATOM     11  C   UNL     1       4.086   5.858  18.966  0.00  0.00    +0.000 C 
ENDROOT
BRANCH  11  12
ATOM     12  C   UNL     1       3.095   7.010  18.891  0.00  0.00    +0.000 A 
ATOM     13  C   UNL     1       2.937   7.759  17.713  0.00  0.00    +0.000 A 
ATOM     14  C   UNL     1       2.031   8.825  17.682  0.00  0.00    +0.000 A 
ATOM     15  C   UNL     1       1.271   9.145  18.812  0.00  0.00    +0.000 A 
ATOM     16  C   UNL     1       1.416   8.406  19.997  0.00  0.00    +0.000 A 
ATOM     17  C   UNL     1       2.336   7.348  20.028  0.00  0.00    +0.000 A 
BRANCH  16  18
ATOM     18  C   UNL     1       0.618   8.715  21.239  0.00  0.00    +0.000 C 
ATOM     19  F   UNL     1      -0.008   9.947  21.152  0.00  0.00    +0.000 F 
ATOM     20  F   UNL     1      -0.348   7.741  21.420  0.00  0.00    +0.000 F 
ATOM     21  F   UNL     1       1.458   8.724  22.340  0.00  0.00    +0.000 F 
ENDBRANCH  16  18
ENDBRANCH  11  12
TORSDOF 2
ENDMDL
MODEL 4
REMARK VINA RESULT:      -7.3      3.575      6.074
REMARK  Name = 
REMARK  4 active torsions:
REMARK  status: ('A' for Active; 'I' for Inactive)
REMARK    1  A    between atoms: C_1  and  C_2
REMARK    2  A    between atoms: N_8  and  C_9
REMARK    3  A    between atoms: C_11  and  C_12
REMARK    4  A    between atoms: C_16  and  C_17
REMARK                            x       y       z     vdW  Elec       q    Type
REMARK                         _______ _______ _______ _____ _____    ______ ____
ROOT
ATOM      1  C   UNL     1       7.621   7.333  17.425  0.00  0.00    +0.000 C 
ATOM      2  C   UNL     1       6.447   6.546  17.901  0.00  0.00    +0.000 A 
ATOM      3  C   UNL     1       5.127   6.733  17.514  0.00  0.00    +0.000 A 
ATOM      4  C   UNL     1       4.241   5.841  18.146  0.00  0.00    +0.000 A 
ATOM      5  C   UNL     1       4.870   4.963  18.996  0.00  0.00    +0.000 A 
ATOM      6  S   UNL     1       6.516   5.286  19.015  0.00  0.00    +0.000 S 
ATOM      7  C   UNL     1       4.191   3.904  19.780  0.00  0.00    +0.000 C 
ATOM      8  N   UNL     1       2.791   3.690  19.357  0.00  0.00    +0.000 NA
ATOM      9  C   UNL     1       2.440   2.318  18.984  0.00  0.00    +0.000 C 
ATOM     10  C   UNL     1       1.979   4.772  18.749  0.00  0.00    +0.000 C 
ATOM     11  C   UNL     1       2.756   5.862  17.943  0.00  0.00    +0.000 C 
ENDROOT
BRANCH  11  12
ATOM     12  C   UNL     1       2.265   7.241  18.357  0.00  0.00    +0.000 A 
ATOM     13  C   UNL     1       2.335   8.334  17.476  0.00  0.00    +0.000 A 
ATOM     14  C   UNL     1       1.893   9.594  17.894  0.00  0.00    +0.000 A 
ATOM     15  C   UNL     1       1.370   9.775  19.179  0.00  0.00    +0.000 A 
ATOM     16  C   UNL     1       1.292   8.693  20.071  0.00  0.00    +0.000 A 
ATOM     17  C   UNL     1       1.750   7.435  19.653  0.00  0.00    +0.000 A 
BRANCH  16  18
ATOM     18  C   UNL     1       0.736   8.841  21.465  0.00  0.00    +0.000 C 
ATOM     19  F   UNL     1       0.334  10.140  21.721  0.00  0.00    +0.000 F 
ATOM     20  F   UNL     1      -0.357   8.004  21.616  0.00  0.00    +0.000 F 
ATOM     21  F   UNL     1       1.702   8.487  22.391  0.00  0.00    +0.000 F 
ENDBRANCH  16  18
ENDBRANCH  11  12
TORSDOF 2
ENDMDL
MODEL 5
REMARK VINA RESULT:      -7.2      3.503      5.540
REMARK  Name = 
REMARK  4 active torsions:
REMARK  status: ('A' for Active; 'I' for Inactive)
REMARK    1  A    between atoms: C_1  and  C_2
REMARK    2  A    between atoms: N_8  and  C_9
REMARK    3  A    between atoms: C_11  and  C_12
REMARK    4  A    between atoms: C_16  and  C_17
REMARK                            x       y       z     vdW  Elec       q    Type
REMARK                         _______ _______ _______ _____ _____    ______ ____
ROOT
ATOM      1  C   UNL     1       1.146   2.892  21.428  0.00  0.00    +0.000 C 
ATOM      2  C   UNL     1       1.937   3.452  20.294  0.00  0.00    +0.000 A 
ATOM      3  C   UNL     1       2.521   4.710  20.249  0.00  0.00    +0.000 A 
ATOM      4  C   UNL     1       3.194   4.957  19.039  0.00  0.00    +0.000 A 
ATOM      5  C   UNL     1       3.147   3.896  18.166  0.00  0.00    +0.000 A 
ATOM      6  S   UNL     1       2.252   2.651  18.847  0.00  0.00    +0.000 S 
ATOM      7  C   UNL     1       3.782   3.867  16.826  0.00  0.00    +0.000 C 
ATOM      8  N   UNL     1       4.717   4.992  16.614  0.00  0.00    +0.000 NA
ATOM      9  C   UNL     1       6.079   4.625  16.223  0.00  0.00    +0.000 C 
ATOM     10  C   UNL     1       4.553   6.292  17.308  0.00  0.00    +0.000 C 
ATOM     11  C   UNL     1       3.869   6.255  18.713  0.00  0.00    +0.000 C 
ENDROOT
BRANCH  11  12
ATOM     12  C   UNL     1       2.808   7.343  18.786  0.00  0.00    +0.000 A 
ATOM     13  C   UNL     1       2.485   8.123  17.662  0.00  0.00    +0.000 A 
ATOM     14  C   UNL     1       1.519   9.129  17.767  0.00  0.00    +0.000 A 
ATOM     15  C   UNL     1       0.860   9.359  18.979  0.00  0.00    +0.000 A 
ATOM     16  C   UNL     1       1.169   8.588  20.111  0.00  0.00    +0.000 A 
ATOM     17  C   UNL     1       2.150   7.591  20.006  0.00  0.00    +0.000 A 
BRANCH  16  18
ATOM     18  C   UNL     1       0.485   8.801  21.439  0.00  0.00    +0.000 C 
ATOM     19  F   UNL     1      -0.606   7.963  21.593  0.00  0.00    +0.000 F 
ATOM     20  F   UNL     1       1.382   8.550  22.464  0.00  0.00    +0.000 F 
ATOM     21  F   UNL     1       0.051  10.112  21.534  0.00  0.00    +0.000 F 
ENDBRANCH  16  18
ENDBRANCH  11  12
TORSDOF 2
ENDMDL
MODEL 6
REMARK VINA RESULT:      -7.1      2.280      2.841
REMARK  Name = 
REMARK  4 active torsions:
REMARK  status: ('A' for Active; 'I' for Inactive)
REMARK    1  A    between atoms: C_1  and  C_2
REMARK    2  A    between atoms: N_8  and  C_9
REMARK    3  A    between atoms: C_11  and  C_12
REMARK    4  A    between atoms: C_16  and  C_17
REMARK                            x       y       z     vdW  Elec       q    Type
REMARK                         _______ _______ _______ _____ _____    ______ ____
ROOT
ATOM      1  C   UNL     1       1.474   1.834  19.327  0.00  0.00    +0.000 C 
ATOM      2  C   UNL     1       1.721   3.305  19.312  0.00  0.00    +0.000 A 
ATOM      3  C   UNL     1       2.261   4.031  18.260  0.00  0.00    +0.000 A 
ATOM      4  C   UNL     1       2.384   5.402  18.550  0.00  0.00    +0.000 A 
ATOM      5  C   UNL     1       1.927   5.735  19.803  0.00  0.00    +0.000 A 
ATOM      6  S   UNL     1       1.397   4.352  20.590  0.00  0.00    +0.000 S 
ATOM      7  C   UNL     1       1.916   7.105  20.368  0.00  0.00    +0.000 C 
ATOM      8  N   UNL     1       2.191   8.144  19.353  0.00  0.00    +0.000 NA
ATOM      9  C   UNL     1       1.189   9.205  19.238  0.00  0.00    +0.000 C 
ATOM     10  C   UNL     1       3.007   7.867  18.146  0.00  0.00    +0.000 C 
ATOM     11  C   UNL     1       2.982   6.401  17.605  0.00  0.00    +0.000 C 
ENDROOT
BRANCH  11  12
ATOM     12  C   UNL     1       4.404   5.947  17.312  0.00  0.00    +0.000 A 
ATOM     13  C   UNL     1       5.414   6.044  18.284  0.00  0.00    +0.000 A 
ATOM     14  C   UNL     1       6.717   5.636  17.977  0.00  0.00    +0.000 A 
ATOM     15  C   UNL     1       7.021   5.119  16.713  0.00  0.00    +0.000 A 
ATOM     16  C   UNL     1       6.024   5.013  15.731  0.00  0.00    +0.000 A 
ATOM     17  C   UNL     1       4.722   5.438  16.038  0.00  0.00    +0.000 A 
BRANCH  16  18
ATOM     18  C   UNL     1       6.306   4.463  14.356  0.00  0.00    +0.000 C 
ATOM     19  F   UNL     1       7.372   5.109  13.755  0.00  0.00    +0.000 F 
ATOM     20  F   UNL     1       6.605   3.115  14.451  0.00  0.00    +0.000 F 
ATOM     21  F   UNL     1       5.188   4.618  13.554  0.00  0.00    +0.000 F 
ENDBRANCH  16  18
ENDBRANCH  11  12
TORSDOF 2
ENDMDL
MODEL 7
REMARK VINA RESULT:      -6.9      3.950      6.096
REMARK  Name = 
REMARK  4 active torsions:
REMARK  status: ('A' for Active; 'I' for Inactive)
REMARK    1  A    between atoms: C_1  and  C_2
REMARK    2  A    between atoms: N_8  and  C_9
REMARK    3  A    between atoms: C_11  and  C_12
REMARK    4  A    between atoms: C_16  and  C_17
REMARK                            x       y       z     vdW  Elec       q    Type
REMARK                         _______ _______ _______ _____ _____    ______ ____
ROOT
ATOM      1  C   UNL     1       5.906   3.540  13.142  0.00  0.00    +0.000 C 
ATOM      2  C   UNL     1       6.161   4.145  14.481  0.00  0.00    +0.000 A 
ATOM      3  C   UNL     1       5.630   3.710  15.687  0.00  0.00    +0.000 A 
ATOM      4  C   UNL     1       6.046   4.492  16.781  0.00  0.00    +0.000 A 
ATOM      5  C   UNL     1       6.902   5.507  16.426  0.00  0.00    +0.000 A 
ATOM      6  S   UNL     1       7.138   5.486  14.766  0.00  0.00    +0.000 S 
ATOM      7  C   UNL     1       7.512   6.474  17.371  0.00  0.00    +0.000 C 
ATOM      8  N   UNL     1       7.334   6.081  18.784  0.00  0.00    +0.000 NA
ATOM      9  C   UNL     1       8.560   5.980  19.578  0.00  0.00    +0.000 C 
ATOM     10  C   UNL     1       6.183   5.261  19.233  0.00  0.00    +0.000 C 
ATOM     11  C   UNL     1       5.580   4.268  18.188  0.00  0.00    +0.000 C 
ENDROOT
BRANCH  11  12
ATOM     12  C   UNL     1       4.064   4.396  18.185  0.00  0.00    +0.000 A 
ATOM     13  C   UNL     1       3.430   5.536  17.663  0.00  0.00    +0.000 A 
ATOM     14  C   UNL     1       2.035   5.632  17.694  0.00  0.00    +0.000 A 
ATOM     15  C   UNL     1       1.262   4.595  18.228  0.00  0.00    +0.000 A 
ATOM     16  C   UNL     1       1.879   3.449  18.752  0.00  0.00    +0.000 A 
ATOM     17  C   UNL     1       3.279   3.363  18.735  0.00  0.00    +0.000 A 
BRANCH  16  18
ATOM     18  C   UNL     1       1.087   2.307  19.340  0.00  0.00    +0.000 C 
ATOM     19  F   UNL     1       0.637   2.600  20.615  0.00  0.00    +0.000 F 
ATOM     20  F   UNL     1      -0.009   2.045  18.535  0.00  0.00    +0.000 F 
ATOM     21  F   UNL     1       1.879   1.174  19.401  0.00  0.00    +0.000 F 
ENDBRANCH  16  18
ENDBRANCH  11  12
TORSDOF 2
ENDMDL
MODEL 8
REMARK VINA RESULT:      -6.9      2.314      2.845
REMARK  Name = 
REMARK  4 active torsions:
REMARK  status: ('A' for Active; 'I' for Inactive)
REMARK    1  A    between atoms: C_1  and  C_2
REMARK    2  A    between atoms: N_8  and  C_9
REMARK    3  A    between atoms: C_11  and  C_12
REMARK    4  A    between atoms: C_16  and  C_17
REMARK                            x       y       z     vdW  Elec       q    Type
REMARK                         _______ _______ _______ _____ _____    ______ ____
ROOT
ATOM      1  C   UNL     1       2.134   2.423  19.879  0.00  0.00    +0.000 C 
ATOM      2  C   UNL     1       2.188   3.895  19.646  0.00  0.00    +0.000 A 
ATOM      3  C   UNL     1       2.582   4.522  18.473  0.00  0.00    +0.000 A 
ATOM      4  C   UNL     1       2.539   5.925  18.562  0.00  0.00    +0.000 A 
ATOM      5  C   UNL     1       2.100   6.377  19.784  0.00  0.00    +0.000 A 
ATOM      6  S   UNL     1       1.789   5.068  20.786  0.00  0.00    +0.000 S 
ATOM      7  C   UNL     1       1.938   7.804  20.154  0.00  0.00    +0.000 C 
ATOM      8  N   UNL     1       2.031   8.710  18.991  0.00  0.00    +0.000 NA
ATOM      9  C   UNL     1       0.895   9.614  18.794  0.00  0.00    +0.000 C 
ATOM     10  C   UNL     1       2.820   8.363  17.785  0.00  0.00    +0.000 C 
ATOM     11  C   UNL     1       2.960   6.842  17.453  0.00  0.00    +0.000 C 
ENDROOT
BRANCH  11  12
ATOM     12  C   UNL     1       4.415   6.526  17.137  0.00  0.00    +0.000 A 
ATOM     13  C   UNL     1       5.460   7.055  17.914  0.00  0.00    +0.000 A 
ATOM     14  C   UNL     1       6.788   6.761  17.585  0.00  0.00    +0.000 A 
ATOM     15  C   UNL     1       7.086   5.935  16.496  0.00  0.00    +0.000 A 
ATOM     16  C   UNL     1       6.053   5.398  15.711  0.00  0.00    +0.000 A 
ATOM     17  C   UNL     1       4.724   5.707  16.034  0.00  0.00    +0.000 A 
BRANCH  16  18
ATOM     18  C   UNL     1       6.327   4.503  14.528  0.00  0.00    +0.000 C 
ATOM     19  F   UNL     1       6.670   3.222  14.923  0.00  0.00    +0.000 F 
ATOM     20  F   UNL     1       5.194   4.431  13.734  0.00  0.00    +0.000 F 
ATOM     21  F   UNL     1       7.366   5.027  13.778  0.00  0.00    +0.000 F 
ENDBRANCH  16  18
ENDBRANCH  11  12
TORSDOF 2
ENDMDL
MODEL 9
REMARK VINA RESULT:      -6.7      1.147      1.427
REMARK  Name = 
REMARK  4 active torsions:
REMARK  status: ('A' for Active; 'I' for Inactive)
REMARK    1  A    between atoms: C_1  and  C_2
REMARK    2  A    between atoms: N_8  and  C_9
REMARK    3  A    between atoms: C_11  and  C_12
REMARK    4  A    between atoms: C_16  and  C_17
REMARK                            x       y       z     vdW  Elec       q    Type
REMARK                         _______ _______ _______ _____ _____    ______ ____
ROOT
ATOM      1  C   UNL     1       1.613   1.851  19.261  0.00  0.00    +0.000 C 
ATOM      2  C   UNL     1       1.786   3.332  19.287  0.00  0.00    +0.000 A 
ATOM      3  C   UNL     1       2.228   4.121  18.235  0.00  0.00    +0.000 A 
ATOM      4  C   UNL     1       2.300   5.486  18.568  0.00  0.00    +0.000 A 
ATOM      5  C   UNL     1       1.900   5.751  19.857  0.00  0.00    +0.000 A 
ATOM      6  S   UNL     1       1.486   4.316  20.620  0.00  0.00    +0.000 S 
ATOM      7  C   UNL     1       1.855   7.099  20.473  0.00  0.00    +0.000 C 
ATOM      8  N   UNL     1       2.020   8.184  19.483  0.00  0.00    +0.000 NA
ATOM      9  C   UNL     1       0.962   9.196  19.465  0.00  0.00    +0.000 C 
ATOM     10  C   UNL     1       2.777   7.991  18.223  0.00  0.00    +0.000 C 
ATOM     11  C   UNL     1       2.792   6.546  17.630  0.00  0.00    +0.000 C 
ENDROOT
BRANCH  11  12
ATOM     12  C   UNL     1       4.216   6.175  17.241  0.00  0.00    +0.000 A 
ATOM     13  C   UNL     1       4.494   4.991  16.537  0.00  0.00    +0.000 A 
ATOM     14  C   UNL     1       5.816   4.669  16.212  0.00  0.00    +0.000 A 
ATOM     15  C   UNL     1       6.865   5.523  16.569  0.00  0.00    +0.000 A 
ATOM     16  C   UNL     1       6.604   6.711  17.270  0.00  0.00    +0.000 A 
ATOM     17  C   UNL     1       5.279   7.022  17.609  0.00  0.00    +0.000 A 
BRANCH  16  18
ATOM     18  C   UNL     1       7.703   7.661  17.677  0.00  0.00    +0.000 C 
ATOM     19  F   UNL     1       7.198   8.887  18.075  0.00  0.00    +0.000 F 
ATOM     20  F   UNL     1       8.416   7.116  18.732  0.00  0.00    +0.000 F 
ATOM     21  F   UNL     1       8.562   7.863  16.612  0.00  0.00    +0.000 F 
ENDBRANCH  16  18
ENDBRANCH  11  12
TORSDOF 2
ENDMDL
