MODEL 1
REMARK VINA RESULT:      -8.8      0.000      0.000
REMARK  Name = 
REMARK  7 active torsions:
REMARK  status: ('A' for Active; 'I' for Inactive)
REMARK    1  A    between atoms: C_2  and  C_3
REMARK    2  A    between atoms: C_3  and  C_4
REMARK    3  A    between atoms: C_4  and  N_5
REMARK    4  A    between atoms: N_17  and  C_18
REMARK    5  A    between atoms: C_18  and  C_19
REMARK    6  A    between atoms: C_24  and  O_25
REMARK    7  A    between atoms: O_25  and  C_26
REMARK                            x       y       z     vdW  Elec       q    Type
REMARK                         _______ _______ _______ _____ _____    ______ ____
ROOT
ATOM      1  O   UNL     1       1.901   3.456  21.823  0.00  0.00    +0.000 OA
ATOM      2  C   UNL     1       1.574   3.616  20.653  0.00  0.00    +0.000 C 
ATOM      3  N   UNL     1       1.569   4.849  20.031  0.00  0.00    +0.000 N 
ATOM      4  H   UNL     1       1.175   4.920  19.106  0.00  0.00    +0.000 HD
ENDROOT
BRANCH   2   5
ATOM      5  C   UNL     1       1.157   2.488  19.735  0.00  0.00    +0.000 C 
BRANCH   5   6
ATOM      6  C   UNL     1       2.376   1.755  19.184  0.00  0.00    +0.000 C 
BRANCH   6   7
ATOM      7  N   UNL     1       3.460   2.666  18.816  0.00  0.00    +0.000 N 
ATOM      8  C   UNL     1       4.571   2.722  19.641  0.00  0.00    +0.000 A 
ATOM      9  O   UNL     1       4.663   2.098  20.697  0.00  0.00    +0.000 OA
ATOM     10  N   UNL     1       5.597   3.526  19.249  0.00  0.00    +0.000 N 
ATOM     11  C   UNL     1       5.585   4.285  18.086  0.00  0.00    +0.000 A 
ATOM     12  C   UNL     1       6.715   5.020  17.722  0.00  0.00    +0.000 A 
ATOM     13  C   UNL     1       6.699   5.769  16.542  0.00  0.00    +0.000 A 
ATOM     14  C   UNL     1       5.558   5.795  15.743  0.00  0.00    +0.000 A 
ATOM     15  C   UNL     1       4.423   5.068  16.116  0.00  0.00    +0.000 A 
ATOM     16  C   UNL     1       4.446   4.303  17.288  0.00  0.00    +0.000 A 
ATOM     17  C   UNL     1       3.284   3.493  17.704  0.00  0.00    +0.000 A 
ATOM     18  O   UNL     1       2.229   3.579  17.078  0.00  0.00    +0.000 OA
ATOM     19  H   UNL     1       6.408   3.519  19.856  0.00  0.00    +0.000 HD
ENDBRANCH   6   7
ENDBRANCH   5   6
ENDBRANCH   2   5
BRANCH   3  20
ATOM     20  C   UNL     1       1.824   6.097  20.733  0.00  0.00    +0.000 C 
BRANCH  20  21
ATOM     21  C   UNL     1       1.873   7.336  19.853  0.00  0.00    +0.000 A 
ATOM     22  C   UNL     1       2.604   7.270  18.640  0.00  0.00    +0.000 A 
ATOM     23  C   UNL     1       2.655   8.323  17.727  0.00  0.00    +0.000 A 
ATOM     24  C   UNL     1       1.979   9.495  18.005  0.00  0.00    +0.000 A 
ATOM     25  C   UNL     1       1.252   9.597  19.188  0.00  0.00    +0.000 A 
ATOM     26  C   UNL     1       1.188   8.540  20.123  0.00  0.00    +0.000 A 
BRANCH  26  27
ATOM     27  O   UNL     1       0.274   8.810  21.098  0.00  0.00    +0.000 OA
BRANCH  27  28
ATOM     28  C   UNL     1       0.577   9.449  22.320  0.00  0.00    +0.000 C 
ATOM     29  F   UNL     1      -0.155   9.029  23.365  0.00  0.00    +0.000 F 
ATOM     30  F   UNL     1       1.879   9.243  22.625  0.00  0.00    +0.000 F 
ATOM     31  F   UNL     1       0.393  10.779  22.163  0.00  0.00    +0.000 F 
ENDBRANCH  27  28
ENDBRANCH  26  27
ENDBRANCH  20  21
ENDBRANCH   3  20
TORSDOF 7
ENDMDL
MODEL 2
REMARK VINA RESULT:      -8.7      1.001      1.989
REMARK  Name = 
REMARK  7 active torsions:
REMARK  status: ('A' for Active; 'I' for Inactive)
REMARK    1  A    between atoms: C_2  and  C_3
REMARK    2  A    between atoms: C_3  and  C_4
REMARK    3  A    between atoms: C_4  and  N_5
REMARK    4  A    between atoms: N_17  and  C_18
REMARK    5  A    between atoms: C_18  and  C_19
REMARK    6  A    between atoms: C_24  and  O_25
REMARK    7  A    between atoms: O_25  and  C_26
REMARK                            x       y       z     vdW  Elec       q    Type
REMARK                         _______ _______ _______ _____ _____    ______ ____
ROOT
ATOM      1  O   UNL     1       2.293   3.633  21.995  0.00  0.00    +0.000 OA
ATOM      2  C   UNL     1       1.857   3.758  20.857  0.00  0.00    +0.000 C 
ATOM      3  N   UNL     1       1.695   4.982  20.239  0.00  0.00    +0.000 N 
ATOM      4  H   UNL     1       1.220   5.014  19.351  0.00  0.00    +0.000 HD
ENDROOT
BRANCH   2   5
ATOM      5  C   UNL     1       1.463   2.593  19.976  0.00  0.00    +0.000 C 
BRANCH   5   6
ATOM      6  C   UNL     1       2.680   2.013  19.263  0.00  0.00    +0.000 C 
BRANCH   6   7
ATOM      7  N   UNL     1       3.480   3.040  18.594  0.00  0.00    +0.000 N 
ATOM      8  C   UNL     1       3.021   3.539  17.387  0.00  0.00    +0.000 A 
ATOM      9  O   UNL     1       2.015   3.118  16.818  0.00  0.00    +0.000 OA
ATOM     10  N   UNL     1       3.744   4.539  16.812  0.00  0.00    +0.000 N 
ATOM     11  C   UNL     1       4.902   5.073  17.362  0.00  0.00    +0.000 A 
ATOM     12  C   UNL     1       5.535   6.152  16.742  0.00  0.00    +0.000 A 
ATOM     13  C   UNL     1       6.691   6.692  17.312  0.00  0.00    +0.000 A 
ATOM     14  C   UNL     1       7.218   6.146  18.480  0.00  0.00    +0.000 A 
ATOM     15  C   UNL     1       6.590   5.057  19.092  0.00  0.00    +0.000 A 
ATOM     16  C   UNL     1       5.421   4.529  18.532  0.00  0.00    +0.000 A 
ATOM     17  C   UNL     1       4.705   3.402  19.162  0.00  0.00    +0.000 A 
ATOM     18  O   UNL     1       5.201   2.833  20.132  0.00  0.00    +0.000 OA
ATOM     19  H   UNL     1       3.363   4.905  15.948  0.00  0.00    +0.000 HD
ENDBRANCH   6   7
ENDBRANCH   5   6
ENDBRANCH   2   5
BRANCH   3  20
ATOM     20  C   UNL     1       1.900   6.251  20.919  0.00  0.00    +0.000 C 
BRANCH  20  21
ATOM     21  C   UNL     1       1.889   7.476  20.018  0.00  0.00    +0.000 A 
ATOM     22  C   UNL     1       2.167   7.298  18.639  0.00  0.00    +0.000 A 
ATOM     23  C   UNL     1       2.113   8.341  17.715  0.00  0.00    +0.000 A 
ATOM     24  C   UNL     1       1.788   9.614  18.144  0.00  0.00    +0.000 A 
ATOM     25  C   UNL     1       1.511   9.826  19.492  0.00  0.00    +0.000 A 
ATOM     26  C   UNL     1       1.558   8.781  20.443  0.00  0.00    +0.000 A 
BRANCH  26  27
ATOM     27  O   UNL     1       1.071   9.198  21.645  0.00  0.00    +0.000 OA
BRANCH  27  28
ATOM     28  C   UNL     1      -0.287   9.123  22.024  0.00  0.00    +0.000 C 
ATOM     29  F   UNL     1      -0.904   7.986  21.663  0.00  0.00    +0.000 F 
ATOM     30  F   UNL     1      -0.385   9.230  23.370  0.00  0.00    +0.000 F 
ATOM     31  F   UNL     1      -0.942  10.170  21.475  0.00  0.00    +0.000 F 
ENDBRANCH  27  28
ENDBRANCH  26  27
ENDBRANCH  20  21
ENDBRANCH   3  20
TORSDOF 7
ENDMDL
MODEL 3
REMARK VINA RESULT:      -8.3      3.354      7.302
REMARK  Name = 
REMARK  7 active torsions:
REMARK  status: ('A' for Active; 'I' for Inactive)
REMARK    1  A    between atoms: C_2  and  C_3
REMARK    2  A    between atoms: C_3  and  C_4
REMARK    3  A    between atoms: C_4  and  N_5
REMARK    4  A    between atoms: N_17  and  C_18
REMARK    5  A    between atoms: C_18  and  C_19
REMARK    6  A    between atoms: C_24  and  O_25
REMARK    7  A    between atoms: O_25  and  C_26
REMARK                            x       y       z     vdW  Elec       q    Type
REMARK                         _______ _______ _______ _____ _____    ______ ____
ROOT
ATOM      1  O   UNL     1       1.828   3.710  18.359  0.00  0.00    +0.000 OA
ATOM      2  C   UNL     1       2.414   4.635  18.910  0.00  0.00    +0.000 C 
ATOM      3  N   UNL     1       3.790   4.750  18.933  0.00  0.00    +0.000 N 
ATOM      4  H   UNL     1       4.203   5.469  19.505  0.00  0.00    +0.000 HD
ENDROOT
BRANCH   2   5
ATOM      5  C   UNL     1       1.712   5.776  19.611  0.00  0.00    +0.000 C 
BRANCH   5   6
ATOM      6  C   UNL     1       2.590   7.023  19.637  0.00  0.00    +0.000 C 
BRANCH   6   7
ATOM      7  N   UNL     1       1.826   8.251  19.414  0.00  0.00    +0.000 N 
ATOM      8  C   UNL     1       1.848   8.808  18.146  0.00  0.00    +0.000 A 
ATOM      9  O   UNL     1       2.526   8.363  17.221  0.00  0.00    +0.000 OA
ATOM     10  N   UNL     1       1.081   9.913  17.940  0.00  0.00    +0.000 N 
ATOM     11  C   UNL     1       0.294  10.504  18.920  0.00  0.00    +0.000 A 
ATOM     12  C   UNL     1      -0.523  11.590  18.597  0.00  0.00    +0.000 A 
ATOM     13  C   UNL     1      -1.323  12.168  19.587  0.00  0.00    +0.000 A 
ATOM     14  C   UNL     1      -1.292  11.676  20.890  0.00  0.00    +0.000 A 
ATOM     15  C   UNL     1      -0.463  10.596  21.213  0.00  0.00    +0.000 A 
ATOM     16  C   UNL     1       0.323  10.006  20.218  0.00  0.00    +0.000 A 
ATOM     17  C   UNL     1       1.187   8.844  20.506  0.00  0.00    +0.000 A 
ATOM     18  O   UNL     1       1.315   8.455  21.665  0.00  0.00    +0.000 OA
ATOM     19  H   UNL     1       1.092  10.276  16.994  0.00  0.00    +0.000 HD
ENDBRANCH   6   7
ENDBRANCH   5   6
ENDBRANCH   2   5
BRANCH   3  20
ATOM     20  C   UNL     1       4.685   3.723  18.422  0.00  0.00    +0.000 C 
BRANCH  20  21
ATOM     21  C   UNL     1       5.467   4.108  17.176  0.00  0.00    +0.000 A 
ATOM     22  C   UNL     1       4.756   4.273  15.961  0.00  0.00    +0.000 A 
ATOM     23  C   UNL     1       5.364   4.693  14.779  0.00  0.00    +0.000 A 
ATOM     24  C   UNL     1       6.721   4.953  14.768  0.00  0.00    +0.000 A 
ATOM     25  C   UNL     1       7.451   4.801  15.943  0.00  0.00    +0.000 A 
ATOM     26  C   UNL     1       6.852   4.378  17.151  0.00  0.00    +0.000 A 
BRANCH  26  27
ATOM     27  O   UNL     1       7.728   4.484  18.189  0.00  0.00    +0.000 OA
BRANCH  27  28
ATOM     28  C   UNL     1       7.782   5.580  19.078  0.00  0.00    +0.000 C 
ATOM     29  F   UNL     1       6.643   5.806  19.753  0.00  0.00    +0.000 F 
ATOM     30  F   UNL     1       8.761   5.374  19.988  0.00  0.00    +0.000 F 
ATOM     31  F   UNL     1       8.099   6.687  18.371  0.00  0.00    +0.000 F 
ENDBRANCH  27  28
ENDBRANCH  26  27
ENDBRANCH  20  21
ENDBRANCH   3  20
TORSDOF 7
ENDMDL
MODEL 4
REMARK VINA RESULT:      -8.3      4.136      7.914
REMARK  Name = 
REMARK  7 active torsions:
REMARK  status: ('A' for Active; 'I' for Inactive)
REMARK    1  A    between atoms: C_2  and  C_3
REMARK    2  A    between atoms: C_3  and  C_4
REMARK    3  A    between atoms: C_4  and  N_5
REMARK    4  A    between atoms: N_17  and  C_18
REMARK    5  A    between atoms: C_18  and  C_19
REMARK    6  A    between atoms: C_24  and  O_25
REMARK    7  A    between atoms: O_25  and  C_26
REMARK                            x       y       z     vdW  Elec       q    Type
REMARK                         _______ _______ _______ _____ _____    ______ ____
ROOT
ATOM      1  O   UNL     1      -0.575   8.317  21.687  0.00  0.00    +0.000 OA
ATOM      2  C   UNL     1       0.514   8.825  21.450  0.00  0.00    +0.000 C 
ATOM      3  N   UNL     1       1.594   8.108  20.973  0.00  0.00    +0.000 N 
ATOM      4  H   UNL     1       2.489   8.568  20.916  0.00  0.00    +0.000 HD
ENDROOT
BRANCH   2   5
ATOM      5  C   UNL     1       0.811  10.297  21.624  0.00  0.00    +0.000 C 
BRANCH   5   6
ATOM      6  C   UNL     1       0.893  11.001  20.274  0.00  0.00    +0.000 C 
BRANCH   6   7
ATOM      7  N   UNL     1      -0.407  11.091  19.608  0.00  0.00    +0.000 N 
ATOM      8  C   UNL     1      -1.400  11.839  20.218  0.00  0.00    +0.000 A 
ATOM      9  O   UNL     1      -1.267  12.374  21.317  0.00  0.00    +0.000 OA
ATOM     10  N   UNL     1      -2.581  11.964  19.553  0.00  0.00    +0.000 N 
ATOM     11  C   UNL     1      -2.839  11.386  18.316  0.00  0.00    +0.000 A 
ATOM     12  C   UNL     1      -4.052  11.634  17.671  0.00  0.00    +0.000 A 
ATOM     13  C   UNL     1      -4.296  11.060  16.420  0.00  0.00    +0.000 A 
ATOM     14  C   UNL     1      -3.343  10.233  15.830  0.00  0.00    +0.000 A 
ATOM     15  C   UNL     1      -2.134   9.976  16.484  0.00  0.00    +0.000 A 
ATOM     16  C   UNL     1      -1.882  10.566  17.728  0.00  0.00    +0.000 A 
ATOM     17  C   UNL     1      -0.607  10.351  18.440  0.00  0.00    +0.000 A 
ATOM     18  O   UNL     1       0.208   9.545  17.995  0.00  0.00    +0.000 OA
ATOM     19  H   UNL     1      -3.274  12.545  20.009  0.00  0.00    +0.000 HD
ENDBRANCH   6   7
ENDBRANCH   5   6
ENDBRANCH   2   5
BRANCH   3  20
ATOM     20  C   UNL     1       1.590   6.661  20.829  0.00  0.00    +0.000 C 
BRANCH  20  21
ATOM     21  C   UNL     1       2.388   6.126  19.651  0.00  0.00    +0.000 A 
ATOM     22  C   UNL     1       2.841   7.047  18.672  0.00  0.00    +0.000 A 
ATOM     23  C   UNL     1       3.639   6.674  17.592  0.00  0.00    +0.000 A 
ATOM     24  C   UNL     1       4.006   5.350  17.444  0.00  0.00    +0.000 A 
ATOM     25  C   UNL     1       3.579   4.417  18.385  0.00  0.00    +0.000 A 
ATOM     26  C   UNL     1       2.771   4.777  19.487  0.00  0.00    +0.000 A 
BRANCH  26  27
ATOM     27  O   UNL     1       2.642   3.735  20.354  0.00  0.00    +0.000 OA
BRANCH  27  28
ATOM     28  C   UNL     1       1.469   2.962  20.505  0.00  0.00    +0.000 C 
ATOM     29  F   UNL     1       1.133   2.702  21.779  0.00  0.00    +0.000 F 
ATOM     30  F   UNL     1       0.428   3.610  19.932  0.00  0.00    +0.000 F 
ATOM     31  F   UNL     1       1.642   1.793  19.850  0.00  0.00    +0.000 F 
ENDBRANCH  27  28
ENDBRANCH  26  27
ENDBRANCH  20  21
ENDBRANCH   3  20
TORSDOF 7
ENDMDL
MODEL 5
REMARK VINA RESULT:      -8.3      1.116      2.126
REMARK  Name = 
REMARK  7 active torsions:
REMARK  status: ('A' for Active; 'I' for Inactive)
REMARK    1  A    between atoms: C_2  and  C_3
REMARK    2  A    between atoms: C_3  and  C_4
REMARK    3  A    between atoms: C_4  and  N_5
REMARK    4  A    between atoms: N_17  and  C_18
REMARK    5  A    between atoms: C_18  and  C_19
REMARK    6  A    between atoms: C_24  and  O_25
REMARK    7  A    between atoms: O_25  and  C_26
REMARK                            x       y       z     vdW  Elec       q    Type
REMARK                         _______ _______ _______ _____ _____    ______ ____
ROOT
ATOM      1  O   UNL     1       0.480   3.756  20.559  0.00  0.00    +0.000 OA
ATOM      2  C   UNL     1       1.673   3.960  20.747  0.00  0.00    +0.000 C 
ATOM      3  N   UNL     1       2.186   5.200  21.076  0.00  0.00    +0.000 N 
ATOM      4  H   UNL     1       3.186   5.316  21.097  0.00  0.00    +0.000 HD
ENDROOT
BRANCH   2   5
ATOM      5  C   UNL     1       2.732   2.883  20.668  0.00  0.00    +0.000 C 
BRANCH   5   6
ATOM      6  C   UNL     1       2.983   2.470  19.221  0.00  0.00    +0.000 C 
BRANCH   6   7
ATOM      7  N   UNL     1       3.831   3.424  18.504  0.00  0.00    +0.000 N 
ATOM      8  C   UNL     1       3.436   3.821  17.238  0.00  0.00    +0.000 A 
ATOM      9  O   UNL     1       2.451   3.364  16.661  0.00  0.00    +0.000 OA
ATOM     10  N   UNL     1       4.202   4.756  16.613  0.00  0.00    +0.000 N 
ATOM     11  C   UNL     1       5.343   5.322  17.169  0.00  0.00    +0.000 A 
ATOM     12  C   UNL     1       6.022   6.334  16.488  0.00  0.00    +0.000 A 
ATOM     13  C   UNL     1       7.160   6.907  17.063  0.00  0.00    +0.000 A 
ATOM     14  C   UNL     1       7.623   6.459  18.298  0.00  0.00    +0.000 A 
ATOM     15  C   UNL     1       6.948   5.436  18.972  0.00  0.00    +0.000 A 
ATOM     16  C   UNL     1       5.797   4.876  18.405  0.00  0.00    +0.000 A 
ATOM     17  C   UNL     1       5.034   3.818  19.096  0.00  0.00    +0.000 A 
ATOM     18  O   UNL     1       5.475   3.331  20.135  0.00  0.00    +0.000 OA
ATOM     19  H   UNL     1       3.868   5.050  15.703  0.00  0.00    +0.000 HD
ENDBRANCH   6   7
ENDBRANCH   5   6
ENDBRANCH   2   5
BRANCH   3  20
ATOM     20  C   UNL     1       1.383   6.412  21.104  0.00  0.00    +0.000 C 
BRANCH  20  21
ATOM     21  C   UNL     1       1.709   7.428  20.020  0.00  0.00    +0.000 A 
ATOM     22  C   UNL     1       2.557   7.027  18.957  0.00  0.00    +0.000 A 
ATOM     23  C   UNL     1       2.861   7.856  17.877  0.00  0.00    +0.000 A 
ATOM     24  C   UNL     1       2.333   9.132  17.830  0.00  0.00    +0.000 A 
ATOM     25  C   UNL     1       1.498   9.560  18.858  0.00  0.00    +0.000 A 
ATOM     26  C   UNL     1       1.177   8.734  19.959  0.00  0.00    +0.000 A 
BRANCH  26  27
ATOM     27  O   UNL     1       0.206   9.305  20.726  0.00  0.00    +0.000 OA
BRANCH  27  28
ATOM     28  C   UNL     1       0.345   9.597  22.101  0.00  0.00    +0.000 C 
ATOM     29  F   UNL     1       1.584   9.414  22.586  0.00  0.00    +0.000 F 
ATOM     30  F   UNL     1       0.006  10.888  22.324  0.00  0.00    +0.000 F 
ATOM     31  F   UNL     1      -0.515   8.816  22.792  0.00  0.00    +0.000 F 
ENDBRANCH  27  28
ENDBRANCH  26  27
ENDBRANCH  20  21
ENDBRANCH   3  20
TORSDOF 7
ENDMDL
MODEL 6
REMARK VINA RESULT:      -8.2      2.168      2.769
REMARK  Name = 
REMARK  7 active torsions:
REMARK  status: ('A' for Active; 'I' for Inactive)
REMARK    1  A    between atoms: C_2  and  C_3
REMARK    2  A    between atoms: C_3  and  C_4
REMARK    3  A    between atoms: C_4  and  N_5
REMARK    4  A    between atoms: N_17  and  C_18
REMARK    5  A    between atoms: C_18  and  C_19
REMARK    6  A    between atoms: C_24  and  O_25
REMARK    7  A    between atoms: O_25  and  C_26
REMARK                            x       y       z     vdW  Elec       q    Type
REMARK                         _______ _______ _______ _____ _____    ______ ____
ROOT
ATOM      1  O   UNL     1       1.282   3.189  21.650  0.00  0.00    +0.000 OA
ATOM      2  C   UNL     1       1.205   3.659  20.522  0.00  0.00    +0.000 C 
ATOM      3  N   UNL     1       1.368   5.004  20.250  0.00  0.00    +0.000 N 
ATOM      4  H   UNL     1       1.172   5.334  19.318  0.00  0.00    +0.000 HD
ENDROOT
BRANCH   2   5
ATOM      5  C   UNL     1       0.947   2.832  19.282  0.00  0.00    +0.000 C 
BRANCH   5   6
ATOM      6  C   UNL     1       2.144   1.944  18.960  0.00  0.00    +0.000 C 
BRANCH   6   7
ATOM      7  N   UNL     1       3.327   2.714  18.577  0.00  0.00    +0.000 N 
ATOM      8  C   UNL     1       4.368   2.802  19.485  0.00  0.00    +0.000 A 
ATOM      9  O   UNL     1       4.322   2.325  20.618  0.00  0.00    +0.000 OA
ATOM     10  N   UNL     1       5.487   3.469  19.087  0.00  0.00    +0.000 N 
ATOM     11  C   UNL     1       5.634   4.059  17.838  0.00  0.00    +0.000 A 
ATOM     12  C   UNL     1       6.848   4.653  17.487  0.00  0.00    +0.000 A 
ATOM     13  C   UNL     1       6.990   5.231  16.222  0.00  0.00    +0.000 A 
ATOM     14  C   UNL     1       5.924   5.229  15.326  0.00  0.00    +0.000 A 
ATOM     15  C   UNL     1       4.705   4.644  15.685  0.00  0.00    +0.000 A 
ATOM     16  C   UNL     1       4.569   4.049  16.945  0.00  0.00    +0.000 A 
ATOM     17  C   UNL     1       3.313   3.391  17.354  0.00  0.00    +0.000 A 
ATOM     18  O   UNL     1       2.323   3.465  16.628  0.00  0.00    +0.000 OA
ATOM     19  H   UNL     1       6.243   3.486  19.762  0.00  0.00    +0.000 HD
ENDBRANCH   6   7
ENDBRANCH   5   6
ENDBRANCH   2   5
BRANCH   3  20
ATOM     20  C   UNL     1       1.516   6.014  21.286  0.00  0.00    +0.000 C 
BRANCH  20  21
ATOM     21  C   UNL     1       1.080   7.415  20.889  0.00  0.00    +0.000 A 
ATOM     22  C   UNL     1       0.045   8.034  21.635  0.00  0.00    +0.000 A 
ATOM     23  C   UNL     1      -0.381   9.340  21.400  0.00  0.00    +0.000 A 
ATOM     24  C   UNL     1       0.211  10.078  20.393  0.00  0.00    +0.000 A 
ATOM     25  C   UNL     1       1.230   9.502  19.638  0.00  0.00    +0.000 A 
ATOM     26  C   UNL     1       1.676   8.180  19.863  0.00  0.00    +0.000 A 
BRANCH  26  27
ATOM     27  O   UNL     1       2.794   7.915  19.130  0.00  0.00    +0.000 OA
BRANCH  27  28
ATOM     28  C   UNL     1       2.784   7.541  17.768  0.00  0.00    +0.000 C 
ATOM     29  F   UNL     1       2.039   6.458  17.493  0.00  0.00    +0.000 F 
ATOM     30  F   UNL     1       2.305   8.565  17.024  0.00  0.00    +0.000 F 
ATOM     31  F   UNL     1       4.058   7.306  17.381  0.00  0.00    +0.000 F 
ENDBRANCH  27  28
ENDBRANCH  26  27
ENDBRANCH  20  21
ENDBRANCH   3  20
TORSDOF 7
ENDMDL
MODEL 7
REMARK VINA RESULT:      -8.0      4.241      8.962
REMARK  Name = 
REMARK  7 active torsions:
REMARK  status: ('A' for Active; 'I' for Inactive)
REMARK    1  A    between atoms: C_2  and  C_3
REMARK    2  A    between atoms: C_3  and  C_4
REMARK    3  A    between atoms: C_4  and  N_5
REMARK    4  A    between atoms: N_17  and  C_18
REMARK    5  A    between atoms: C_18  and  C_19
REMARK    6  A    between atoms: C_24  and  O_25
REMARK    7  A    between atoms: O_25  and  C_26
REMARK                            x       y       z     vdW  Elec       q    Type
REMARK                         _______ _______ _______ _____ _____    ______ ____
ROOT
ATOM      1  O   UNL     1       1.293   8.703  20.399  0.00  0.00    +0.000 OA
ATOM      2  C   UNL     1       1.461   8.907  19.203  0.00  0.00    +0.000 C 
ATOM      3  N   UNL     1       2.176   8.055  18.384  0.00  0.00    +0.000 N 
ATOM      4  H   UNL     1       2.373   8.348  17.440  0.00  0.00    +0.000 HD
ENDROOT
BRANCH   2   5
ATOM      5  C   UNL     1       0.892  10.098  18.466  0.00  0.00    +0.000 C 
BRANCH   5   6
ATOM      6  C   UNL     1       1.110  11.384  19.257  0.00  0.00    +0.000 C 
BRANCH   6   7
ATOM      7  N   UNL     1      -0.125  11.893  19.853  0.00  0.00    +0.000 N 
ATOM      8  C   UNL     1      -0.993  12.605  19.044  0.00  0.00    +0.000 A 
ATOM      9  O   UNL     1      -0.749  12.888  17.872  0.00  0.00    +0.000 OA
ATOM     10  N   UNL     1      -2.167  13.015  19.599  0.00  0.00    +0.000 N 
ATOM     11  C   UNL     1      -2.530  12.763  20.916  0.00  0.00    +0.000 A 
ATOM     12  C   UNL     1      -3.790  13.152  21.377  0.00  0.00    +0.000 A 
ATOM     13  C   UNL     1      -4.152  12.880  22.700  0.00  0.00    +0.000 A 
ATOM     14  C   UNL     1      -3.257  12.242  23.555  0.00  0.00    +0.000 A 
ATOM     15  C   UNL     1      -1.992  11.865  23.093  0.00  0.00    +0.000 A 
ATOM     16  C   UNL     1      -1.636  12.119  21.764  0.00  0.00    +0.000 A 
ATOM     17  C   UNL     1      -0.325  11.709  21.224  0.00  0.00    +0.000 A 
ATOM     18  O   UNL     1       0.523  11.240  21.980  0.00  0.00    +0.000 OA
ATOM     19  H   UNL     1      -2.794  13.503  18.971  0.00  0.00    +0.000 HD
ENDBRANCH   6   7
ENDBRANCH   5   6
ENDBRANCH   2   5
BRANCH   3  20
ATOM     20  C   UNL     1       2.910   6.902  18.880  0.00  0.00    +0.000 C 
BRANCH  20  21
ATOM     21  C   UNL     1       3.655   6.106  17.820  0.00  0.00    +0.000 A 
ATOM     22  C   UNL     1       4.586   6.789  16.998  0.00  0.00    +0.000 A 
ATOM     23  C   UNL     1       5.373   6.142  16.045  0.00  0.00    +0.000 A 
ATOM     24  C   UNL     1       5.245   4.778  15.872  0.00  0.00    +0.000 A 
ATOM     25  C   UNL     1       4.340   4.074  16.661  0.00  0.00    +0.000 A 
ATOM     26  C   UNL     1       3.536   4.712  17.632  0.00  0.00    +0.000 A 
BRANCH  26  27
ATOM     27  O   UNL     1       2.875   3.794  18.392  0.00  0.00    +0.000 OA
BRANCH  27  28
ATOM     28  C   UNL     1       1.473   3.617  18.390  0.00  0.00    +0.000 C 
ATOM     29  F   UNL     1       0.842   4.190  17.352  0.00  0.00    +0.000 F 
ATOM     30  F   UNL     1       1.187   2.295  18.363  0.00  0.00    +0.000 F 
ATOM     31  F   UNL     1       0.978   4.126  19.540  0.00  0.00    +0.000 F 
ENDBRANCH  27  28
ENDBRANCH  26  27
ENDBRANCH  20  21
ENDBRANCH   3  20
TORSDOF 7
ENDMDL
MODEL 8
REMARK VINA RESULT:      -8.0      3.927      6.221
REMARK  Name = 
REMARK  7 active torsions:
REMARK  status: ('A' for Active; 'I' for Inactive)
REMARK    1  A    between atoms: C_2  and  C_3
REMARK    2  A    between atoms: C_3  and  C_4
REMARK    3  A    between atoms: C_4  and  N_5
REMARK    4  A    between atoms: N_17  and  C_18
REMARK    5  A    between atoms: C_18  and  C_19
REMARK    6  A    between atoms: C_24  and  O_25
REMARK    7  A    between atoms: O_25  and  C_26
REMARK                            x       y       z     vdW  Elec       q    Type
REMARK                         _______ _______ _______ _____ _____    ______ ____
ROOT
ATOM      1  O   UNL     1       1.873  11.464  18.383  0.00  0.00    +0.000 OA
ATOM      2  C   UNL     1       1.101  10.513  18.425  0.00  0.00    +0.000 C 
ATOM      3  N   UNL     1      -0.123  10.561  19.062  0.00  0.00    +0.000 N 
ATOM      4  H   UNL     1      -0.649   9.707  19.158  0.00  0.00    +0.000 HD
ENDROOT
BRANCH   2   5
ATOM      5  C   UNL     1       1.377   9.178  17.771  0.00  0.00    +0.000 C 
BRANCH   5   6
ATOM      6  C   UNL     1       2.653   8.552  18.323  0.00  0.00    +0.000 C 
BRANCH   6   7
ATOM      7  N   UNL     1       2.404   7.286  19.014  0.00  0.00    +0.000 N 
ATOM      8  C   UNL     1       1.860   7.336  20.286  0.00  0.00    +0.000 A 
ATOM      9  O   UNL     1       1.640   8.385  20.889  0.00  0.00    +0.000 OA
ATOM     10  N   UNL     1       1.576   6.148  20.887  0.00  0.00    +0.000 N 
ATOM     11  C   UNL     1       1.803   4.909  20.301  0.00  0.00    +0.000 A 
ATOM     12  C   UNL     1       1.406   3.744  20.960  0.00  0.00    +0.000 A 
ATOM     13  C   UNL     1       1.625   2.503  20.355  0.00  0.00    +0.000 A 
ATOM     14  C   UNL     1       2.251   2.428  19.113  0.00  0.00    +0.000 A 
ATOM     15  C   UNL     1       2.659   3.597  18.461  0.00  0.00    +0.000 A 
ATOM     16  C   UNL     1       2.422   4.840  19.058  0.00  0.00    +0.000 A 
ATOM     17  C   UNL     1       2.805   6.100  18.392  0.00  0.00    +0.000 A 
ATOM     18  O   UNL     1       3.452   6.063  17.347  0.00  0.00    +0.000 OA
ATOM     19  H   UNL     1       1.148   6.219  21.803  0.00  0.00    +0.000 HD
ENDBRANCH   6   7
ENDBRANCH   5   6
ENDBRANCH   2   5
BRANCH   3  20
ATOM     20  C   UNL     1      -0.565  11.697  19.855  0.00  0.00    +0.000 C 
BRANCH  20  21
ATOM     21  C   UNL     1      -2.064  11.952  19.840  0.00  0.00    +0.000 A 
ATOM     22  C   UNL     1      -2.655  12.550  20.982  0.00  0.00    +0.000 A 
ATOM     23  C   UNL     1      -4.006  12.891  21.045  0.00  0.00    +0.000 A 
ATOM     24  C   UNL     1      -4.823  12.631  19.961  0.00  0.00    +0.000 A 
ATOM     25  C   UNL     1      -4.277  12.044  18.823  0.00  0.00    +0.000 A 
ATOM     26  C   UNL     1      -2.911  11.693  18.741  0.00  0.00    +0.000 A 
BRANCH  26  27
ATOM     27  O   UNL     1      -2.585  11.310  17.475  0.00  0.00    +0.000 OA
BRANCH  27  28
ATOM     28  C   UNL     1      -2.812  10.018  16.949  0.00  0.00    +0.000 C 
ATOM     29  F   UNL     1      -3.709   9.974  15.950  0.00  0.00    +0.000 F 
ATOM     30  F   UNL     1      -1.649   9.515  16.475  0.00  0.00    +0.000 F 
ATOM     31  F   UNL     1      -3.233   9.218  17.952  0.00  0.00    +0.000 F 
ENDBRANCH  27  28
ENDBRANCH  26  27
ENDBRANCH  20  21
ENDBRANCH   3  20
TORSDOF 7
ENDMDL
MODEL 9
REMARK VINA RESULT:      -7.9      4.697      9.384
REMARK  Name = 
REMARK  7 active torsions:
REMARK  status: ('A' for Active; 'I' for Inactive)
REMARK    1  A    between atoms: C_2  and  C_3
REMARK    2  A    between atoms: C_3  and  C_4
REMARK    3  A    between atoms: C_4  and  N_5
REMARK    4  A    between atoms: N_17  and  C_18
REMARK    5  A    between atoms: C_18  and  C_19
REMARK    6  A    between atoms: C_24  and  O_25
REMARK    7  A    between atoms: O_25  and  C_26
REMARK                            x       y       z     vdW  Elec       q    Type
REMARK                         _______ _______ _______ _____ _____    ______ ____
ROOT
ATOM      1  O   UNL     1       2.424   9.601  17.219  0.00  0.00    +0.000 OA
ATOM      2  C   UNL     1       1.894   9.004  18.147  0.00  0.00    +0.000 C 
ATOM      3  N   UNL     1       2.330   7.775  18.603  0.00  0.00    +0.000 N 
ATOM      4  H   UNL     1       1.773   7.291  19.288  0.00  0.00    +0.000 HD
ENDROOT
BRANCH   2   5
ATOM      5  C   UNL     1       0.714   9.540  18.927  0.00  0.00    +0.000 C 
BRANCH   5   6
ATOM      6  C   UNL     1       0.849  11.042  19.156  0.00  0.00    +0.000 C 
BRANCH   6   7
ATOM      7  N   UNL     1      -0.338  11.622  19.785  0.00  0.00    +0.000 N 
ATOM      8  C   UNL     1      -1.240  12.293  18.978  0.00  0.00    +0.000 A 
ATOM      9  O   UNL     1      -1.063  12.485  17.776  0.00  0.00    +0.000 OA
ATOM     10  N   UNL     1      -2.369  12.770  19.570  0.00  0.00    +0.000 N 
ATOM     11  C   UNL     1      -2.657  12.624  20.921  0.00  0.00    +0.000 A 
ATOM     12  C   UNL     1      -3.878  13.075  21.426  0.00  0.00    +0.000 A 
ATOM     13  C   UNL     1      -4.164  12.910  22.784  0.00  0.00    +0.000 A 
ATOM     14  C   UNL     1      -3.231  12.314  23.630  0.00  0.00    +0.000 A 
ATOM     15  C   UNL     1      -2.004  11.874  23.124  0.00  0.00    +0.000 A 
ATOM     16  C   UNL     1      -1.726  12.023  21.760  0.00  0.00    +0.000 A 
ATOM     17  C   UNL     1      -0.458  11.543  21.176  0.00  0.00    +0.000 A 
ATOM     18  O   UNL     1       0.425  11.111  21.913  0.00  0.00    +0.000 OA
ATOM     19  H   UNL     1      -3.025  13.226  18.946  0.00  0.00    +0.000 HD
ENDBRANCH   6   7
ENDBRANCH   5   6
ENDBRANCH   2   5
BRANCH   3  20
ATOM     20  C   UNL     1       3.376   7.007  17.946  0.00  0.00    +0.000 C 
BRANCH  20  21
ATOM     21  C   UNL     1       3.138   5.506  17.891  0.00  0.00    +0.000 A 
ATOM     22  C   UNL     1       1.809   5.031  18.021  0.00  0.00    +0.000 A 
ATOM     23  C   UNL     1       1.472   3.683  17.915  0.00  0.00    +0.000 A 
ATOM     24  C   UNL     1       2.466   2.750  17.685  0.00  0.00    +0.000 A 
ATOM     25  C   UNL     1       3.783   3.180  17.553  0.00  0.00    +0.000 A 
ATOM     26  C   UNL     1       4.143   4.543  17.656  0.00  0.00    +0.000 A 
BRANCH  26  27
ATOM     27  O   UNL     1       5.448   4.727  17.310  0.00  0.00    +0.000 OA
BRANCH  27  28
ATOM     28  C   UNL     1       5.891   5.024  16.002  0.00  0.00    +0.000 C 
ATOM     29  F   UNL     1       5.104   4.545  15.025  0.00  0.00    +0.000 F 
ATOM     30  F   UNL     1       5.964   6.366  15.846  0.00  0.00    +0.000 F 
ATOM     31  F   UNL     1       7.136   4.520  15.849  0.00  0.00    +0.000 F 
ENDBRANCH  27  28
ENDBRANCH  26  27
ENDBRANCH  20  21
ENDBRANCH   3  20
TORSDOF 7
ENDMDL
