MODEL 1
REMARK VINA RESULT:      -8.3      0.000      0.000
REMARK  Name = 
REMARK  11 active torsions:
REMARK  status: ('A' for Active; 'I' for Inactive)
REMARK    1  A    between atoms: C_1  and  O_2
REMARK    2  A    between atoms: O_2  and  C_3
REMARK    3  A    between atoms: C_5  and  C_6
REMARK    4  A    between atoms: C_14  and  O_15
REMARK    5  A    between atoms: O_15  and  C_16
REMARK    6  A    between atoms: C_20  and  C_21
REMARK    7  A    between atoms: C_21  and  C_22
REMARK    8  A    between atoms: C_21  and  C_25
REMARK    9  A    between atoms: C_25  and  C_26
REMARK   10  A    between atoms: C_25  and  C_27
REMARK   11  A    between atoms: C_27  and  O_29
REMARK                            x       y       z     vdW  Elec       q    Type
REMARK                         _______ _______ _______ _____ _____    ______ ____
ROOT
ATOM      1  C   UNL     1      -3.324  11.349  18.562  0.00  0.00    +0.000 A 
ATOM      2  C   UNL     1      -2.704  10.472  17.633  0.00  0.00    +0.000 A 
ATOM      3  C   UNL     1      -1.356  10.130  17.724  0.00  0.00    +0.000 A 
ATOM      4  C   UNL     1      -0.617  10.669  18.757  0.00  0.00    +0.000 A 
ATOM      5  C   UNL     1      -1.205  11.517  19.699  0.00  0.00    +0.000 A 
ATOM      6  C   UNL     1      -2.542  11.853  19.622  0.00  0.00    +0.000 A 
ATOM      7  C   UNL     1      -0.194  11.961  20.709  0.00  0.00    +0.000 C 
ATOM      8  C   UNL     1       1.100  11.739  19.917  0.00  0.00    +0.000 C 
ATOM      9  C   UNL     1       0.851  10.507  19.014  0.00  0.00    +0.000 C 
ENDROOT
BRANCH   1  12
ATOM     10  C   UNL     1      -6.960  12.119  19.234  0.00  0.00    +0.000 A 
ATOM     11  C   UNL     1      -5.655  11.701  19.451  0.00  0.00    +0.000 A 
ATOM     12  C   UNL     1      -4.737  11.752  18.394  0.00  0.00    +0.000 A 
ATOM     13  C   UNL     1      -5.208  12.226  17.162  0.00  0.00    +0.000 A 
ATOM     14  C   UNL     1      -6.531  12.614  17.040  0.00  0.00    +0.000 A 
ATOM     15  N   UNL     1      -7.416  12.575  18.051  0.00  0.00    +0.000 NA
BRANCH  10  17
ATOM     16  C   UNL     1      -7.211  12.491  21.524  0.00  0.00    +0.000 C 
ATOM     17  O   UNL     1      -7.816  12.043  20.315  0.00  0.00    +0.000 OA
ENDBRANCH  10  17
ENDBRANCH   1  12
BRANCH   9  18
ATOM     18  O   UNL     1       1.080   9.273  19.691  0.00  0.00    +0.000 OA
BRANCH  18  19
ATOM     19  C   UNL     1       1.883   8.366  19.052  0.00  0.00    +0.000 A 
ATOM     20  C   UNL     1       2.542   8.813  17.913  0.00  0.00    +0.000 A 
ATOM     21  C   UNL     1       3.345   7.933  17.184  0.00  0.00    +0.000 A 
ATOM     22  C   UNL     1       3.477   6.596  17.586  0.00  0.00    +0.000 A 
ATOM     23  C   UNL     1       2.825   6.123  18.733  0.00  0.00    +0.000 A 
ATOM     24  C   UNL     1       2.057   7.042  19.456  0.00  0.00    +0.000 A 
BRANCH  23  25
ATOM     25  C   UNL     1       2.904   4.659  19.163  0.00  0.00    +0.000 C 
BRANCH  25  26
ATOM     26  C   UNL     1       1.572   3.967  19.410  0.00  0.00    +0.000 C 
ATOM     27  C   UNL     1       0.660   4.248  20.583  0.00  0.00    +0.000 C 
ATOM     28  C   UNL     1       1.316   2.902  20.453  0.00  0.00    +0.000 C 
ENDBRANCH  25  26
BRANCH  25  29
ATOM     29  C   UNL     1       3.886   3.804  18.300  0.00  0.00    +0.000 C 
ATOM     30  C   UNL     1       3.319   2.577  17.575  0.00  0.00    +0.000 C 
BRANCH  29  31
ATOM     31  C   UNL     1       5.037   3.326  19.172  0.00  0.00    +0.000 C 
ATOM     32  O   UNL     1       4.952   2.445  20.014  0.00  0.00    +0.000 OA
BRANCH  31  33
ATOM     33  O   UNL     1       6.194   3.985  18.949  0.00  0.00    +0.000 OA
ATOM     34  H   UNL     1       6.135   4.958  19.038  0.00  0.00    +0.000 HD
ENDBRANCH  31  33
ENDBRANCH  29  31
ENDBRANCH  25  29
ENDBRANCH  23  25
ENDBRANCH  18  19
ENDBRANCH   9  18
TORSDOF 9
ENDMDL
MODEL 2
REMARK VINA RESULT:      -8.1      3.527      4.284
REMARK  Name = 
REMARK  11 active torsions:
REMARK  status: ('A' for Active; 'I' for Inactive)
REMARK    1  A    between atoms: C_1  and  O_2
REMARK    2  A    between atoms: O_2  and  C_3
REMARK    3  A    between atoms: C_5  and  C_6
REMARK    4  A    between atoms: C_14  and  O_15
REMARK    5  A    between atoms: O_15  and  C_16
REMARK    6  A    between atoms: C_20  and  C_21
REMARK    7  A    between atoms: C_21  and  C_22
REMARK    8  A    between atoms: C_21  and  C_25
REMARK    9  A    between atoms: C_25  and  C_26
REMARK   10  A    between atoms: C_25  and  C_27
REMARK   11  A    between atoms: C_27  and  O_29
REMARK                            x       y       z     vdW  Elec       q    Type
REMARK                         _______ _______ _______ _____ _____    ______ ____
ROOT
ATOM      1  C   UNL     1      -0.498  11.904  21.783  0.00  0.00    +0.000 A 
ATOM      2  C   UNL     1      -0.683  10.553  22.179  0.00  0.00    +0.000 A 
ATOM      3  C   UNL     1      -0.211   9.486  21.418  0.00  0.00    +0.000 A 
ATOM      4  C   UNL     1       0.456   9.771  20.244  0.00  0.00    +0.000 A 
ATOM      5  C   UNL     1       0.673  11.090  19.838  0.00  0.00    +0.000 A 
ATOM      6  C   UNL     1       0.218  12.153  20.593  0.00  0.00    +0.000 A 
ATOM      7  C   UNL     1       1.417  11.125  18.540  0.00  0.00    +0.000 C 
ATOM      8  C   UNL     1       1.088   9.728  17.999  0.00  0.00    +0.000 C 
ATOM      9  C   UNL     1       0.984   8.798  19.233  0.00  0.00    +0.000 C 
ENDROOT
BRANCH   1  12
ATOM     10  C   UNL     1      -2.793  13.968  23.959  0.00  0.00    +0.000 A 
ATOM     11  C   UNL     1      -2.319  12.901  23.209  0.00  0.00    +0.000 A 
ATOM     12  C   UNL     1      -1.076  13.011  22.574  0.00  0.00    +0.000 A 
ATOM     13  C   UNL     1      -0.381  14.218  22.738  0.00  0.00    +0.000 A 
ATOM     14  C   UNL     1      -0.938  15.229  23.500  0.00  0.00    +0.000 A 
ATOM     15  N   UNL     1      -2.128  15.129  24.118  0.00  0.00    +0.000 NA
BRANCH  10  17
ATOM     16  C   UNL     1      -4.343  12.427  24.774  0.00  0.00    +0.000 C 
ATOM     17  O   UNL     1      -4.026  13.798  24.558  0.00  0.00    +0.000 OA
ENDBRANCH  10  17
ENDBRANCH   1  12
BRANCH   9  18
ATOM     18  O   UNL     1       2.253   8.310  19.663  0.00  0.00    +0.000 OA
BRANCH  18  19
ATOM     19  C   UNL     1       2.383   6.950  19.761  0.00  0.00    +0.000 A 
ATOM     20  C   UNL     1       1.612   6.320  20.730  0.00  0.00    +0.000 A 
ATOM     21  C   UNL     1       1.722   4.941  20.919  0.00  0.00    +0.000 A 
ATOM     22  C   UNL     1       2.618   4.190  20.145  0.00  0.00    +0.000 A 
ATOM     23  C   UNL     1       3.403   4.802  19.158  0.00  0.00    +0.000 A 
ATOM     24  C   UNL     1       3.241   6.179  18.976  0.00  0.00    +0.000 A 
BRANCH  23  25
ATOM     25  C   UNL     1       4.429   4.020  18.340  0.00  0.00    +0.000 C 
BRANCH  25  26
ATOM     26  C   UNL     1       3.883   2.847  17.539  0.00  0.00    +0.000 C 
ATOM     27  C   UNL     1       2.461   2.337  17.618  0.00  0.00    +0.000 C 
ATOM     28  C   UNL     1       3.594   1.467  18.088  0.00  0.00    +0.000 C 
ENDBRANCH  25  26
BRANCH  25  29
ATOM     29  C   UNL     1       5.396   4.925  17.513  0.00  0.00    +0.000 C 
ATOM     30  C   UNL     1       5.415   4.751  15.990  0.00  0.00    +0.000 C 
BRANCH  29  31
ATOM     31  C   UNL     1       6.820   4.728  18.012  0.00  0.00    +0.000 C 
ATOM     32  O   UNL     1       7.200   4.979  19.146  0.00  0.00    +0.000 OA
BRANCH  31  33
ATOM     33  O   UNL     1       7.662   4.257  17.069  0.00  0.00    +0.000 OA
ATOM     34  H   UNL     1       7.456   4.543  16.155  0.00  0.00    +0.000 HD
ENDBRANCH  31  33
ENDBRANCH  29  31
ENDBRANCH  25  29
ENDBRANCH  23  25
ENDBRANCH  18  19
ENDBRANCH   9  18
TORSDOF 9
ENDMDL
MODEL 3
REMARK VINA RESULT:      -8.0      4.056     10.670
REMARK  Name = 
REMARK  11 active torsions:
REMARK  status: ('A' for Active; 'I' for Inactive)
REMARK    1  A    between atoms: C_1  and  O_2
REMARK    2  A    between atoms: O_2  and  C_3
REMARK    3  A    between atoms: C_5  and  C_6
REMARK    4  A    between atoms: C_14  and  O_15
REMARK    5  A    between atoms: O_15  and  C_16
REMARK    6  A    between atoms: C_20  and  C_21
REMARK    7  A    between atoms: C_21  and  C_22
REMARK    8  A    between atoms: C_21  and  C_25
REMARK    9  A    between atoms: C_25  and  C_26
REMARK   10  A    between atoms: C_25  and  C_27
REMARK   11  A    between atoms: C_27  and  O_29
REMARK                            x       y       z     vdW  Elec       q    Type
REMARK                         _______ _______ _______ _____ _____    ______ ____
ROOT
ATOM      1  C   UNL     1       2.508   7.470  18.537  0.00  0.00    +0.000 A 
ATOM      2  C   UNL     1       2.061   8.634  17.860  0.00  0.00    +0.000 A 
ATOM      3  C   UNL     1       1.299   9.614  18.493  0.00  0.00    +0.000 A 
ATOM      4  C   UNL     1       0.979   9.429  19.823  0.00  0.00    +0.000 A 
ATOM      5  C   UNL     1       1.422   8.304  20.522  0.00  0.00    +0.000 A 
ATOM      6  C   UNL     1       2.187   7.334  19.904  0.00  0.00    +0.000 A 
ATOM      7  C   UNL     1       0.942   8.345  21.939  0.00  0.00    +0.000 C 
ATOM      8  C   UNL     1      -0.258   9.289  21.795  0.00  0.00    +0.000 C 
ATOM      9  C   UNL     1       0.117  10.301  20.685  0.00  0.00    +0.000 C 
ENDROOT
BRANCH   1  12
ATOM     10  C   UNL     1       5.025   5.659  16.381  0.00  0.00    +0.000 A 
ATOM     11  C   UNL     1       4.356   6.700  17.008  0.00  0.00    +0.000 A 
ATOM     12  C   UNL     1       3.250   6.413  17.818  0.00  0.00    +0.000 A 
ATOM     13  C   UNL     1       2.882   5.065  17.940  0.00  0.00    +0.000 A 
ATOM     14  C   UNL     1       3.608   4.096  17.270  0.00  0.00    +0.000 A 
ATOM     15  N   UNL     1       4.674   4.363  16.496  0.00  0.00    +0.000 NA
BRANCH  10  17
ATOM     16  C   UNL     1       7.051   4.952  15.467  0.00  0.00    +0.000 C 
ATOM     17  O   UNL     1       6.105   6.009  15.595  0.00  0.00    +0.000 OA
ENDBRANCH  10  17
ENDBRANCH   1  12
BRANCH   9  18
ATOM     18  O   UNL     1       0.891  11.394  21.176  0.00  0.00    +0.000 OA
BRANCH  18  19
ATOM     19  C   UNL     1       0.237  12.589  21.319  0.00  0.00    +0.000 A 
ATOM     20  C   UNL     1       0.652  13.628  20.495  0.00  0.00    +0.000 A 
ATOM     21  C   UNL     1       0.061  14.888  20.613  0.00  0.00    +0.000 A 
ATOM     22  C   UNL     1      -0.938  15.115  21.570  0.00  0.00    +0.000 A 
ATOM     23  C   UNL     1      -1.376  14.081  22.411  0.00  0.00    +0.000 A 
ATOM     24  C   UNL     1      -0.785  12.826  22.240  0.00  0.00    +0.000 A 
BRANCH  23  25
ATOM     25  C   UNL     1      -2.421  14.313  23.500  0.00  0.00    +0.000 C 
BRANCH  25  26
ATOM     26  C   UNL     1      -2.157  15.485  24.434  0.00  0.00    +0.000 C 
ATOM     27  C   UNL     1      -0.814  15.812  25.047  0.00  0.00    +0.000 C 
ATOM     28  C   UNL     1      -1.955  15.389  25.930  0.00  0.00    +0.000 C 
ENDBRANCH  25  26
BRANCH  25  29
ATOM     29  C   UNL     1      -3.892  14.268  22.979  0.00  0.00    +0.000 C 
ATOM     30  C   UNL     1      -4.939  15.114  23.713  0.00  0.00    +0.000 C 
BRANCH  29  31
ATOM     31  C   UNL     1      -4.385  12.828  22.986  0.00  0.00    +0.000 C 
ATOM     32  O   UNL     1      -4.983  12.293  22.064  0.00  0.00    +0.000 OA
BRANCH  31  33
ATOM     33  O   UNL     1      -4.117  12.171  24.134  0.00  0.00    +0.000 OA
ATOM     34  H   UNL     1      -3.818  11.245  24.016  0.00  0.00    +0.000 HD
ENDBRANCH  31  33
ENDBRANCH  29  31
ENDBRANCH  25  29
ENDBRANCH  23  25
ENDBRANCH  18  19
ENDBRANCH   9  18
TORSDOF 9
ENDMDL
MODEL 4
REMARK VINA RESULT:      -8.0      4.486     10.246
REMARK  Name = 
REMARK  11 active torsions:
REMARK  status: ('A' for Active; 'I' for Inactive)
REMARK    1  A    between atoms: C_1  and  O_2
REMARK    2  A    between atoms: O_2  and  C_3
REMARK    3  A    between atoms: C_5  and  C_6
REMARK    4  A    between atoms: C_14  and  O_15
REMARK    5  A    between atoms: O_15  and  C_16
REMARK    6  A    between atoms: C_20  and  C_21
REMARK    7  A    between atoms: C_21  and  C_22
REMARK    8  A    between atoms: C_21  and  C_25
REMARK    9  A    between atoms: C_25  and  C_26
REMARK   10  A    between atoms: C_25  and  C_27
REMARK   11  A    between atoms: C_27  and  O_29
REMARK                            x       y       z     vdW  Elec       q    Type
REMARK                         _______ _______ _______ _____ _____    ______ ____
ROOT
ATOM      1  C   UNL     1       2.515   7.158  18.493  0.00  0.00    +0.000 A 
ATOM      2  C   UNL     1       2.171   8.266  17.674  0.00  0.00    +0.000 A 
ATOM      3  C   UNL     1       1.482   9.370  18.173  0.00  0.00    +0.000 A 
ATOM      4  C   UNL     1       1.134   9.369  19.508  0.00  0.00    +0.000 A 
ATOM      5  C   UNL     1       1.478   8.304  20.344  0.00  0.00    +0.000 A 
ATOM      6  C   UNL     1       2.169   7.211  19.859  0.00  0.00    +0.000 A 
ATOM      7  C   UNL     1       0.987   8.549  21.736  0.00  0.00    +0.000 C 
ATOM      8  C   UNL     1      -0.132   9.560  21.457  0.00  0.00    +0.000 C 
ATOM      9  C   UNL     1       0.335  10.401  20.245  0.00  0.00    +0.000 C 
ENDROOT
BRANCH   1  12
ATOM     10  C   UNL     1       3.302   3.612  17.461  0.00  0.00    +0.000 A 
ATOM     11  C   UNL     1       2.642   4.682  18.047  0.00  0.00    +0.000 A 
ATOM     12  C   UNL     1       3.179   5.969  17.918  0.00  0.00    +0.000 A 
ATOM     13  C   UNL     1       4.373   6.092  17.193  0.00  0.00    +0.000 A 
ATOM     14  C   UNL     1       4.962   4.964  16.650  0.00  0.00    +0.000 A 
ATOM     15  N   UNL     1       4.449   3.726  16.764  0.00  0.00    +0.000 NA
BRANCH  10  17
ATOM     16  C   UNL     1       1.523   2.423  18.391  0.00  0.00    +0.000 C 
ATOM     17  O   UNL     1       2.723   2.369  17.627  0.00  0.00    +0.000 OA
ENDBRANCH  10  17
ENDBRANCH   1  12
BRANCH   9  18
ATOM     18  O   UNL     1       1.187  11.482  20.620  0.00  0.00    +0.000 OA
BRANCH  18  19
ATOM     19  C   UNL     1       0.867  12.715  20.118  0.00  0.00    +0.000 A 
ATOM     20  C   UNL     1      -0.286  12.792  19.346  0.00  0.00    +0.000 A 
ATOM     21  C   UNL     1      -0.654  14.007  18.765  0.00  0.00    +0.000 A 
ATOM     22  C   UNL     1       0.143  15.148  18.944  0.00  0.00    +0.000 A 
ATOM     23  C   UNL     1       1.308  15.095  19.722  0.00  0.00    +0.000 A 
ATOM     24  C   UNL     1       1.625  13.870  20.315  0.00  0.00    +0.000 A 
BRANCH  23  25
ATOM     25  C   UNL     1       2.225  16.306  19.887  0.00  0.00    +0.000 C 
BRANCH  25  26
ATOM     26  C   UNL     1       2.338  16.864  21.298  0.00  0.00    +0.000 C 
ATOM     27  C   UNL     1       1.215  16.882  22.311  0.00  0.00    +0.000 C 
ATOM     28  C   UNL     1       1.756  18.177  21.773  0.00  0.00    +0.000 C 
ENDBRANCH  25  26
BRANCH  25  29
ATOM     29  C   UNL     1       3.608  16.148  19.180  0.00  0.00    +0.000 C 
ATOM     30  C   UNL     1       4.754  17.058  19.636  0.00  0.00    +0.000 C 
BRANCH  29  31
ATOM     31  C   UNL     1       3.434  16.350  17.682  0.00  0.00    +0.000 C 
ATOM     32  O   UNL     1       3.005  17.371  17.164  0.00  0.00    +0.000 OA
BRANCH  31  33
ATOM     33  O   UNL     1       3.785  15.275  16.947  0.00  0.00    +0.000 OA
ATOM     34  H   UNL     1       3.754  15.413  15.978  0.00  0.00    +0.000 HD
ENDBRANCH  31  33
ENDBRANCH  29  31
ENDBRANCH  25  29
ENDBRANCH  23  25
ENDBRANCH  18  19
ENDBRANCH   9  18
TORSDOF 9
ENDMDL
MODEL 5
REMARK VINA RESULT:      -8.0      4.554     10.365
REMARK  Name = 
REMARK  11 active torsions:
REMARK  status: ('A' for Active; 'I' for Inactive)
REMARK    1  A    between atoms: C_1  and  O_2
REMARK    2  A    between atoms: O_2  and  C_3
REMARK    3  A    between atoms: C_5  and  C_6
REMARK    4  A    between atoms: C_14  and  O_15
REMARK    5  A    between atoms: O_15  and  C_16
REMARK    6  A    between atoms: C_20  and  C_21
REMARK    7  A    between atoms: C_21  and  C_22
REMARK    8  A    between atoms: C_21  and  C_25
REMARK    9  A    between atoms: C_25  and  C_26
REMARK   10  A    between atoms: C_25  and  C_27
REMARK   11  A    between atoms: C_27  and  O_29
REMARK                            x       y       z     vdW  Elec       q    Type
REMARK                         _______ _______ _______ _____ _____    ______ ____
ROOT
ATOM      1  C   UNL     1       2.900   7.225  18.259  0.00  0.00    +0.000 A 
ATOM      2  C   UNL     1       2.504   8.386  17.544  0.00  0.00    +0.000 A 
ATOM      3  C   UNL     1       1.691   9.365  18.111  0.00  0.00    +0.000 A 
ATOM      4  C   UNL     1       1.267   9.183  19.411  0.00  0.00    +0.000 A 
ATOM      5  C   UNL     1       1.657   8.062  20.148  0.00  0.00    +0.000 A 
ATOM      6  C   UNL     1       2.472   7.093  19.596  0.00  0.00    +0.000 A 
ATOM      7  C   UNL     1       1.066   8.105  21.522  0.00  0.00    +0.000 C 
ATOM      8  C   UNL     1      -0.122   9.044  21.280  0.00  0.00    +0.000 C 
ATOM      9  C   UNL     1       0.336  10.054  20.199  0.00  0.00    +0.000 C 
ENDROOT
BRANCH   1  12
ATOM     10  C   UNL     1       5.494   5.430  16.184  0.00  0.00    +0.000 A 
ATOM     11  C   UNL     1       4.765   6.468  16.744  0.00  0.00    +0.000 A 
ATOM     12  C   UNL     1       3.701   6.169  17.605  0.00  0.00    +0.000 A 
ATOM     13  C   UNL     1       3.435   4.813  17.842  0.00  0.00    +0.000 A 
ATOM     14  C   UNL     1       4.214   3.847  17.231  0.00  0.00    +0.000 A 
ATOM     15  N   UNL     1       5.241   4.125  16.410  0.00  0.00    +0.000 NA
BRANCH  10  17
ATOM     16  C   UNL     1       6.798   4.802  14.353  0.00  0.00    +0.000 C 
ATOM     17  O   UNL     1       6.529   5.790  15.343  0.00  0.00    +0.000 OA
ENDBRANCH  10  17
ENDBRANCH   1  12
BRANCH   9  18
ATOM     18  O   UNL     1       1.064  11.152  20.747  0.00  0.00    +0.000 OA
BRANCH  18  19
ATOM     19  C   UNL     1       0.853  12.375  20.166  0.00  0.00    +0.000 A 
ATOM     20  C   UNL     1      -0.240  12.478  19.313  0.00  0.00    +0.000 A 
ATOM     21  C   UNL     1      -0.494  13.680  18.651  0.00  0.00    +0.000 A 
ATOM     22  C   UNL     1       0.357  14.781  18.830  0.00  0.00    +0.000 A 
ATOM     23  C   UNL     1       1.463  14.702  19.688  0.00  0.00    +0.000 A 
ATOM     24  C   UNL     1       1.665  13.492  20.359  0.00  0.00    +0.000 A 
BRANCH  23  25
ATOM     25  C   UNL     1       2.438  15.865  19.858  0.00  0.00    +0.000 C 
BRANCH  25  26
ATOM     26  C   UNL     1       2.363  16.605  21.185  0.00  0.00    +0.000 C 
ATOM     27  C   UNL     1       1.087  16.871  21.952  0.00  0.00    +0.000 C 
ATOM     28  C   UNL     1       1.865  18.021  21.375  0.00  0.00    +0.000 C 
ENDBRANCH  25  26
BRANCH  25  29
ATOM     29  C   UNL     1       3.901  15.525  19.431  0.00  0.00    +0.000 C 
ATOM     30  C   UNL     1       4.983  16.585  19.670  0.00  0.00    +0.000 C 
BRANCH  29  31
ATOM     31  C   UNL     1       3.925  15.177  17.950  0.00  0.00    +0.000 C 
ATOM     32  O   UNL     1       3.490  15.893  17.060  0.00  0.00    +0.000 OA
BRANCH  31  33
ATOM     33  O   UNL     1       4.467  13.969  17.687  0.00  0.00    +0.000 OA
ATOM     34  H   UNL     1       5.439  13.922  17.799  0.00  0.00    +0.000 HD
ENDBRANCH  31  33
ENDBRANCH  29  31
ENDBRANCH  25  29
ENDBRANCH  23  25
ENDBRANCH  18  19
ENDBRANCH   9  18
TORSDOF 9
ENDMDL
MODEL 6
REMARK VINA RESULT:      -7.9      3.113      4.332
REMARK  Name = 
REMARK  11 active torsions:
REMARK  status: ('A' for Active; 'I' for Inactive)
REMARK    1  A    between atoms: C_1  and  O_2
REMARK    2  A    between atoms: O_2  and  C_3
REMARK    3  A    between atoms: C_5  and  C_6
REMARK    4  A    between atoms: C_14  and  O_15
REMARK    5  A    between atoms: O_15  and  C_16
REMARK    6  A    between atoms: C_20  and  C_21
REMARK    7  A    between atoms: C_21  and  C_22
REMARK    8  A    between atoms: C_21  and  C_25
REMARK    9  A    between atoms: C_25  and  C_26
REMARK   10  A    between atoms: C_25  and  C_27
REMARK   11  A    between atoms: C_27  and  O_29
REMARK                            x       y       z     vdW  Elec       q    Type
REMARK                         _______ _______ _______ _____ _____    ______ ____
ROOT
ATOM      1  C   UNL     1      -0.627  11.757  20.487  0.00  0.00    +0.000 A 
ATOM      2  C   UNL     1       0.354  11.973  19.485  0.00  0.00    +0.000 A 
ATOM      3  C   UNL     1       1.241  10.974  19.089  0.00  0.00    +0.000 A 
ATOM      4  C   UNL     1       1.147   9.741  19.702  0.00  0.00    +0.000 A 
ATOM      5  C   UNL     1       0.177   9.491  20.676  0.00  0.00    +0.000 A 
ATOM      6  C   UNL     1      -0.713  10.474  21.066  0.00  0.00    +0.000 A 
ATOM      7  C   UNL     1       0.286   8.086  21.177  0.00  0.00    +0.000 C 
ATOM      8  C   UNL     1       1.742   7.776  20.807  0.00  0.00    +0.000 C 
ATOM      9  C   UNL     1       2.030   8.548  19.497  0.00  0.00    +0.000 C 
ENDROOT
BRANCH   1  12
ATOM     10  C   UNL     1      -3.193  13.783  22.379  0.00  0.00    +0.000 A 
ATOM     11  C   UNL     1      -2.418  12.701  21.987  0.00  0.00    +0.000 A 
ATOM     12  C   UNL     1      -1.504  12.859  20.938  0.00  0.00    +0.000 A 
ATOM     13  C   UNL     1      -1.435  14.125  20.338  0.00  0.00    +0.000 A 
ATOM     14  C   UNL     1      -2.254  15.142  20.794  0.00  0.00    +0.000 A 
ATOM     15  N   UNL     1      -3.129  15.000  21.804  0.00  0.00    +0.000 NA
BRANCH  10  17
ATOM     16  C   UNL     1      -3.767  12.384  24.155  0.00  0.00    +0.000 C 
ATOM     17  O   UNL     1      -4.076  13.561  23.417  0.00  0.00    +0.000 OA
ENDBRANCH  10  17
ENDBRANCH   1  12
BRANCH   9  18
ATOM     18  O   UNL     1       1.606   7.838  18.335  0.00  0.00    +0.000 OA
BRANCH  18  19
ATOM     19  C   UNL     1       2.270   6.673  18.055  0.00  0.00    +0.000 A 
ATOM     20  C   UNL     1       1.548   5.495  18.206  0.00  0.00    +0.000 A 
ATOM     21  C   UNL     1       2.170   4.265  17.981  0.00  0.00    +0.000 A 
ATOM     22  C   UNL     1       3.524   4.211  17.619  0.00  0.00    +0.000 A 
ATOM     23  C   UNL     1       4.271   5.387  17.458  0.00  0.00    +0.000 A 
ATOM     24  C   UNL     1       3.605   6.599  17.659  0.00  0.00    +0.000 A 
BRANCH  23  25
ATOM     25  C   UNL     1       5.761   5.357  17.120  0.00  0.00    +0.000 C 
BRANCH  25  26
ATOM     26  C   UNL     1       6.111   5.519  15.649  0.00  0.00    +0.000 C 
ATOM     27  C   UNL     1       5.595   4.631  14.538  0.00  0.00    +0.000 C 
ATOM     28  C   UNL     1       7.061   4.636  14.870  0.00  0.00    +0.000 C 
ENDBRANCH  25  26
BRANCH  25  29
ATOM     29  C   UNL     1       6.634   6.251  18.057  0.00  0.00    +0.000 C 
ATOM     30  C   UNL     1       7.579   7.266  17.402  0.00  0.00    +0.000 C 
BRANCH  29  31
ATOM     31  C   UNL     1       7.477   5.361  18.959  0.00  0.00    +0.000 C 
ATOM     32  O   UNL     1       7.538   5.464  20.176  0.00  0.00    +0.000 OA
BRANCH  31  33
ATOM     33  O   UNL     1       8.189   4.431  18.289  0.00  0.00    +0.000 OA
ATOM     34  H   UNL     1       8.597   4.749  17.458  0.00  0.00    +0.000 HD
ENDBRANCH  31  33
ENDBRANCH  29  31
ENDBRANCH  25  29
ENDBRANCH  23  25
ENDBRANCH  18  19
ENDBRANCH   9  18
TORSDOF 9
ENDMDL
MODEL 7
REMARK VINA RESULT:      -7.8      4.501     10.147
REMARK  Name = 
REMARK  11 active torsions:
REMARK  status: ('A' for Active; 'I' for Inactive)
REMARK    1  A    between atoms: C_1  and  O_2
REMARK    2  A    between atoms: O_2  and  C_3
REMARK    3  A    between atoms: C_5  and  C_6
REMARK    4  A    between atoms: C_14  and  O_15
REMARK    5  A    between atoms: O_15  and  C_16
REMARK    6  A    between atoms: C_20  and  C_21
REMARK    7  A    between atoms: C_21  and  C_22
REMARK    8  A    between atoms: C_21  and  C_25
REMARK    9  A    between atoms: C_25  and  C_26
REMARK   10  A    between atoms: C_25  and  C_27
REMARK   11  A    between atoms: C_27  and  O_29
REMARK                            x       y       z     vdW  Elec       q    Type
REMARK                         _______ _______ _______ _____ _____    ______ ____
ROOT
ATOM      1  C   UNL     1       2.544   7.165  18.614  0.00  0.00    +0.000 A 
ATOM      2  C   UNL     1       2.208   8.334  17.881  0.00  0.00    +0.000 A 
ATOM      3  C   UNL     1       1.492   9.385  18.449  0.00  0.00    +0.000 A 
ATOM      4  C   UNL     1       1.104   9.268  19.768  0.00  0.00    +0.000 A 
ATOM      5  C   UNL     1       1.438   8.141  20.522  0.00  0.00    +0.000 A 
ATOM      6  C   UNL     1       2.157   7.099  19.969  0.00  0.00    +0.000 A 
ATOM      7  C   UNL     1       0.903   8.263  21.914  0.00  0.00    +0.000 C 
ATOM      8  C   UNL     1      -0.221   9.282  21.687  0.00  0.00    +0.000 C 
ATOM      9  C   UNL     1       0.271  10.227  20.564  0.00  0.00    +0.000 C 
ENDROOT
BRANCH   1  12
ATOM     10  C   UNL     1       5.165   5.031  16.930  0.00  0.00    +0.000 A 
ATOM     11  C   UNL     1       4.561   6.137  17.510  0.00  0.00    +0.000 A 
ATOM     12  C   UNL     1       3.239   6.036  17.962  0.00  0.00    +0.000 A 
ATOM     13  C   UNL     1       2.600   4.800  17.790  0.00  0.00    +0.000 A 
ATOM     14  C   UNL     1       3.283   3.755  17.193  0.00  0.00    +0.000 A 
ATOM     15  N   UNL     1       4.554   3.842  16.763  0.00  0.00    +0.000 NA
BRANCH  10  17
ATOM     16  C   UNL     1       7.371   5.421  17.581  0.00  0.00    +0.000 C 
ATOM     17  O   UNL     1       6.468   5.196  16.503  0.00  0.00    +0.000 OA
ENDBRANCH  10  17
ENDBRANCH   1  12
BRANCH   9  18
ATOM     18  O   UNL     1       1.098  11.281  21.054  0.00  0.00    +0.000 OA
BRANCH  18  19
ATOM     19  C   UNL     1       1.024  12.475  20.387  0.00  0.00    +0.000 A 
ATOM     20  C   UNL     1      -0.143  12.717  19.673  0.00  0.00    +0.000 A 
ATOM     21  C   UNL     1      -0.274  13.894  18.933  0.00  0.00    +0.000 A 
ATOM     22  C   UNL     1       0.774  14.826  18.893  0.00  0.00    +0.000 A 
ATOM     23  C   UNL     1       1.959  14.604  19.608  0.00  0.00    +0.000 A 
ATOM     24  C   UNL     1       2.039  13.431  20.364  0.00  0.00    +0.000 A 
BRANCH  23  25
ATOM     25  C   UNL     1       3.139  15.573  19.538  0.00  0.00    +0.000 C 
BRANCH  25  26
ATOM     26  C   UNL     1       3.149  16.682  20.581  0.00  0.00    +0.000 C 
ATOM     27  C   UNL     1       1.934  17.152  21.350  0.00  0.00    +0.000 C 
ATOM     28  C   UNL     1       2.611  18.081  20.381  0.00  0.00    +0.000 C 
ENDBRANCH  25  26
BRANCH  25  29
ATOM     29  C   UNL     1       4.523  14.867  19.384  0.00  0.00    +0.000 C 
ATOM     30  C   UNL     1       5.676  15.349  20.273  0.00  0.00    +0.000 C 
BRANCH  29  31
ATOM     31  C   UNL     1       4.986  14.977  17.939  0.00  0.00    +0.000 C 
ATOM     32  O   UNL     1       6.141  14.835  17.567  0.00  0.00    +0.000 OA
BRANCH  31  33
ATOM     33  O   UNL     1       3.993  15.270  17.074  0.00  0.00    +0.000 OA
ATOM     34  H   UNL     1       3.180  14.735  17.186  0.00  0.00    +0.000 HD
ENDBRANCH  31  33
ENDBRANCH  29  31
ENDBRANCH  25  29
ENDBRANCH  23  25
ENDBRANCH  18  19
ENDBRANCH   9  18
TORSDOF 9
ENDMDL
MODEL 8
REMARK VINA RESULT:      -7.8      3.715     10.700
REMARK  Name = 
REMARK  11 active torsions:
REMARK  status: ('A' for Active; 'I' for Inactive)
REMARK    1  A    between atoms: C_1  and  O_2
REMARK    2  A    between atoms: O_2  and  C_3
REMARK    3  A    between atoms: C_5  and  C_6
REMARK    4  A    between atoms: C_14  and  O_15
REMARK    5  A    between atoms: O_15  and  C_16
REMARK    6  A    between atoms: C_20  and  C_21
REMARK    7  A    between atoms: C_21  and  C_22
REMARK    8  A    between atoms: C_21  and  C_25
REMARK    9  A    between atoms: C_25  and  C_26
REMARK   10  A    between atoms: C_25  and  C_27
REMARK   11  A    between atoms: C_27  and  O_29
REMARK                            x       y       z     vdW  Elec       q    Type
REMARK                         _______ _______ _______ _____ _____    ______ ____
ROOT
ATOM      1  C   UNL     1       2.387   7.560  18.519  0.00  0.00    +0.000 A 
ATOM      2  C   UNL     1       1.841   8.638  17.774  0.00  0.00    +0.000 A 
ATOM      3  C   UNL     1       1.069   9.634  18.368  0.00  0.00    +0.000 A 
ATOM      4  C   UNL     1       0.839   9.554  19.726  0.00  0.00    +0.000 A 
ATOM      5  C   UNL     1       1.381   8.517  20.491  0.00  0.00    +0.000 A 
ATOM      6  C   UNL     1       2.156   7.531  19.910  0.00  0.00    +0.000 A 
ATOM      7  C   UNL     1       0.985   8.661  21.926  0.00  0.00    +0.000 C 
ATOM      8  C   UNL     1      -0.268   9.533  21.779  0.00  0.00    +0.000 C 
ATOM      9  C   UNL     1      -0.013  10.458  20.564  0.00  0.00    +0.000 C 
ENDROOT
BRANCH   1  12
ATOM     10  C   UNL     1       4.978   5.664  16.530  0.00  0.00    +0.000 A 
ATOM     11  C   UNL     1       4.306   6.727  17.115  0.00  0.00    +0.000 A 
ATOM     12  C   UNL     1       3.138   6.478  17.847  0.00  0.00    +0.000 A 
ATOM     13  C   UNL     1       2.715   5.144  17.938  0.00  0.00    +0.000 A 
ATOM     14  C   UNL     1       3.449   4.151  17.314  0.00  0.00    +0.000 A 
ATOM     15  N   UNL     1       4.574   4.381  16.616  0.00  0.00    +0.000 NA
BRANCH  10  17
ATOM     16  C   UNL     1       7.075   4.919  15.831  0.00  0.00    +0.000 C 
ATOM     17  O   UNL     1       6.121   5.976  15.821  0.00  0.00    +0.000 OA
ENDBRANCH  10  17
ENDBRANCH   1  12
BRANCH   9  18
ATOM     18  O   UNL     1       0.732  11.625  20.909  0.00  0.00    +0.000 OA
BRANCH  18  19
ATOM     19  C   UNL     1       0.006  12.717  21.305  0.00  0.00    +0.000 A 
ATOM     20  C   UNL     1       0.724  13.874  21.582  0.00  0.00    +0.000 A 
ATOM     21  C   UNL     1       0.058  15.015  22.033  0.00  0.00    +0.000 A 
ATOM     22  C   UNL     1      -1.332  14.996  22.223  0.00  0.00    +0.000 A 
ATOM     23  C   UNL     1      -2.078  13.841  21.947  0.00  0.00    +0.000 A 
ATOM     24  C   UNL     1      -1.380  12.730  21.466  0.00  0.00    +0.000 A 
BRANCH  23  25
ATOM     25  C   UNL     1      -3.583  13.772  22.199  0.00  0.00    +0.000 C 
BRANCH  25  26
ATOM     26  C   UNL     1      -4.323  12.648  21.489  0.00  0.00    +0.000 C 
ATOM     27  C   UNL     1      -4.613  12.609  20.005  0.00  0.00    +0.000 C 
ATOM     28  C   UNL     1      -5.748  12.715  20.986  0.00  0.00    +0.000 C 
ENDBRANCH  25  26
BRANCH  25  29
ATOM     29  C   UNL     1      -3.974  13.906  23.705  0.00  0.00    +0.000 C 
ATOM     30  C   UNL     1      -4.292  12.621  24.479  0.00  0.00    +0.000 C 
BRANCH  29  31
ATOM     31  C   UNL     1      -5.181  14.824  23.831  0.00  0.00    +0.000 C 
ATOM     32  O   UNL     1      -5.208  15.990  23.465  0.00  0.00    +0.000 OA
BRANCH  31  33
ATOM     33  O   UNL     1      -6.247  14.239  24.414  0.00  0.00    +0.000 OA
ATOM     34  H   UNL     1      -6.276  14.318  25.390  0.00  0.00    +0.000 HD
ENDBRANCH  31  33
ENDBRANCH  29  31
ENDBRANCH  25  29
ENDBRANCH  23  25
ENDBRANCH  18  19
ENDBRANCH   9  18
TORSDOF 9
ENDMDL
MODEL 9
REMARK VINA RESULT:      -7.8      4.284     10.518
REMARK  Name = 
REMARK  11 active torsions:
REMARK  status: ('A' for Active; 'I' for Inactive)
REMARK    1  A    between atoms: C_1  and  O_2
REMARK    2  A    between atoms: O_2  and  C_3
REMARK    3  A    between atoms: C_5  and  C_6
REMARK    4  A    between atoms: C_14  and  O_15
REMARK    5  A    between atoms: O_15  and  C_16
REMARK    6  A    between atoms: C_20  and  C_21
REMARK    7  A    between atoms: C_21  and  C_22
REMARK    8  A    between atoms: C_21  and  C_25
REMARK    9  A    between atoms: C_25  and  C_26
REMARK   10  A    between atoms: C_25  and  C_27
REMARK   11  A    between atoms: C_27  and  O_29
REMARK                            x       y       z     vdW  Elec       q    Type
REMARK                         _______ _______ _______ _____ _____    ______ ____
ROOT
ATOM      1  C   UNL     1       4.401   5.937  17.452  0.00  0.00    +0.000 A 
ATOM      2  C   UNL     1       3.664   7.130  17.233  0.00  0.00    +0.000 A 
ATOM      3  C   UNL     1       2.675   7.562  18.115  0.00  0.00    +0.000 A 
ATOM      4  C   UNL     1       2.418   6.792  19.231  0.00  0.00    +0.000 A 
ATOM      5  C   UNL     1       3.142   5.625  19.485  0.00  0.00    +0.000 A 
ATOM      6  C   UNL     1       4.131   5.195  18.621  0.00  0.00    +0.000 A 
ATOM      7  C   UNL     1       2.672   4.981  20.751  0.00  0.00    +0.000 C 
ATOM      8  C   UNL     1       1.267   5.586  20.861  0.00  0.00    +0.000 C 
ATOM      9  C   UNL     1       1.362   7.014  20.271  0.00  0.00    +0.000 C 
ENDROOT
BRANCH   1  12
ATOM     10  C   UNL     1       5.987   4.435  14.371  0.00  0.00    +0.000 A 
ATOM     11  C   UNL     1       5.009   4.829  15.272  0.00  0.00    +0.000 A 
ATOM     12  C   UNL     1       5.391   5.466  16.460  0.00  0.00    +0.000 A 
ATOM     13  C   UNL     1       6.764   5.664  16.664  0.00  0.00    +0.000 A 
ATOM     14  C   UNL     1       7.666   5.230  15.709  0.00  0.00    +0.000 A 
ATOM     15  N   UNL     1       7.307   4.623  14.564  0.00  0.00    +0.000 NA
BRANCH  10  17
ATOM     16  C   UNL     1       6.603   3.541  12.306  0.00  0.00    +0.000 C 
ATOM     17  O   UNL     1       5.546   3.810  13.221  0.00  0.00    +0.000 OA
ENDBRANCH  10  17
ENDBRANCH   1  12
BRANCH   9  18
ATOM     18  O   UNL     1       1.825   7.972  21.221  0.00  0.00    +0.000 OA
BRANCH  18  19
ATOM     19  C   UNL     1       1.000   9.037  21.465  0.00  0.00    +0.000 A 
ATOM     20  C   UNL     1       0.445   9.116  22.737  0.00  0.00    +0.000 A 
ATOM     21  C   UNL     1      -0.440  10.150  23.047  0.00  0.00    +0.000 A 
ATOM     22  C   UNL     1      -0.785  11.102  22.077  0.00  0.00    +0.000 A 
ATOM     23  C   UNL     1      -0.236  11.045  20.788  0.00  0.00    +0.000 A 
ATOM     24  C   UNL     1       0.672  10.015  20.526  0.00  0.00    +0.000 A 
BRANCH  23  25
ATOM     25  C   UNL     1      -0.636  12.034  19.695  0.00  0.00    +0.000 C 
BRANCH  25  26
ATOM     26  C   UNL     1      -1.898  11.689  18.918  0.00  0.00    +0.000 C 
ATOM     27  C   UNL     1      -2.178  10.345  18.282  0.00  0.00    +0.000 C 
ATOM     28  C   UNL     1      -1.996  11.558  17.414  0.00  0.00    +0.000 C 
ENDBRANCH  25  26
BRANCH  25  29
ATOM     29  C   UNL     1      -0.590  13.527  20.150  0.00  0.00    +0.000 C 
ATOM     30  C   UNL     1      -1.912  14.200  20.538  0.00  0.00    +0.000 C 
BRANCH  29  31
ATOM     31  C   UNL     1       0.044  14.369  19.053  0.00  0.00    +0.000 C 
ATOM     32  O   UNL     1      -0.300  15.505  18.762  0.00  0.00    +0.000 OA
BRANCH  31  33
ATOM     33  O   UNL     1       1.037  13.738  18.393  0.00  0.00    +0.000 OA
ATOM     34  H   UNL     1       1.051  13.895  17.426  0.00  0.00    +0.000 HD
ENDBRANCH  31  33
ENDBRANCH  29  31
ENDBRANCH  25  29
ENDBRANCH  23  25
ENDBRANCH  18  19
ENDBRANCH   9  18
TORSDOF 9
ENDMDL
