MODEL 1
REMARK VINA RESULT:      -8.0      0.000      0.000
REMARK  Name = 
REMARK  6 active torsions:
REMARK  status: ('A' for Active; 'I' for Inactive)
REMARK    1  A    between atoms: S_2  and  N_4
REMARK    2  A    between atoms: S_2  and  C_28
REMARK    3  A    between atoms: N_4  and  C_5
REMARK    4  A    between atoms: C_14  and  N_15
REMARK    5  A    between atoms: N_15  and  C_16
REMARK    6  A    between atoms: C_21  and  N_22
REMARK                            x       y       z     vdW  Elec       q    Type
REMARK                         _______ _______ _______ _____ _____    ______ ____
ROOT
ATOM      1  C   UNL     1      -0.271  10.964  19.687  0.00  0.00    +0.000 A 
ATOM      2  N   UNL     1      -0.524  10.320  18.525  0.00  0.00    +0.000 NA
ATOM      3  C   UNL     1      -1.728  10.555  17.959  0.00  0.00    +0.000 A 
ATOM      4  C   UNL     1      -2.112   9.921  16.781  0.00  0.00    +0.000 A 
ATOM      5  C   UNL     1      -3.372  10.143  16.207  0.00  0.00    +0.000 A 
ATOM      6  C   UNL     1      -4.267  11.010  16.818  0.00  0.00    +0.000 A 
ATOM      7  C   UNL     1      -3.893  11.652  17.994  0.00  0.00    +0.000 A 
ATOM      8  C   UNL     1      -2.645  11.441  18.557  0.00  0.00    +0.000 A 
ATOM      9  N   UNL     1      -2.353  12.077  19.693  0.00  0.00    +0.000 NA
ATOM     10  C   UNL     1      -1.179  11.842  20.314  0.00  0.00    +0.000 A 
ENDROOT
BRANCH   1  11
ATOM     11  N   UNL     1       0.916  10.518  20.303  0.00  0.00    +0.000 N 
ATOM     12  H   UNL     1       1.801  10.954  20.072  0.00  0.00    +0.000 HD
BRANCH  11  14
ATOM     13  O   UNL     1       1.710   9.363  22.396  0.00  0.00    +0.000 OA
ATOM     14  S   UNL     1       0.889   9.147  21.226  0.00  0.00    +0.000 S 
ATOM     15  O   UNL     1      -0.513   8.798  21.368  0.00  0.00    +0.000 OA
BRANCH  14  16
ATOM     16  C   UNL     1       1.651   7.877  20.229  0.00  0.00    +0.000 A 
ATOM     17  C   UNL     1       1.655   6.554  20.688  0.00  0.00    +0.000 A 
ATOM     18  C   UNL     1       2.192   5.541  19.887  0.00  0.00    +0.000 A 
ATOM     19  C   UNL     1       2.701   5.846  18.626  0.00  0.00    +0.000 A 
ATOM     20 CL   UNL     1       3.363   4.595  17.647  0.00  0.00    +0.000 Cl
ATOM     21  C   UNL     1       2.671   7.159  18.150  0.00  0.00    +0.000 A 
ATOM     22  C   UNL     1       2.139   8.178  18.951  0.00  0.00    +0.000 A 
ENDBRANCH  14  16
ENDBRANCH  11  14
ENDBRANCH   1  11
BRANCH  10  23
ATOM     23  N   UNL     1      -1.003  12.312  21.632  0.00  0.00    +0.000 N 
ATOM     24  H   UNL     1      -0.826  11.610  22.341  0.00  0.00    +0.000 HD
BRANCH  23  25
ATOM     25  C   UNL     1      -0.767  13.646  22.082  0.00  0.00    +0.000 A 
ATOM     26  C   UNL     1       0.514  14.232  21.972  0.00  0.00    +0.000 A 
ATOM     27  C   UNL     1       0.751  15.590  22.166  0.00  0.00    +0.000 A 
ATOM     28  C   UNL     1      -0.308  16.419  22.467  0.00  0.00    +0.000 A 
ATOM     29  C   UNL     1      -1.575  15.864  22.656  0.00  0.00    +0.000 A 
ATOM     30  C   UNL     1      -1.838  14.476  22.523  0.00  0.00    +0.000 A 
BRANCH  30  31
ATOM     31  N   UNL     1      -3.076  13.962  22.927  0.00  0.00    +0.000 N 
ATOM     32  C   UNL     1      -3.362  13.894  24.372  0.00  0.00    +0.000 C 
ATOM     33  C   UNL     1      -4.278  12.706  24.648  0.00  0.00    +0.000 C 
ATOM     34  C   UNL     1      -5.528  12.735  23.770  0.00  0.00    +0.000 C 
ATOM     35  C   UNL     1      -5.181  12.959  22.296  0.00  0.00    +0.000 C 
ATOM     36  C   UNL     1      -4.280  14.187  22.122  0.00  0.00    +0.000 C 
ENDBRANCH  30  31
ENDBRANCH  23  25
ENDBRANCH  10  23
TORSDOF 6
ENDMDL
MODEL 2
REMARK VINA RESULT:      -8.0      2.976      6.322
REMARK  Name = 
REMARK  6 active torsions:
REMARK  status: ('A' for Active; 'I' for Inactive)
REMARK    1  A    between atoms: S_2  and  N_4
REMARK    2  A    between atoms: S_2  and  C_28
REMARK    3  A    between atoms: N_4  and  C_5
REMARK    4  A    between atoms: C_14  and  N_15
REMARK    5  A    between atoms: N_15  and  C_16
REMARK    6  A    between atoms: C_21  and  N_22
REMARK                            x       y       z     vdW  Elec       q    Type
REMARK                         _______ _______ _______ _____ _____    ______ ____
ROOT
ATOM      1  C   UNL     1       0.929   9.062  19.838  0.00  0.00    +0.000 A 
ATOM      2  N   UNL     1       1.401   7.881  20.293  0.00  0.00    +0.000 NA
ATOM      3  C   UNL     1       2.313   7.259  19.515  0.00  0.00    +0.000 A 
ATOM      4  C   UNL     1       2.843   6.020  19.865  0.00  0.00    +0.000 A 
ATOM      5  C   UNL     1       3.769   5.361  19.045  0.00  0.00    +0.000 A 
ATOM      6  C   UNL     1       4.174   5.943  17.852  0.00  0.00    +0.000 A 
ATOM      7  C   UNL     1       3.654   7.182  17.492  0.00  0.00    +0.000 A 
ATOM      8  C   UNL     1       2.745   7.839  18.307  0.00  0.00    +0.000 A 
ATOM      9  N   UNL     1       2.274   9.018  17.897  0.00  0.00    +0.000 NA
ATOM     10  C   UNL     1       1.333   9.656  18.623  0.00  0.00    +0.000 A 
ENDROOT
BRANCH   1  11
ATOM     11  N   UNL     1      -0.150   9.545  20.606  0.00  0.00    +0.000 N 
ATOM     12  H   UNL     1      -1.004   9.842  20.149  0.00  0.00    +0.000 HD
BRANCH  11  14
ATOM     13  O   UNL     1      -0.637   8.809  22.965  0.00  0.00    +0.000 OA
ATOM     14  S   UNL     1       0.064   9.830  22.220  0.00  0.00    +0.000 S 
ATOM     15  O   UNL     1       1.492  10.018  22.399  0.00  0.00    +0.000 OA
BRANCH  14  16
ATOM     16  C   UNL     1      -0.721  11.402  22.542  0.00  0.00    +0.000 A 
ATOM     17  C   UNL     1      -0.137  12.574  22.050  0.00  0.00    +0.000 A 
ATOM     18  C   UNL     1      -0.776  13.804  22.240  0.00  0.00    +0.000 A 
ATOM     19  C   UNL     1      -2.003  13.856  22.900  0.00  0.00    +0.000 A 
ATOM     20 CL   UNL     1      -2.783  15.372  23.134  0.00  0.00    +0.000 Cl
ATOM     21  C   UNL     1      -2.606  12.685  23.365  0.00  0.00    +0.000 A 
ATOM     22  C   UNL     1      -1.967  11.452  23.181  0.00  0.00    +0.000 A 
ENDBRANCH  14  16
ENDBRANCH  11  14
ENDBRANCH   1  11
BRANCH  10  23
ATOM     23  N   UNL     1       0.662  10.755  18.048  0.00  0.00    +0.000 N 
ATOM     24  H   UNL     1      -0.037  10.540  17.347  0.00  0.00    +0.000 HD
BRANCH  23  25
ATOM     25  C   UNL     1       0.622  12.111  18.492  0.00  0.00    +0.000 A 
ATOM     26  C   UNL     1       1.803  12.780  18.884  0.00  0.00    +0.000 A 
ATOM     27  C   UNL     1       1.867  14.155  19.092  0.00  0.00    +0.000 A 
ATOM     28  C   UNL     1       0.735  14.917  18.899  0.00  0.00    +0.000 A 
ATOM     29  C   UNL     1      -0.467  14.280  18.585  0.00  0.00    +0.000 A 
ATOM     30  C   UNL     1      -0.579  12.875  18.422  0.00  0.00    +0.000 A 
BRANCH  30  31
ATOM     31  N   UNL     1      -1.845  12.287  18.313  0.00  0.00    +0.000 N 
ATOM     32  C   UNL     1      -2.075  11.336  17.211  0.00  0.00    +0.000 C 
ATOM     33  C   UNL     1      -3.538  11.406  16.783  0.00  0.00    +0.000 C 
ATOM     34  C   UNL     1      -4.487  11.225  17.966  0.00  0.00    +0.000 C 
ATOM     35  C   UNL     1      -4.108  12.131  19.140  0.00  0.00    +0.000 C 
ATOM     36  C   UNL     1      -2.630  11.969  19.509  0.00  0.00    +0.000 C 
ENDBRANCH  30  31
ENDBRANCH  23  25
ENDBRANCH  10  23
TORSDOF 6
ENDMDL
MODEL 3
REMARK VINA RESULT:      -7.9      1.025      3.023
REMARK  Name = 
REMARK  6 active torsions:
REMARK  status: ('A' for Active; 'I' for Inactive)
REMARK    1  A    between atoms: S_2  and  N_4
REMARK    2  A    between atoms: S_2  and  C_28
REMARK    3  A    between atoms: N_4  and  C_5
REMARK    4  A    between atoms: C_14  and  N_15
REMARK    5  A    between atoms: N_15  and  C_16
REMARK    6  A    between atoms: C_21  and  N_22
REMARK                            x       y       z     vdW  Elec       q    Type
REMARK                         _______ _______ _______ _____ _____    ______ ____
ROOT
ATOM      1  C   UNL     1      -0.300  10.865  19.718  0.00  0.00    +0.000 A 
ATOM      2  N   UNL     1      -0.504  10.314  18.501  0.00  0.00    +0.000 NA
ATOM      3  C   UNL     1      -1.705  10.549  17.929  0.00  0.00    +0.000 A 
ATOM      4  C   UNL     1      -2.040  10.003  16.693  0.00  0.00    +0.000 A 
ATOM      5  C   UNL     1      -3.295  10.225  16.111  0.00  0.00    +0.000 A 
ATOM      6  C   UNL     1      -4.237  11.001  16.771  0.00  0.00    +0.000 A 
ATOM      7  C   UNL     1      -3.913  11.554  18.006  0.00  0.00    +0.000 A 
ATOM      8  C   UNL     1      -2.669  11.344  18.578  0.00  0.00    +0.000 A 
ATOM      9  N   UNL     1      -2.426  11.892  19.770  0.00  0.00    +0.000 NA
ATOM     10  C   UNL     1      -1.256  11.651  20.396  0.00  0.00    +0.000 A 
ENDROOT
BRANCH   1  11
ATOM     11  N   UNL     1       0.892  10.415  20.322  0.00  0.00    +0.000 N 
ATOM     12  H   UNL     1       1.777  10.844  20.077  0.00  0.00    +0.000 HD
BRANCH  11  14
ATOM     13  O   UNL     1       1.722   9.260  22.400  0.00  0.00    +0.000 OA
ATOM     14  S   UNL     1       0.867   9.050  21.253  0.00  0.00    +0.000 S 
ATOM     15  O   UNL     1      -0.536   8.725  21.435  0.00  0.00    +0.000 OA
BRANCH  14  16
ATOM     16  C   UNL     1       1.582   7.762  20.244  0.00  0.00    +0.000 A 
ATOM     17  C   UNL     1       2.141   8.093  19.005  0.00  0.00    +0.000 A 
ATOM     18  C   UNL     1       2.762   7.104  18.234  0.00  0.00    +0.000 A 
ATOM     19  C   UNL     1       2.842   5.797  18.714  0.00  0.00    +0.000 A 
ATOM     20 CL   UNL     1       3.604   4.584  17.760  0.00  0.00    +0.000 Cl
ATOM     21  C   UNL     1       2.314   5.468  19.963  0.00  0.00    +0.000 A 
ATOM     22  C   UNL     1       1.687   6.455  20.736  0.00  0.00    +0.000 A 
ENDBRANCH  14  16
ENDBRANCH  11  14
ENDBRANCH   1  11
BRANCH  10  23
ATOM     23  N   UNL     1      -1.125  12.013  21.753  0.00  0.00    +0.000 N 
ATOM     24  H   UNL     1      -0.214  11.870  22.171  0.00  0.00    +0.000 HD
BRANCH  23  25
ATOM     25  C   UNL     1      -2.002  12.802  22.557  0.00  0.00    +0.000 A 
ATOM     26  C   UNL     1      -3.025  12.197  23.321  0.00  0.00    +0.000 A 
ATOM     27  C   UNL     1      -3.748  12.873  24.299  0.00  0.00    +0.000 A 
ATOM     28  C   UNL     1      -3.454  14.195  24.557  0.00  0.00    +0.000 A 
ATOM     29  C   UNL     1      -2.502  14.846  23.771  0.00  0.00    +0.000 A 
ATOM     30  C   UNL     1      -1.788  14.201  22.727  0.00  0.00    +0.000 A 
BRANCH  30  31
ATOM     31  N   UNL     1      -1.004  14.959  21.850  0.00  0.00    +0.000 N 
ATOM     32  C   UNL     1      -1.631  15.453  20.611  0.00  0.00    +0.000 C 
ATOM     33  C   UNL     1      -0.574  15.539  19.513  0.00  0.00    +0.000 C 
ATOM     34  C   UNL     1       0.644  16.348  19.957  0.00  0.00    +0.000 C 
ATOM     35  C   UNL     1       1.161  15.889  21.323  0.00  0.00    +0.000 C 
ATOM     36  C   UNL     1       0.033  15.861  22.360  0.00  0.00    +0.000 C 
ENDBRANCH  30  31
ENDBRANCH  23  25
ENDBRANCH  10  23
TORSDOF 6
ENDMDL
MODEL 4
REMARK VINA RESULT:      -7.9      1.416      3.297
REMARK  Name = 
REMARK  6 active torsions:
REMARK  status: ('A' for Active; 'I' for Inactive)
REMARK    1  A    between atoms: S_2  and  N_4
REMARK    2  A    between atoms: S_2  and  C_28
REMARK    3  A    between atoms: N_4  and  C_5
REMARK    4  A    between atoms: C_14  and  N_15
REMARK    5  A    between atoms: N_15  and  C_16
REMARK    6  A    between atoms: C_21  and  N_22
REMARK                            x       y       z     vdW  Elec       q    Type
REMARK                         _______ _______ _______ _____ _____    ______ ____
ROOT
ATOM      1  C   UNL     1      -0.086  10.646  19.438  0.00  0.00    +0.000 A 
ATOM      2  N   UNL     1      -0.460  10.113  18.253  0.00  0.00    +0.000 NA
ATOM      3  C   UNL     1      -1.678  10.469  17.792  0.00  0.00    +0.000 A 
ATOM      4  C   UNL     1      -2.182   9.955  16.601  0.00  0.00    +0.000 A 
ATOM      5  C   UNL     1      -3.457  10.304  16.134  0.00  0.00    +0.000 A 
ATOM      6  C   UNL     1      -4.247  11.177  16.867  0.00  0.00    +0.000 A 
ATOM      7  C   UNL     1      -3.753  11.700  18.058  0.00  0.00    +0.000 A 
ATOM      8  C   UNL     1      -2.489  11.364  18.515  0.00  0.00    +0.000 A 
ATOM      9  N   UNL     1      -2.081  11.890  19.672  0.00  0.00    +0.000 NA
ATOM     10  C   UNL     1      -0.888  11.531  20.190  0.00  0.00    +0.000 A 
ENDROOT
BRANCH   1  11
ATOM     11  N   UNL     1       1.103  10.077  19.936  0.00  0.00    +0.000 N 
ATOM     12  H   UNL     1       1.998  10.353  19.547  0.00  0.00    +0.000 HD
BRANCH  11  14
ATOM     13  O   UNL     1       1.823   9.120  22.152  0.00  0.00    +0.000 OA
ATOM     14  S   UNL     1       1.019   8.808  20.991  0.00  0.00    +0.000 S 
ATOM     15  O   UNL     1      -0.394   8.512  21.136  0.00  0.00    +0.000 OA
BRANCH  14  16
ATOM     16  C   UNL     1       1.765   7.424  20.144  0.00  0.00    +0.000 A 
ATOM     17  C   UNL     1       1.654   6.142  20.695  0.00  0.00    +0.000 A 
ATOM     18  C   UNL     1       2.177   5.041  20.008  0.00  0.00    +0.000 A 
ATOM     19  C   UNL     1       2.789   5.221  18.768  0.00  0.00    +0.000 A 
ATOM     20 CL   UNL     1       3.434   3.863  17.930  0.00  0.00    +0.000 Cl
ATOM     21  C   UNL     1       2.875   6.493  18.200  0.00  0.00    +0.000 A 
ATOM     22  C   UNL     1       2.356   7.600  18.886  0.00  0.00    +0.000 A 
ENDBRANCH  14  16
ENDBRANCH  11  14
ENDBRANCH   1  11
BRANCH  10  23
ATOM     23  N   UNL     1      -0.594  11.885  21.523  0.00  0.00    +0.000 N 
ATOM     24  H   UNL     1       0.058  11.285  22.015  0.00  0.00    +0.000 HD
BRANCH  23  25
ATOM     25  C   UNL     1      -0.862  13.111  22.204  0.00  0.00    +0.000 A 
ATOM     26  C   UNL     1      -1.886  13.191  23.175  0.00  0.00    +0.000 A 
ATOM     27  C   UNL     1      -2.037  14.275  24.036  0.00  0.00    +0.000 A 
ATOM     28  C   UNL     1      -1.145  15.322  23.958  0.00  0.00    +0.000 A 
ATOM     29  C   UNL     1      -0.167  15.311  22.962  0.00  0.00    +0.000 A 
ATOM     30  C   UNL     1      -0.022  14.249  22.032  0.00  0.00    +0.000 A 
BRANCH  30  31
ATOM     31  N   UNL     1       0.838  14.397  20.938  0.00  0.00    +0.000 N 
ATOM     32  C   UNL     1       0.838  15.686  20.224  0.00  0.00    +0.000 C 
ATOM     33  C   UNL     1       1.167  15.446  18.753  0.00  0.00    +0.000 C 
ATOM     34  C   UNL     1       2.455  14.643  18.582  0.00  0.00    +0.000 C 
ATOM     35  C   UNL     1       2.464  13.391  19.462  0.00  0.00    +0.000 C 
ATOM     36  C   UNL     1       2.149  13.740  20.921  0.00  0.00    +0.000 C 
ENDBRANCH  30  31
ENDBRANCH  23  25
ENDBRANCH  10  23
TORSDOF 6
ENDMDL
MODEL 5
REMARK VINA RESULT:      -7.8      0.410      1.221
REMARK  Name = 
REMARK  6 active torsions:
REMARK  status: ('A' for Active; 'I' for Inactive)
REMARK    1  A    between atoms: S_2  and  N_4
REMARK    2  A    between atoms: S_2  and  C_28
REMARK    3  A    between atoms: N_4  and  C_5
REMARK    4  A    between atoms: C_14  and  N_15
REMARK    5  A    between atoms: N_15  and  C_16
REMARK    6  A    between atoms: C_21  and  N_22
REMARK                            x       y       z     vdW  Elec       q    Type
REMARK                         _______ _______ _______ _____ _____    ______ ____
ROOT
ATOM      1  C   UNL     1      -0.364  11.002  19.533  0.00  0.00    +0.000 A 
ATOM      2  N   UNL     1      -0.584  10.429  18.328  0.00  0.00    +0.000 NA
ATOM      3  C   UNL     1      -1.797  10.644  17.774  0.00  0.00    +0.000 A 
ATOM      4  C   UNL     1      -2.148  10.075  16.553  0.00  0.00    +0.000 A 
ATOM      5  C   UNL     1      -3.416  10.276  15.990  0.00  0.00    +0.000 A 
ATOM      6  C   UNL     1      -4.353  11.054  16.654  0.00  0.00    +0.000 A 
ATOM      7  C   UNL     1      -4.013  11.630  17.873  0.00  0.00    +0.000 A 
ATOM      8  C   UNL     1      -2.756  11.441  18.427  0.00  0.00    +0.000 A 
ATOM      9  N   UNL     1      -2.498  12.010  19.606  0.00  0.00    +0.000 NA
ATOM     10  C   UNL     1      -1.315  11.790  20.215  0.00  0.00    +0.000 A 
ENDROOT
BRANCH   1  11
ATOM     11  N   UNL     1       0.842  10.573  20.123  0.00  0.00    +0.000 N 
ATOM     12  H   UNL     1       1.721  10.995  19.844  0.00  0.00    +0.000 HD
BRANCH  11  14
ATOM     13  O   UNL     1       1.691   9.500  22.237  0.00  0.00    +0.000 OA
ATOM     14  S   UNL     1       0.842   9.238  21.097  0.00  0.00    +0.000 S 
ATOM     15  O   UNL     1      -0.555   8.893  21.288  0.00  0.00    +0.000 OA
BRANCH  14  16
ATOM     16  C   UNL     1       1.582   7.932  20.130  0.00  0.00    +0.000 A 
ATOM     17  C   UNL     1       2.129   8.232  18.877  0.00  0.00    +0.000 A 
ATOM     18  C   UNL     1       2.769   7.230  18.139  0.00  0.00    +0.000 A 
ATOM     19  C   UNL     1       2.881   5.943  18.663  0.00  0.00    +0.000 A 
ATOM     20 CL   UNL     1       3.667   4.715  17.749  0.00  0.00    +0.000 Cl
ATOM     21  C   UNL     1       2.365   5.647  19.926  0.00  0.00    +0.000 A 
ATOM     22  C   UNL     1       1.719   6.645  20.667  0.00  0.00    +0.000 A 
ENDBRANCH  14  16
ENDBRANCH  11  14
ENDBRANCH   1  11
BRANCH  10  23
ATOM     23  N   UNL     1      -1.163  12.175  21.563  0.00  0.00    +0.000 N 
ATOM     24  H   UNL     1      -1.002  11.430  22.229  0.00  0.00    +0.000 HD
BRANCH  23  25
ATOM     25  C   UNL     1      -0.934  13.478  22.101  0.00  0.00    +0.000 A 
ATOM     26  C   UNL     1       0.336  14.091  21.997  0.00  0.00    +0.000 A 
ATOM     27  C   UNL     1       0.559  15.435  22.281  0.00  0.00    +0.000 A 
ATOM     28  C   UNL     1      -0.503  16.223  22.670  0.00  0.00    +0.000 A 
ATOM     29  C   UNL     1      -1.756  15.635  22.855  0.00  0.00    +0.000 A 
ATOM     30  C   UNL     1      -2.003  14.256  22.630  0.00  0.00    +0.000 A 
BRANCH  30  31
ATOM     31  N   UNL     1      -3.221  13.695  23.030  0.00  0.00    +0.000 N 
ATOM     32  C   UNL     1      -4.386  13.859  22.140  0.00  0.00    +0.000 C 
ATOM     33  C   UNL     1      -5.658  13.911  22.982  0.00  0.00    +0.000 C 
ATOM     34  C   UNL     1      -5.764  12.717  23.929  0.00  0.00    +0.000 C 
ATOM     35  C   UNL     1      -4.471  12.504  24.719  0.00  0.00    +0.000 C 
ATOM     36  C   UNL     1      -3.257  12.439  23.785  0.00  0.00    +0.000 C 
ENDBRANCH  30  31
ENDBRANCH  23  25
ENDBRANCH  10  23
TORSDOF 6
ENDMDL
MODEL 6
REMARK VINA RESULT:      -7.8      2.071      3.290
REMARK  Name = 
REMARK  6 active torsions:
REMARK  status: ('A' for Active; 'I' for Inactive)
REMARK    1  A    between atoms: S_2  and  N_4
REMARK    2  A    between atoms: S_2  and  C_28
REMARK    3  A    between atoms: N_4  and  C_5
REMARK    4  A    between atoms: C_14  and  N_15
REMARK    5  A    between atoms: N_15  and  C_16
REMARK    6  A    between atoms: C_21  and  N_22
REMARK                            x       y       z     vdW  Elec       q    Type
REMARK                         _______ _______ _______ _____ _____    ______ ____
ROOT
ATOM      1  C   UNL     1      -1.651  11.053  19.343  0.00  0.00    +0.000 A 
ATOM      2  N   UNL     1      -1.529  10.115  18.376  0.00  0.00    +0.000 NA
ATOM      3  C   UNL     1      -2.325  10.262  17.295  0.00  0.00    +0.000 A 
ATOM      4  C   UNL     1      -2.312   9.338  16.253  0.00  0.00    +0.000 A 
ATOM      5  C   UNL     1      -3.156   9.475  15.143  0.00  0.00    +0.000 A 
ATOM      6  C   UNL     1      -4.032  10.548  15.068  0.00  0.00    +0.000 A 
ATOM      7  C   UNL     1      -4.053  11.479  16.101  0.00  0.00    +0.000 A 
ATOM      8  C   UNL     1      -3.212  11.351  17.195  0.00  0.00    +0.000 A 
ATOM      9  N   UNL     1      -3.291  12.271  18.158  0.00  0.00    +0.000 NA
ATOM     10  C   UNL     1      -2.544  12.143  19.274  0.00  0.00    +0.000 A 
ENDROOT
BRANCH   1  11
ATOM     11  N   UNL     1      -0.932  10.722  20.510  0.00  0.00    +0.000 N 
ATOM     12  H   UNL     1      -1.430  10.472  21.357  0.00  0.00    +0.000 HD
BRANCH  11  14
ATOM     13  O   UNL     1       1.027  12.095  19.723  0.00  0.00    +0.000 OA
ATOM     14  S   UNL     1       0.703  10.956  20.553  0.00  0.00    +0.000 S 
ATOM     15  O   UNL     1       1.063  10.948  21.959  0.00  0.00    +0.000 OA
BRANCH  14  16
ATOM     16  C   UNL     1       1.421   9.498  19.814  0.00  0.00    +0.000 A 
ATOM     17  C   UNL     1       1.538   8.329  20.576  0.00  0.00    +0.000 A 
ATOM     18  C   UNL     1       2.039   7.162  19.989  0.00  0.00    +0.000 A 
ATOM     19  C   UNL     1       2.400   7.161  18.642  0.00  0.00    +0.000 A 
ATOM     20 CL   UNL     1       3.019   5.723  17.927  0.00  0.00    +0.000 Cl
ATOM     21  C   UNL     1       2.257   8.315  17.870  0.00  0.00    +0.000 A 
ATOM     22  C   UNL     1       1.760   9.487  18.455  0.00  0.00    +0.000 A 
ENDBRANCH  14  16
ENDBRANCH  11  14
ENDBRANCH   1  11
BRANCH  10  23
ATOM     23  N   UNL     1      -2.832  12.967  20.381  0.00  0.00    +0.000 N 
ATOM     24  H   UNL     1      -2.666  13.959  20.259  0.00  0.00    +0.000 HD
BRANCH  23  25
ATOM     25  C   UNL     1      -3.575  12.656  21.559  0.00  0.00    +0.000 A 
ATOM     26  C   UNL     1      -2.919  12.428  22.790  0.00  0.00    +0.000 A 
ATOM     27  C   UNL     1      -3.587  12.360  24.010  0.00  0.00    +0.000 A 
ATOM     28  C   UNL     1      -4.954  12.535  24.035  0.00  0.00    +0.000 A 
ATOM     29  C   UNL     1      -5.644  12.688  22.831  0.00  0.00    +0.000 A 
ATOM     30  C   UNL     1      -4.999  12.703  21.567  0.00  0.00    +0.000 A 
BRANCH  30  31
ATOM     31  N   UNL     1      -5.764  12.652  20.397  0.00  0.00    +0.000 N 
ATOM     32  C   UNL     1      -6.580  11.449  20.153  0.00  0.00    +0.000 C 
ATOM     33  C   UNL     1      -6.690  11.212  18.649  0.00  0.00    +0.000 C 
ATOM     34  C   UNL     1      -7.184  12.455  17.912  0.00  0.00    +0.000 C 
ATOM     35  C   UNL     1      -6.398  13.704  18.317  0.00  0.00    +0.000 C 
ATOM     36  C   UNL     1      -6.367  13.867  19.841  0.00  0.00    +0.000 C 
ENDBRANCH  30  31
ENDBRANCH  23  25
ENDBRANCH  10  23
TORSDOF 6
ENDMDL
MODEL 7
REMARK VINA RESULT:      -7.6      2.393      4.494
REMARK  Name = 
REMARK  6 active torsions:
REMARK  status: ('A' for Active; 'I' for Inactive)
REMARK    1  A    between atoms: S_2  and  N_4
REMARK    2  A    between atoms: S_2  and  C_28
REMARK    3  A    between atoms: N_4  and  C_5
REMARK    4  A    between atoms: C_14  and  N_15
REMARK    5  A    between atoms: N_15  and  C_16
REMARK    6  A    between atoms: C_21  and  N_22
REMARK                            x       y       z     vdW  Elec       q    Type
REMARK                         _______ _______ _______ _____ _____    ______ ____
ROOT
ATOM      1  C   UNL     1       0.204  12.972  19.109  0.00  0.00    +0.000 A 
ATOM      2  N   UNL     1       1.343  13.606  18.754  0.00  0.00    +0.000 NA
ATOM      3  C   UNL     1       1.324  14.956  18.817  0.00  0.00    +0.000 A 
ATOM      4  C   UNL     1       2.427  15.716  18.442  0.00  0.00    +0.000 A 
ATOM      5  C   UNL     1       2.399  17.117  18.483  0.00  0.00    +0.000 A 
ATOM      6  C   UNL     1       1.251  17.774  18.900  0.00  0.00    +0.000 A 
ATOM      7  C   UNL     1       0.142  17.025  19.281  0.00  0.00    +0.000 A 
ATOM      8  C   UNL     1       0.172  15.640  19.251  0.00  0.00    +0.000 A 
ATOM      9  N   UNL     1      -0.929  14.981  19.615  0.00  0.00    +0.000 NA
ATOM     10  C   UNL     1      -0.968  13.635  19.529  0.00  0.00    +0.000 A 
ENDROOT
BRANCH   1  11
ATOM     11  N   UNL     1       0.246  11.590  18.831  0.00  0.00    +0.000 N 
ATOM     12  H   UNL     1       0.042  11.256  17.896  0.00  0.00    +0.000 HD
BRANCH  11  14
ATOM     13  O   UNL     1       1.140  11.156  21.145  0.00  0.00    +0.000 OA
ATOM     14  S   UNL     1       0.409  10.515  20.075  0.00  0.00    +0.000 S 
ATOM     15  O   UNL     1      -0.921   9.984  20.310  0.00  0.00    +0.000 OA
BRANCH  14  16
ATOM     16  C   UNL     1       1.406   9.179  19.433  0.00  0.00    +0.000 A 
ATOM     17  C   UNL     1       1.625   8.045  20.224  0.00  0.00    +0.000 A 
ATOM     18  C   UNL     1       2.349   6.965  19.707  0.00  0.00    +0.000 A 
ATOM     19  C   UNL     1       2.832   7.013  18.400  0.00  0.00    +0.000 A 
ATOM     20 CL   UNL     1       3.726   5.683  17.772  0.00  0.00    +0.000 Cl
ATOM     21  C   UNL     1       2.590   8.128  17.597  0.00  0.00    +0.000 A 
ATOM     22  C   UNL     1       1.868   9.214  18.111  0.00  0.00    +0.000 A 
ENDBRANCH  14  16
ENDBRANCH  11  14
ENDBRANCH   1  11
BRANCH  10  23
ATOM     23  N   UNL     1      -2.211  12.983  19.662  0.00  0.00    +0.000 N 
ATOM     24  H   UNL     1      -2.515  12.427  18.872  0.00  0.00    +0.000 HD
BRANCH  23  25
ATOM     25  C   UNL     1      -2.985  12.764  20.842  0.00  0.00    +0.000 A 
ATOM     26  C   UNL     1      -2.359  12.536  22.088  0.00  0.00    +0.000 A 
ATOM     27  C   UNL     1      -3.043  12.556  23.300  0.00  0.00    +0.000 A 
ATOM     28  C   UNL     1      -4.395  12.823  23.303  0.00  0.00    +0.000 A 
ATOM     29  C   UNL     1      -5.061  12.979  22.085  0.00  0.00    +0.000 A 
ATOM     30  C   UNL     1      -4.403  12.907  20.830  0.00  0.00    +0.000 A 
BRANCH  30  31
ATOM     31  N   UNL     1      -5.158  12.866  19.652  0.00  0.00    +0.000 N 
ATOM     32  C   UNL     1      -5.143  11.622  18.861  0.00  0.00    +0.000 C 
ATOM     33  C   UNL     1      -5.316  11.963  17.384  0.00  0.00    +0.000 C 
ATOM     34  C   UNL     1      -6.545  12.836  17.141  0.00  0.00    +0.000 C 
ATOM     35  C   UNL     1      -6.587  14.034  18.094  0.00  0.00    +0.000 C 
ATOM     36  C   UNL     1      -6.431  13.585  19.551  0.00  0.00    +0.000 C 
ENDBRANCH  30  31
ENDBRANCH  23  25
ENDBRANCH  10  23
TORSDOF 6
ENDMDL
MODEL 8
REMARK VINA RESULT:      -7.6      3.014      6.303
REMARK  Name = 
REMARK  6 active torsions:
REMARK  status: ('A' for Active; 'I' for Inactive)
REMARK    1  A    between atoms: S_2  and  N_4
REMARK    2  A    between atoms: S_2  and  C_28
REMARK    3  A    between atoms: N_4  and  C_5
REMARK    4  A    between atoms: C_14  and  N_15
REMARK    5  A    between atoms: N_15  and  C_16
REMARK    6  A    between atoms: C_21  and  N_22
REMARK                            x       y       z     vdW  Elec       q    Type
REMARK                         _______ _______ _______ _____ _____    ______ ____
ROOT
ATOM      1  C   UNL     1       0.955   8.898  20.144  0.00  0.00    +0.000 A 
ATOM      2  N   UNL     1       1.411   7.730  20.651  0.00  0.00    +0.000 NA
ATOM      3  C   UNL     1       2.210   6.997  19.846  0.00  0.00    +0.000 A 
ATOM      4  C   UNL     1       2.709   5.762  20.248  0.00  0.00    +0.000 A 
ATOM      5  C   UNL     1       3.517   4.988  19.404  0.00  0.00    +0.000 A 
ATOM      6  C   UNL     1       3.832   5.450  18.134  0.00  0.00    +0.000 A 
ATOM      7  C   UNL     1       3.342   6.685  17.721  0.00  0.00    +0.000 A 
ATOM      8  C   UNL     1       2.551   7.455  18.559  0.00  0.00    +0.000 A 
ATOM      9  N   UNL     1       2.101   8.623  18.097  0.00  0.00    +0.000 NA
ATOM     10  C   UNL     1       1.268   9.369  18.852  0.00  0.00    +0.000 A 
ENDROOT
BRANCH   1  11
ATOM     11  N   UNL     1      -0.018   9.501  20.966  0.00  0.00    +0.000 N 
ATOM     12  H   UNL     1      -0.992   9.492  20.687  0.00  0.00    +0.000 HD
BRANCH  11  14
ATOM     13  O   UNL     1       0.417   9.575  23.446  0.00  0.00    +0.000 OA
ATOM     14  S   UNL     1       0.460  10.406  22.263  0.00  0.00    +0.000 S 
ATOM     15  O   UNL     1       1.700  11.044  21.860  0.00  0.00    +0.000 OA
BRANCH  14  16
ATOM     16  C   UNL     1      -0.766  11.693  22.434  0.00  0.00    +0.000 A 
ATOM     17  C   UNL     1      -1.991  11.398  23.044  0.00  0.00    +0.000 A 
ATOM     18  C   UNL     1      -2.933  12.413  23.242  0.00  0.00    +0.000 A 
ATOM     19  C   UNL     1      -2.641  13.719  22.851  0.00  0.00    +0.000 A 
ATOM     20 CL   UNL     1      -3.806  14.962  23.094  0.00  0.00    +0.000 Cl
ATOM     21  C   UNL     1      -1.409  14.025  22.271  0.00  0.00    +0.000 A 
ATOM     22  C   UNL     1      -0.464  13.011  22.066  0.00  0.00    +0.000 A 
ENDBRANCH  14  16
ENDBRANCH  11  14
ENDBRANCH   1  11
BRANCH  10  23
ATOM     23  N   UNL     1       0.600  10.456  18.251  0.00  0.00    +0.000 N 
ATOM     24  H   UNL     1      -0.154  10.226  17.615  0.00  0.00    +0.000 HD
BRANCH  23  25
ATOM     25  C   UNL     1       0.642  11.839  18.606  0.00  0.00    +0.000 A 
ATOM     26  C   UNL     1       1.860  12.458  18.966  0.00  0.00    +0.000 A 
ATOM     27  C   UNL     1       2.008  13.837  19.086  0.00  0.00    +0.000 A 
ATOM     28  C   UNL     1       0.927  14.652  18.830  0.00  0.00    +0.000 A 
ATOM     29  C   UNL     1      -0.310  14.072  18.545  0.00  0.00    +0.000 A 
ATOM     30  C   UNL     1      -0.509  12.669  18.472  0.00  0.00    +0.000 A 
BRANCH  30  31
ATOM     31  N   UNL     1      -1.808  12.155  18.387  0.00  0.00    +0.000 N 
ATOM     32  C   UNL     1      -2.869  12.818  19.167  0.00  0.00    +0.000 C 
ATOM     33  C   UNL     1      -3.915  11.784  19.572  0.00  0.00    +0.000 C 
ATOM     34  C   UNL     1      -4.431  10.994  18.371  0.00  0.00    +0.000 C 
ATOM     35  C   UNL     1      -3.284  10.455  17.512  0.00  0.00    +0.000 C 
ATOM     36  C   UNL     1      -2.303  11.572  17.137  0.00  0.00    +0.000 C 
ENDBRANCH  30  31
ENDBRANCH  23  25
ENDBRANCH  10  23
TORSDOF 6
ENDMDL
MODEL 9
REMARK VINA RESULT:      -7.5      1.634      5.384
REMARK  Name = 
REMARK  6 active torsions:
REMARK  status: ('A' for Active; 'I' for Inactive)
REMARK    1  A    between atoms: S_2  and  N_4
REMARK    2  A    between atoms: S_2  and  C_28
REMARK    3  A    between atoms: N_4  and  C_5
REMARK    4  A    between atoms: C_14  and  N_15
REMARK    5  A    between atoms: N_15  and  C_16
REMARK    6  A    between atoms: C_21  and  N_22
REMARK                            x       y       z     vdW  Elec       q    Type
REMARK                         _______ _______ _______ _____ _____    ______ ____
ROOT
ATOM      1  C   UNL     1       0.605  12.698  20.474  0.00  0.00    +0.000 A 
ATOM      2  N   UNL     1       1.700  13.285  21.007  0.00  0.00    +0.000 NA
ATOM      3  C   UNL     1       1.555  14.562  21.422  0.00  0.00    +0.000 A 
ATOM      4  C   UNL     1       2.623  15.278  21.954  0.00  0.00    +0.000 A 
ATOM      5  C   UNL     1       2.480  16.612  22.361  0.00  0.00    +0.000 A 
ATOM      6  C   UNL     1       1.253  17.247  22.233  0.00  0.00    +0.000 A 
ATOM      7  C   UNL     1       0.177  16.541  21.705  0.00  0.00    +0.000 A 
ATOM      8  C   UNL     1       0.314  15.219  21.311  0.00  0.00    +0.000 A 
ATOM      9  N   UNL     1      -0.753  14.603  20.800  0.00  0.00    +0.000 NA
ATOM     10  C   UNL     1      -0.643  13.341  20.336  0.00  0.00    +0.000 A 
ENDROOT
BRANCH   1  11
ATOM     11  N   UNL     1       0.892  11.445  19.894  0.00  0.00    +0.000 N 
ATOM     12  H   UNL     1       1.127  11.385  18.911  0.00  0.00    +0.000 HD
BRANCH  11  14
ATOM     13  O   UNL     1       1.253  10.211  22.060  0.00  0.00    +0.000 OA
ATOM     14  S   UNL     1       0.626  10.066  20.765  0.00  0.00    +0.000 S 
ATOM     15  O   UNL     1      -0.799   9.808  20.665  0.00  0.00    +0.000 OA
BRANCH  14  16
ATOM     16  C   UNL     1       1.463   8.763  19.876  0.00  0.00    +0.000 A 
ATOM     17  C   UNL     1       1.729   7.551  20.525  0.00  0.00    +0.000 A 
ATOM     18  C   UNL     1       2.326   6.501  19.820  0.00  0.00    +0.000 A 
ATOM     19  C   UNL     1       2.633   6.655  18.469  0.00  0.00    +0.000 A 
ATOM     20 CL   UNL     1       3.371   5.360  17.608  0.00  0.00    +0.000 Cl
ATOM     21  C   UNL     1       2.342   7.851  17.810  0.00  0.00    +0.000 A 
ATOM     22  C   UNL     1       1.748   8.908  18.512  0.00  0.00    +0.000 A 
ENDBRANCH  14  16
ENDBRANCH  11  14
ENDBRANCH   1  11
BRANCH  10  23
ATOM     23  N   UNL     1      -1.698  12.807  19.567  0.00  0.00    +0.000 N 
ATOM     24  H   UNL     1      -1.444  12.402  18.674  0.00  0.00    +0.000 HD
BRANCH  23  25
ATOM     25  C   UNL     1      -3.035  12.506  19.967  0.00  0.00    +0.000 A 
ATOM     26  C   UNL     1      -3.516  12.898  21.237  0.00  0.00    +0.000 A 
ATOM     27  C   UNL     1      -4.862  12.850  21.590  0.00  0.00    +0.000 A 
ATOM     28  C   UNL     1      -5.784  12.415  20.662  0.00  0.00    +0.000 A 
ATOM     29  C   UNL     1      -5.336  11.950  19.424  0.00  0.00    +0.000 A 
ATOM     30  C   UNL     1      -3.966  11.931  19.054  0.00  0.00    +0.000 A 
BRANCH  30  31
ATOM     31  N   UNL     1      -3.570  11.266  17.889  0.00  0.00    +0.000 N 
ATOM     32  C   UNL     1      -2.914   9.953  18.028  0.00  0.00    +0.000 C 
ATOM     33  C   UNL     1      -1.926   9.760  16.881  0.00  0.00    +0.000 C 
ATOM     34  C   UNL     1      -2.584   9.983  15.520  0.00  0.00    +0.000 C 
ATOM     35  C   UNL     1      -3.378  11.291  15.481  0.00  0.00    +0.000 C 
ATOM     36  C   UNL     1      -4.357  11.377  16.657  0.00  0.00    +0.000 C 
ENDBRANCH  30  31
ENDBRANCH  23  25
ENDBRANCH  10  23
TORSDOF 6
ENDMDL
