MODEL 1
REMARK VINA RESULT:      -7.6      0.000      0.000
REMARK  Name = 
REMARK  19 active torsions:
REMARK  status: ('A' for Active; 'I' for Inactive)
REMARK    1  A    between atoms: C_1  and  O_2
REMARK    2  A    between atoms: O_2  and  C_3
REMARK    3  A    between atoms: C_3  and  C_4
REMARK    4  A    between atoms: C_4  and  C_5
REMARK    5  A    between atoms: C_5  and  O_6
REMARK    6  A    between atoms: O_6  and  C_7
REMARK    7  A    between atoms: C_9  and  C_10
REMARK    8  A    between atoms: N_12  and  C_13
REMARK    9  A    between atoms: N_12  and  C_26
REMARK   10  A    between atoms: C_13  and  C_14
REMARK   11  A    between atoms: C_18  and  N_19
REMARK   12  A    between atoms: C_20  and  O_22
REMARK   13  A    between atoms: O_22  and  C_23
REMARK   14  A    between atoms: C_23  and  C_24
REMARK   15  A    between atoms: C_23  and  C_25
REMARK   16  A    between atoms: C_26  and  C_27
REMARK   17  A    between atoms: C_26  and  C_28
REMARK   18  A    between atoms: C_31  and  O_32
REMARK   19  A    between atoms: O_32  and  C_33
REMARK                            x       y       z     vdW  Elec       q    Type
REMARK                         _______ _______ _______ _____ _____    ______ ____
ROOT
ATOM      1  C   UNL     1       2.901   6.719  18.347  0.00  0.00    +0.000 C 
ATOM      2  O   UNL     1       3.652   7.165  17.488  0.00  0.00    +0.000 OA
ATOM      3  N   UNL     1       2.800   5.320  18.608  0.00  0.00    +0.000 N 
ENDROOT
BRANCH   1   6
ATOM      4  C   UNL     1       0.687   9.755  19.128  0.00  0.00    +0.000 A 
ATOM      5  C   UNL     1       1.341   8.714  18.442  0.00  0.00    +0.000 A 
ATOM      6  C   UNL     1       2.056   7.709  19.098  0.00  0.00    +0.000 A 
ATOM      7  C   UNL     1       1.927   7.626  20.484  0.00  0.00    +0.000 A 
ATOM      8  C   UNL     1       1.271   8.648  21.192  0.00  0.00    +0.000 A 
ATOM      9  C   UNL     1       0.721   9.760  20.531  0.00  0.00    +0.000 A 
BRANCH   9  10
ATOM     10  O   UNL     1       0.110  10.673  21.348  0.00  0.00    +0.000 OA
ATOM     11  C   UNL     1      -0.324  10.193  22.621  0.00  0.00    +0.000 C 
ENDBRANCH   9  10
BRANCH   4  12
ATOM     12  O   UNL     1       0.002  10.756  18.469  0.00  0.00    +0.000 OA
BRANCH  12  13
ATOM     13  C   UNL     1      -1.425  10.616  18.514  0.00  0.00    +0.000 C 
BRANCH  13  14
ATOM     14  C   UNL     1      -2.012  10.325  17.138  0.00  0.00    +0.000 C 
BRANCH  14  15
ATOM     15  C   UNL     1      -3.282  11.147  16.918  0.00  0.00    +0.000 C 
BRANCH  15  17
ATOM     16  C   UNL     1      -2.969  10.130  14.801  0.00  0.00    +0.000 C 
ATOM     17  O   UNL     1      -3.579  11.192  15.521  0.00  0.00    +0.000 OA
ENDBRANCH  15  17
ENDBRANCH  14  15
ENDBRANCH  13  14
ENDBRANCH  12  13
ENDBRANCH   4  12
ENDBRANCH   1   6
BRANCH   3  18
ATOM     18  C   UNL     1       1.831   4.728  19.562  0.00  0.00    +0.000 C 
ATOM     19  C   UNL     1       1.031   3.557  18.999  0.00  0.00    +0.000 C 
ATOM     20  C   UNL     1       2.483   4.379  20.902  0.00  0.00    +0.000 C 
ENDBRANCH   3  18
BRANCH   3  21
ATOM     21  C   UNL     1       3.663   4.399  17.809  0.00  0.00    +0.000 C 
BRANCH  21  22
ATOM     22  C   UNL     1       5.111   4.285  18.308  0.00  0.00    +0.000 C 
ATOM     23  C   UNL     1       5.399   5.258  19.452  0.00  0.00    +0.000 C 
ATOM     24  N   UNL     1       6.863   5.247  19.606  0.00  0.00    +0.000 NA
ATOM     25  C   UNL     1       7.411   4.875  18.291  0.00  0.00    +0.000 C 
ATOM     26  C   UNL     1       6.211   4.729  17.330  0.00  0.00    +0.000 C 
ATOM     27  H   UNL     1       7.120   4.539  20.293  0.00  0.00    +0.000 HD
BRANCH  26  28
ATOM     28  N   UNL     1       6.547   3.866  16.203  0.00  0.00    +0.000 N 
ATOM     29  C   UNL     1       6.065   4.228  14.961  0.00  0.00    +0.000 C 
ATOM     30  O   UNL     1       5.110   4.969  14.795  0.00  0.00    +0.000 OA
ATOM     31  H   UNL     1       7.445   3.402  16.174  0.00  0.00    +0.000 HD
BRANCH  29  32
ATOM     32  O   UNL     1       6.824   3.717  13.949  0.00  0.00    +0.000 OA
BRANCH  32  33
ATOM     33  C   UNL     1       6.297   3.973  12.621  0.00  0.00    +0.000 C 
ATOM     34  C   UNL     1       7.362   4.611  11.726  0.00  0.00    +0.000 C 
ATOM     35  C   UNL     1       5.835   2.654  12.009  0.00  0.00    +0.000 C 
ENDBRANCH  32  33
ENDBRANCH  29  32
ENDBRANCH  26  28
ENDBRANCH  21  22
ENDBRANCH   3  21
TORSDOF 13
ENDMDL
MODEL 2
REMARK VINA RESULT:      -7.3      1.113      1.256
REMARK  Name = 
REMARK  19 active torsions:
REMARK  status: ('A' for Active; 'I' for Inactive)
REMARK    1  A    between atoms: C_1  and  O_2
REMARK    2  A    between atoms: O_2  and  C_3
REMARK    3  A    between atoms: C_3  and  C_4
REMARK    4  A    between atoms: C_4  and  C_5
REMARK    5  A    between atoms: C_5  and  O_6
REMARK    6  A    between atoms: O_6  and  C_7
REMARK    7  A    between atoms: C_9  and  C_10
REMARK    8  A    between atoms: N_12  and  C_13
REMARK    9  A    between atoms: N_12  and  C_26
REMARK   10  A    between atoms: C_13  and  C_14
REMARK   11  A    between atoms: C_18  and  N_19
REMARK   12  A    between atoms: C_20  and  O_22
REMARK   13  A    between atoms: O_22  and  C_23
REMARK   14  A    between atoms: C_23  and  C_24
REMARK   15  A    between atoms: C_23  and  C_25
REMARK   16  A    between atoms: C_26  and  C_27
REMARK   17  A    between atoms: C_26  and  C_28
REMARK   18  A    between atoms: C_31  and  O_32
REMARK   19  A    between atoms: O_32  and  C_33
REMARK                            x       y       z     vdW  Elec       q    Type
REMARK                         _______ _______ _______ _____ _____    ______ ____
ROOT
ATOM      1  C   UNL     1       3.142   7.303  18.101  0.00  0.00    +0.000 C 
ATOM      2  O   UNL     1       3.966   7.986  17.505  0.00  0.00    +0.000 OA
ATOM      3  N   UNL     1       3.132   5.880  18.007  0.00  0.00    +0.000 N 
ENDROOT
BRANCH   1   6
ATOM      4  C   UNL     1       0.440   9.828  19.127  0.00  0.00    +0.000 A 
ATOM      5  C   UNL     1       1.287   9.012  18.354  0.00  0.00    +0.000 A 
ATOM      6  C   UNL     1       2.110   8.033  18.915  0.00  0.00    +0.000 A 
ATOM      7  C   UNL     1       1.915   7.719  20.259  0.00  0.00    +0.000 A 
ATOM      8  C   UNL     1       1.067   8.512  21.051  0.00  0.00    +0.000 A 
ATOM      9  C   UNL     1       0.390   9.621  20.514  0.00  0.00    +0.000 A 
BRANCH   9  10
ATOM     10  O   UNL     1      -0.403  10.299  21.402  0.00  0.00    +0.000 OA
ATOM     11  C   UNL     1      -0.293   9.913  22.772  0.00  0.00    +0.000 C 
ENDBRANCH   9  10
BRANCH   4  12
ATOM     12  O   UNL     1      -0.353  10.810  18.565  0.00  0.00    +0.000 OA
BRANCH  12  13
ATOM     13  C   UNL     1      -1.511  10.307  17.885  0.00  0.00    +0.000 C 
BRANCH  13  14
ATOM     14  C   UNL     1      -2.689  11.269  17.979  0.00  0.00    +0.000 C 
BRANCH  14  15
ATOM     15  C   UNL     1      -3.527  11.210  16.702  0.00  0.00    +0.000 C 
BRANCH  15  17
ATOM     16  C   UNL     1      -3.192  10.144  14.613  0.00  0.00    +0.000 C 
ATOM     17  O   UNL     1      -2.661  11.042  15.578  0.00  0.00    +0.000 OA
ENDBRANCH  15  17
ENDBRANCH  14  15
ENDBRANCH  13  14
ENDBRANCH  12  13
ENDBRANCH   4  12
ENDBRANCH   1   6
BRANCH   3  18
ATOM     18  C   UNL     1       2.092   5.021  18.625  0.00  0.00    +0.000 C 
ATOM     19  C   UNL     1       1.451   4.022  17.666  0.00  0.00    +0.000 C 
ATOM     20  C   UNL     1       2.592   4.343  19.903  0.00  0.00    +0.000 C 
ENDBRANCH   3  18
BRANCH   3  21
ATOM     21  C   UNL     1       4.182   5.231  17.167  0.00  0.00    +0.000 C 
BRANCH  21  22
ATOM     22  C   UNL     1       5.556   5.107  17.842  0.00  0.00    +0.000 C 
ATOM     23  C   UNL     1       5.456   5.217  19.363  0.00  0.00    +0.000 C 
ATOM     24  N   UNL     1       6.843   5.384  19.828  0.00  0.00    +0.000 NA
ATOM     25  C   UNL     1       7.580   5.997  18.709  0.00  0.00    +0.000 C 
ATOM     26  C   UNL     1       6.554   6.246  17.581  0.00  0.00    +0.000 C 
ATOM     27  H   UNL     1       7.239   4.467  20.032  0.00  0.00    +0.000 HD
BRANCH  26  28
ATOM     28  N   UNL     1       7.216   6.325  16.283  0.00  0.00    +0.000 N 
ATOM     29  C   UNL     1       7.687   5.147  15.740  0.00  0.00    +0.000 C 
ATOM     30  O   UNL     1       7.923   4.146  16.395  0.00  0.00    +0.000 OA
ATOM     31  H   UNL     1       6.898   6.995  15.595  0.00  0.00    +0.000 HD
BRANCH  29  32
ATOM     32  O   UNL     1       7.790   5.215  14.380  0.00  0.00    +0.000 OA
BRANCH  32  33
ATOM     33  C   UNL     1       6.619   4.733  13.669  0.00  0.00    +0.000 C 
ATOM     34  C   UNL     1       7.002   4.210  12.283  0.00  0.00    +0.000 C 
ATOM     35  C   UNL     1       5.975   3.612  14.481  0.00  0.00    +0.000 C 
ENDBRANCH  32  33
ENDBRANCH  29  32
ENDBRANCH  26  28
ENDBRANCH  21  22
ENDBRANCH   3  21
TORSDOF 13
ENDMDL
MODEL 3
REMARK VINA RESULT:      -7.2      1.904      2.501
REMARK  Name = 
REMARK  19 active torsions:
REMARK  status: ('A' for Active; 'I' for Inactive)
REMARK    1  A    between atoms: C_1  and  O_2
REMARK    2  A    between atoms: O_2  and  C_3
REMARK    3  A    between atoms: C_3  and  C_4
REMARK    4  A    between atoms: C_4  and  C_5
REMARK    5  A    between atoms: C_5  and  O_6
REMARK    6  A    between atoms: O_6  and  C_7
REMARK    7  A    between atoms: C_9  and  C_10
REMARK    8  A    between atoms: N_12  and  C_13
REMARK    9  A    between atoms: N_12  and  C_26
REMARK   10  A    between atoms: C_13  and  C_14
REMARK   11  A    between atoms: C_18  and  N_19
REMARK   12  A    between atoms: C_20  and  O_22
REMARK   13  A    between atoms: O_22  and  C_23
REMARK   14  A    between atoms: C_23  and  C_24
REMARK   15  A    between atoms: C_23  and  C_25
REMARK   16  A    between atoms: C_26  and  C_27
REMARK   17  A    between atoms: C_26  and  C_28
REMARK   18  A    between atoms: C_31  and  O_32
REMARK   19  A    between atoms: O_32  and  C_33
REMARK                            x       y       z     vdW  Elec       q    Type
REMARK                         _______ _______ _______ _____ _____    ______ ____
ROOT
ATOM      1  C   UNL     1       2.756   6.914  18.552  0.00  0.00    +0.000 C 
ATOM      2  O   UNL     1       3.426   7.404  17.650  0.00  0.00    +0.000 OA
ATOM      3  N   UNL     1       2.676   5.504  18.751  0.00  0.00    +0.000 N 
ENDROOT
BRANCH   1   6
ATOM      4  C   UNL     1       0.850  10.025  19.744  0.00  0.00    +0.000 A 
ATOM      5  C   UNL     1       1.421   9.037  18.919  0.00  0.00    +0.000 A 
ATOM      6  C   UNL     1       1.986   7.864  19.426  0.00  0.00    +0.000 A 
ATOM      7  C   UNL     1       1.777   7.578  20.774  0.00  0.00    +0.000 A 
ATOM      8  C   UNL     1       1.200   8.543  21.617  0.00  0.00    +0.000 A 
ATOM      9  C   UNL     1       0.811   9.803  21.129  0.00  0.00    +0.000 A 
BRANCH   9  10
ATOM     10  O   UNL     1       0.262  10.639  22.064  0.00  0.00    +0.000 OA
ATOM     11  C   UNL     1      -0.511  10.020  23.092  0.00  0.00    +0.000 C 
ENDBRANCH   9  10
BRANCH   4  12
ATOM     12  O   UNL     1       0.314  11.192  19.235  0.00  0.00    +0.000 OA
BRANCH  12  13
ATOM     13  C   UNL     1       1.248  12.276  19.153  0.00  0.00    +0.000 C 
BRANCH  13  14
ATOM     14  C   UNL     1       0.562  13.630  19.293  0.00  0.00    +0.000 C 
BRANCH  14  15
ATOM     15  C   UNL     1       1.504  14.751  18.853  0.00  0.00    +0.000 C 
BRANCH  15  17
ATOM     16  C   UNL     1       3.567  15.145  17.756  0.00  0.00    +0.000 C 
ATOM     17  O   UNL     1       2.543  14.202  18.040  0.00  0.00    +0.000 OA
ENDBRANCH  15  17
ENDBRANCH  14  15
ENDBRANCH  13  14
ENDBRANCH  12  13
ENDBRANCH   4  12
ENDBRANCH   1   6
BRANCH   3  18
ATOM     18  C   UNL     1       1.798   4.863  19.760  0.00  0.00    +0.000 C 
ATOM     19  C   UNL     1       0.974   3.695  19.225  0.00  0.00    +0.000 C 
ATOM     20  C   UNL     1       2.562   4.485  21.031  0.00  0.00    +0.000 C 
ENDBRANCH   3  18
BRANCH   3  21
ATOM     21  C   UNL     1       3.459   4.626  17.832  0.00  0.00    +0.000 C 
BRANCH  21  22
ATOM     22  C   UNL     1       4.907   4.367  18.272  0.00  0.00    +0.000 C 
ATOM     23  C   UNL     1       5.360   5.350  19.352  0.00  0.00    +0.000 C 
ATOM     24  N   UNL     1       6.819   5.177  19.443  0.00  0.00    +0.000 NA
ATOM     25  C   UNL     1       7.256   4.685  18.126  0.00  0.00    +0.000 C 
ATOM     26  C   UNL     1       6.001   4.636  17.226  0.00  0.00    +0.000 C 
ATOM     27  H   UNL     1       7.027   4.475  20.153  0.00  0.00    +0.000 HD
BRANCH  26  28
ATOM     28  N   UNL     1       6.182   3.689  16.131  0.00  0.00    +0.000 N 
ATOM     29  C   UNL     1       5.842   4.115  14.863  0.00  0.00    +0.000 C 
ATOM     30  O   UNL     1       5.083   5.044  14.641  0.00  0.00    +0.000 OA
ATOM     31  H   UNL     1       6.955   3.037  16.151  0.00  0.00    +0.000 HD
BRANCH  29  32
ATOM     32  O   UNL     1       6.508   3.421  13.895  0.00  0.00    +0.000 OA
BRANCH  32  33
ATOM     33  C   UNL     1       6.142   3.790  12.539  0.00  0.00    +0.000 C 
ATOM     34  C   UNL     1       7.317   4.458  11.821  0.00  0.00    +0.000 C 
ATOM     35  C   UNL     1       5.725   2.533  11.780  0.00  0.00    +0.000 C 
ENDBRANCH  32  33
ENDBRANCH  29  32
ENDBRANCH  26  28
ENDBRANCH  21  22
ENDBRANCH   3  21
TORSDOF 13
ENDMDL
MODEL 4
REMARK VINA RESULT:      -7.1      2.030      3.746
REMARK  Name = 
REMARK  19 active torsions:
REMARK  status: ('A' for Active; 'I' for Inactive)
REMARK    1  A    between atoms: C_1  and  O_2
REMARK    2  A    between atoms: O_2  and  C_3
REMARK    3  A    between atoms: C_3  and  C_4
REMARK    4  A    between atoms: C_4  and  C_5
REMARK    5  A    between atoms: C_5  and  O_6
REMARK    6  A    between atoms: O_6  and  C_7
REMARK    7  A    between atoms: C_9  and  C_10
REMARK    8  A    between atoms: N_12  and  C_13
REMARK    9  A    between atoms: N_12  and  C_26
REMARK   10  A    between atoms: C_13  and  C_14
REMARK   11  A    between atoms: C_18  and  N_19
REMARK   12  A    between atoms: C_20  and  O_22
REMARK   13  A    between atoms: O_22  and  C_23
REMARK   14  A    between atoms: C_23  and  C_24
REMARK   15  A    between atoms: C_23  and  C_25
REMARK   16  A    between atoms: C_26  and  C_27
REMARK   17  A    between atoms: C_26  and  C_28
REMARK   18  A    between atoms: C_31  and  O_32
REMARK   19  A    between atoms: O_32  and  C_33
REMARK                            x       y       z     vdW  Elec       q    Type
REMARK                         _______ _______ _______ _____ _____    ______ ____
ROOT
ATOM      1  C   UNL     1       1.187   8.542  20.633  0.00  0.00    +0.000 C 
ATOM      2  O   UNL     1       1.009   8.042  21.737  0.00  0.00    +0.000 OA
ATOM      3  N   UNL     1       1.988   7.908  19.638  0.00  0.00    +0.000 N 
ENDROOT
BRANCH   1   6
ATOM      4  C   UNL     1      -1.254  11.228  19.385  0.00  0.00    +0.000 A 
ATOM      5  C   UNL     1      -0.713   9.995  19.794  0.00  0.00    +0.000 A 
ATOM      6  C   UNL     1       0.551   9.880  20.378  0.00  0.00    +0.000 A 
ATOM      7  C   UNL     1       1.193  11.057  20.760  0.00  0.00    +0.000 A 
ATOM      8  C   UNL     1       0.669  12.302  20.373  0.00  0.00    +0.000 A 
ATOM      9  C   UNL     1      -0.509  12.396  19.613  0.00  0.00    +0.000 A 
BRANCH   9  10
ATOM     10  O   UNL     1      -0.902  13.674  19.312  0.00  0.00    +0.000 OA
ATOM     11  C   UNL     1      -0.192  14.725  19.967  0.00  0.00    +0.000 C 
ENDBRANCH   9  10
BRANCH   4  12
ATOM     12  O   UNL     1      -2.495  11.329  18.788  0.00  0.00    +0.000 OA
BRANCH  12  13
ATOM     13  C   UNL     1      -2.790  10.266  17.872  0.00  0.00    +0.000 C 
BRANCH  13  14
ATOM     14  C   UNL     1      -3.762  10.705  16.784  0.00  0.00    +0.000 C 
BRANCH  14  15
ATOM     15  C   UNL     1      -3.001  11.106  15.521  0.00  0.00    +0.000 C 
BRANCH  15  17
ATOM     16  C   UNL     1      -3.830   9.920  13.645  0.00  0.00    +0.000 C 
ATOM     17  O   UNL     1      -2.853   9.964  14.676  0.00  0.00    +0.000 OA
ENDBRANCH  15  17
ENDBRANCH  14  15
ENDBRANCH  13  14
ENDBRANCH  12  13
ENDBRANCH   4  12
ENDBRANCH   1   6
BRANCH   3  18
ATOM     18  C   UNL     1       2.317   8.524  18.328  0.00  0.00    +0.000 C 
ATOM     19  C   UNL     1       3.436   7.821  17.566  0.00  0.00    +0.000 C 
ATOM     20  C   UNL     1       1.073   8.723  17.458  0.00  0.00    +0.000 C 
ENDBRANCH   3  18
BRANCH   3  21
ATOM     21  C   UNL     1       2.597   6.587  19.973  0.00  0.00    +0.000 C 
BRANCH  21  22
ATOM     22  C   UNL     1       1.788   5.370  19.500  0.00  0.00    +0.000 C 
ATOM     23  C   UNL     1       1.130   4.634  20.668  0.00  0.00    +0.000 C 
ATOM     24  N   UNL     1       0.664   3.358  20.103  0.00  0.00    +0.000 NA
ATOM     25  C   UNL     1       1.539   3.073  18.953  0.00  0.00    +0.000 C 
ATOM     26  C   UNL     1       2.590   4.205  18.899  0.00  0.00    +0.000 C 
ATOM     27  H   UNL     1      -0.296   3.468  19.778  0.00  0.00    +0.000 HD
BRANCH  26  28
ATOM     28  N   UNL     1       3.139   4.342  17.555  0.00  0.00    +0.000 N 
ATOM     29  C   UNL     1       4.495   4.131  17.400  0.00  0.00    +0.000 C 
ATOM     30  O   UNL     1       5.301   4.208  18.313  0.00  0.00    +0.000 OA
ATOM     31  H   UNL     1       2.588   4.064  16.754  0.00  0.00    +0.000 HD
BRANCH  29  32
ATOM     32  O   UNL     1       4.813   3.761  16.126  0.00  0.00    +0.000 OA
BRANCH  32  33
ATOM     33  C   UNL     1       5.893   4.530  15.534  0.00  0.00    +0.000 C 
ATOM     34  C   UNL     1       6.336   3.911  14.206  0.00  0.00    +0.000 C 
ATOM     35  C   UNL     1       5.413   5.959  15.299  0.00  0.00    +0.000 C 
ENDBRANCH  32  33
ENDBRANCH  29  32
ENDBRANCH  26  28
ENDBRANCH  21  22
ENDBRANCH   3  21
TORSDOF 13
ENDMDL
MODEL 5
REMARK VINA RESULT:      -7.1      1.389      1.889
REMARK  Name = 
REMARK  19 active torsions:
REMARK  status: ('A' for Active; 'I' for Inactive)
REMARK    1  A    between atoms: C_1  and  O_2
REMARK    2  A    between atoms: O_2  and  C_3
REMARK    3  A    between atoms: C_3  and  C_4
REMARK    4  A    between atoms: C_4  and  C_5
REMARK    5  A    between atoms: C_5  and  O_6
REMARK    6  A    between atoms: O_6  and  C_7
REMARK    7  A    between atoms: C_9  and  C_10
REMARK    8  A    between atoms: N_12  and  C_13
REMARK    9  A    between atoms: N_12  and  C_26
REMARK   10  A    between atoms: C_13  and  C_14
REMARK   11  A    between atoms: C_18  and  N_19
REMARK   12  A    between atoms: C_20  and  O_22
REMARK   13  A    between atoms: O_22  and  C_23
REMARK   14  A    between atoms: C_23  and  C_24
REMARK   15  A    between atoms: C_23  and  C_25
REMARK   16  A    between atoms: C_26  and  C_27
REMARK   17  A    between atoms: C_26  and  C_28
REMARK   18  A    between atoms: C_31  and  O_32
REMARK   19  A    between atoms: O_32  and  C_33
REMARK                            x       y       z     vdW  Elec       q    Type
REMARK                         _______ _______ _______ _____ _____    ______ ____
ROOT
ATOM      1  C   UNL     1       2.807   6.947  18.628  0.00  0.00    +0.000 C 
ATOM      2  O   UNL     1       3.512   7.427  17.748  0.00  0.00    +0.000 OA
ATOM      3  N   UNL     1       2.701   5.539  18.824  0.00  0.00    +0.000 N 
ENDROOT
BRANCH   1   6
ATOM      4  C   UNL     1       0.831  10.046  19.732  0.00  0.00    +0.000 A 
ATOM      5  C   UNL     1       1.417   9.044  18.937  0.00  0.00    +0.000 A 
ATOM      6  C   UNL     1       2.025   7.909  19.478  0.00  0.00    +0.000 A 
ATOM      7  C   UNL     1       1.845   7.669  20.840  0.00  0.00    +0.000 A 
ATOM      8  C   UNL     1       1.255   8.650  21.655  0.00  0.00    +0.000 A 
ATOM      9  C   UNL     1       0.821   9.877  21.126  0.00  0.00    +0.000 A 
BRANCH   9  10
ATOM     10  O   UNL     1       0.263  10.734  22.037  0.00  0.00    +0.000 OA
ATOM     11  C   UNL     1      -0.649  10.157  22.972  0.00  0.00    +0.000 C 
ENDBRANCH   9  10
BRANCH   4  12
ATOM     12  O   UNL     1       0.253  11.177  19.189  0.00  0.00    +0.000 OA
BRANCH  12  13
ATOM     13  C   UNL     1      -1.019  10.942  18.569  0.00  0.00    +0.000 C 
BRANCH  13  14
ATOM     14  C   UNL     1      -2.148  11.658  19.300  0.00  0.00    +0.000 C 
BRANCH  14  15
ATOM     15  C   UNL     1      -1.645  12.970  19.902  0.00  0.00    +0.000 C 
BRANCH  15  17
ATOM     16  C   UNL     1      -3.411  12.713  21.460  0.00  0.00    +0.000 C 
ATOM     17  O   UNL     1      -2.042  13.044  21.272  0.00  0.00    +0.000 OA
ENDBRANCH  15  17
ENDBRANCH  14  15
ENDBRANCH  13  14
ENDBRANCH  12  13
ENDBRANCH   4  12
ENDBRANCH   1   6
BRANCH   3  18
ATOM     18  C   UNL     1       1.782   4.910  19.805  0.00  0.00    +0.000 C 
ATOM     19  C   UNL     1       0.947   3.765  19.240  0.00  0.00    +0.000 C 
ATOM     20  C   UNL     1       2.504   4.507  21.092  0.00  0.00    +0.000 C 
ENDBRANCH   3  18
BRANCH   3  21
ATOM     21  C   UNL     1       3.499   4.649  17.929  0.00  0.00    +0.000 C 
BRANCH  21  22
ATOM     22  C   UNL     1       4.946   4.414  18.386  0.00  0.00    +0.000 C 
ATOM     23  C   UNL     1       5.375   5.412  19.462  0.00  0.00    +0.000 C 
ATOM     24  N   UNL     1       6.835   5.258  19.569  0.00  0.00    +0.000 NA
ATOM     25  C   UNL     1       7.292   4.761  18.260  0.00  0.00    +0.000 C 
ATOM     26  C   UNL     1       6.047   4.688  17.349  0.00  0.00    +0.000 C 
ATOM     27  H   UNL     1       7.045   4.566  20.287  0.00  0.00    +0.000 HD
BRANCH  26  28
ATOM     28  N   UNL     1       6.251   3.735  16.263  0.00  0.00    +0.000 N 
ATOM     29  C   UNL     1       5.882   4.131  14.994  0.00  0.00    +0.000 C 
ATOM     30  O   UNL     1       5.086   5.028  14.769  0.00  0.00    +0.000 OA
ATOM     31  H   UNL     1       7.048   3.112  16.282  0.00  0.00    +0.000 HD
BRANCH  29  32
ATOM     32  O   UNL     1       6.563   3.450  14.027  0.00  0.00    +0.000 OA
BRANCH  32  33
ATOM     33  C   UNL     1       6.493   4.057  12.710  0.00  0.00    +0.000 C 
ATOM     34  C   UNL     1       7.676   5.001  12.483  0.00  0.00    +0.000 C 
ATOM     35  C   UNL     1       6.507   2.955  11.655  0.00  0.00    +0.000 C 
ENDBRANCH  32  33
ENDBRANCH  29  32
ENDBRANCH  26  28
ENDBRANCH  21  22
ENDBRANCH   3  21
TORSDOF 13
ENDMDL
MODEL 6
REMARK VINA RESULT:      -7.0      3.083     10.153
REMARK  Name = 
REMARK  19 active torsions:
REMARK  status: ('A' for Active; 'I' for Inactive)
REMARK    1  A    between atoms: C_1  and  O_2
REMARK    2  A    between atoms: O_2  and  C_3
REMARK    3  A    between atoms: C_3  and  C_4
REMARK    4  A    between atoms: C_4  and  C_5
REMARK    5  A    between atoms: C_5  and  O_6
REMARK    6  A    between atoms: O_6  and  C_7
REMARK    7  A    between atoms: C_9  and  C_10
REMARK    8  A    between atoms: N_12  and  C_13
REMARK    9  A    between atoms: N_12  and  C_26
REMARK   10  A    between atoms: C_13  and  C_14
REMARK   11  A    between atoms: C_18  and  N_19
REMARK   12  A    between atoms: C_20  and  O_22
REMARK   13  A    between atoms: O_22  and  C_23
REMARK   14  A    between atoms: C_23  and  C_24
REMARK   15  A    between atoms: C_23  and  C_25
REMARK   16  A    between atoms: C_26  and  C_27
REMARK   17  A    between atoms: C_26  and  C_28
REMARK   18  A    between atoms: C_31  and  O_32
REMARK   19  A    between atoms: O_32  and  C_33
REMARK                            x       y       z     vdW  Elec       q    Type
REMARK                         _______ _______ _______ _____ _____    ______ ____
ROOT
ATOM      1  C   UNL     1       2.181   8.035  18.492  0.00  0.00    +0.000 C 
ATOM      2  O   UNL     1       2.376   8.532  17.389  0.00  0.00    +0.000 OA
ATOM      3  N   UNL     1       1.519   8.749  19.534  0.00  0.00    +0.000 N 
ENDROOT
BRANCH   1   6
ATOM      4  C   UNL     1       4.569   5.123  19.228  0.00  0.00    +0.000 A 
ATOM      5  C   UNL     1       4.001   6.409  19.176  0.00  0.00    +0.000 A 
ATOM      6  C   UNL     1       2.702   6.644  18.717  0.00  0.00    +0.000 A 
ATOM      7  C   UNL     1       1.881   5.536  18.513  0.00  0.00    +0.000 A 
ATOM      8  C   UNL     1       2.422   4.240  18.568  0.00  0.00    +0.000 A 
ATOM      9  C   UNL     1       3.784   4.026  18.841  0.00  0.00    +0.000 A 
BRANCH   9  10
ATOM     10  O   UNL     1       4.168   2.711  18.866  0.00  0.00    +0.000 OA
ATOM     11  C   UNL     1       3.389   1.809  18.080  0.00  0.00    +0.000 C 
ENDBRANCH   9  10
BRANCH   4  12
ATOM     12  O   UNL     1       5.862   4.903  19.661  0.00  0.00    +0.000 OA
BRANCH  12  13
ATOM     13  C   UNL     1       6.848   5.694  18.982  0.00  0.00    +0.000 C 
BRANCH  13  14
ATOM     14  C   UNL     1       7.704   4.853  18.043  0.00  0.00    +0.000 C 
BRANCH  14  15
ATOM     15  C   UNL     1       6.910   4.482  16.790  0.00  0.00    +0.000 C 
BRANCH  15  17
ATOM     16  C   UNL     1       7.029   4.899  14.461  0.00  0.00    +0.000 C 
ATOM     17  O   UNL     1       7.755   4.598  15.644  0.00  0.00    +0.000 OA
ENDBRANCH  15  17
ENDBRANCH  14  15
ENDBRANCH  13  14
ENDBRANCH  12  13
ENDBRANCH   4  12
ENDBRANCH   1   6
BRANCH   3  18
ATOM     18  C   UNL     1       1.353   8.228  20.913  0.00  0.00    +0.000 C 
ATOM     19  C   UNL     1       1.596   9.263  22.009  0.00  0.00    +0.000 C 
ATOM     20  C   UNL     1       0.016   7.507  21.099  0.00  0.00    +0.000 C 
ENDBRANCH   3  18
BRANCH   3  21
ATOM     21  C   UNL     1       1.042  10.132  19.236  0.00  0.00    +0.000 C 
BRANCH  21  22
ATOM     22  C   UNL     1      -0.484  10.280  19.152  0.00  0.00    +0.000 C 
ATOM     23  C   UNL     1      -0.962  10.461  17.711  0.00  0.00    +0.000 C 
ATOM     24  N   UNL     1      -2.367  10.886  17.822  0.00  0.00    +0.000 NA
ATOM     25  C   UNL     1      -2.493  11.546  19.132  0.00  0.00    +0.000 C 
ATOM     26  C   UNL     1      -1.085  11.554  19.768  0.00  0.00    +0.000 C 
ATOM     27  H   UNL     1      -2.966  10.062  17.799  0.00  0.00    +0.000 HD
BRANCH  26  28
ATOM     28  N   UNL     1      -1.169  11.666  21.220  0.00  0.00    +0.000 N 
ATOM     29  C   UNL     1      -1.240  12.937  21.754  0.00  0.00    +0.000 C 
ATOM     30  O   UNL     1      -0.875  13.941  21.165  0.00  0.00    +0.000 OA
ATOM     31  H   UNL     1      -1.676  10.970  21.751  0.00  0.00    +0.000 HD
BRANCH  29  32
ATOM     32  O   UNL     1      -1.830  12.943  22.985  0.00  0.00    +0.000 OA
BRANCH  32  33
ATOM     33  C   UNL     1      -3.063  13.708  23.051  0.00  0.00    +0.000 C 
ATOM     34  C   UNL     1      -4.242  12.886  22.525  0.00  0.00    +0.000 C 
ATOM     35  C   UNL     1      -3.321  14.105  24.502  0.00  0.00    +0.000 C 
ENDBRANCH  32  33
ENDBRANCH  29  32
ENDBRANCH  26  28
ENDBRANCH  21  22
ENDBRANCH   3  21
TORSDOF 13
ENDMDL
MODEL 7
REMARK VINA RESULT:      -7.0      3.073      9.816
REMARK  Name = 
REMARK  19 active torsions:
REMARK  status: ('A' for Active; 'I' for Inactive)
REMARK    1  A    between atoms: C_1  and  O_2
REMARK    2  A    between atoms: O_2  and  C_3
REMARK    3  A    between atoms: C_3  and  C_4
REMARK    4  A    between atoms: C_4  and  C_5
REMARK    5  A    between atoms: C_5  and  O_6
REMARK    6  A    between atoms: O_6  and  C_7
REMARK    7  A    between atoms: C_9  and  C_10
REMARK    8  A    between atoms: N_12  and  C_13
REMARK    9  A    between atoms: N_12  and  C_26
REMARK   10  A    between atoms: C_13  and  C_14
REMARK   11  A    between atoms: C_18  and  N_19
REMARK   12  A    between atoms: C_20  and  O_22
REMARK   13  A    between atoms: O_22  and  C_23
REMARK   14  A    between atoms: C_23  and  C_24
REMARK   15  A    between atoms: C_23  and  C_25
REMARK   16  A    between atoms: C_26  and  C_27
REMARK   17  A    between atoms: C_26  and  C_28
REMARK   18  A    between atoms: C_31  and  O_32
REMARK   19  A    between atoms: O_32  and  C_33
REMARK                            x       y       z     vdW  Elec       q    Type
REMARK                         _______ _______ _______ _____ _____    ______ ____
ROOT
ATOM      1  C   UNL     1       2.186   8.107  18.407  0.00  0.00    +0.000 C 
ATOM      2  O   UNL     1       2.385   8.659  17.332  0.00  0.00    +0.000 OA
ATOM      3  N   UNL     1       1.530   8.771  19.486  0.00  0.00    +0.000 N 
ENDROOT
BRANCH   1   6
ATOM      4  C   UNL     1       4.498   5.141  19.174  0.00  0.00    +0.000 A 
ATOM      5  C   UNL     1       3.919   6.424  19.175  0.00  0.00    +0.000 A 
ATOM      6  C   UNL     1       2.696   6.701  18.559  0.00  0.00    +0.000 A 
ATOM      7  C   UNL     1       1.934   5.618  18.124  0.00  0.00    +0.000 A 
ATOM      8  C   UNL     1       2.485   4.325  18.121  0.00  0.00    +0.000 A 
ATOM      9  C   UNL     1       3.798   4.089  18.565  0.00  0.00    +0.000 A 
BRANCH   9  10
ATOM     10  O   UNL     1       4.199   2.780  18.507  0.00  0.00    +0.000 OA
ATOM     11  C   UNL     1       3.176   1.814  18.262  0.00  0.00    +0.000 C 
ENDBRANCH   9  10
BRANCH   4  12
ATOM     12  O   UNL     1       5.719   4.882  19.764  0.00  0.00    +0.000 OA
BRANCH  12  13
ATOM     13  C   UNL     1       6.809   5.629  19.207  0.00  0.00    +0.000 C 
BRANCH  13  14
ATOM     14  C   UNL     1       7.248   5.075  17.857  0.00  0.00    +0.000 C 
BRANCH  14  15
ATOM     15  C   UNL     1       7.189   6.168  16.789  0.00  0.00    +0.000 C 
BRANCH  15  17
ATOM     16  C   UNL     1       6.327   4.255  15.688  0.00  0.00    +0.000 C 
ATOM     17  O   UNL     1       6.522   5.661  15.632  0.00  0.00    +0.000 OA
ENDBRANCH  15  17
ENDBRANCH  14  15
ENDBRANCH  13  14
ENDBRANCH  12  13
ENDBRANCH   4  12
ENDBRANCH   1   6
BRANCH   3  18
ATOM     18  C   UNL     1       1.361   8.181  20.837  0.00  0.00    +0.000 C 
ATOM     19  C   UNL     1       1.555   9.169  21.983  0.00  0.00    +0.000 C 
ATOM     20  C   UNL     1       0.046   7.409  20.966  0.00  0.00    +0.000 C 
ENDBRANCH   3  18
BRANCH   3  21
ATOM     21  C   UNL     1       1.065  10.172  19.261  0.00  0.00    +0.000 C 
BRANCH  21  22
ATOM     22  C   UNL     1      -0.449  10.319  19.054  0.00  0.00    +0.000 C 
ATOM     23  C   UNL     1      -0.888   9.827  17.675  0.00  0.00    +0.000 C 
ATOM     24  N   UNL     1      -2.271  10.305  17.519  0.00  0.00    +0.000 NA
ATOM     25  C   UNL     1      -2.390  11.502  18.368  0.00  0.00    +0.000 C 
ATOM     26  C   UNL     1      -0.997  11.754  18.986  0.00  0.00    +0.000 C 
ATOM     27  H   UNL     1      -2.912   9.587  17.854  0.00  0.00    +0.000 HD
BRANCH  26  28
ATOM     28  N   UNL     1      -1.104  12.530  20.216  0.00  0.00    +0.000 N 
ATOM     29  C   UNL     1      -0.752  13.864  20.157  0.00  0.00    +0.000 C 
ATOM     30  O   UNL     1      -0.031  14.336  19.293  0.00  0.00    +0.000 OA
ATOM     31  H   UNL     1      -1.847  12.332  20.874  0.00  0.00    +0.000 HD
BRANCH  29  32
ATOM     32  O   UNL     1      -1.360  14.598  21.133  0.00  0.00    +0.000 OA
BRANCH  32  33
ATOM     33  C   UNL     1      -1.978  13.802  22.179  0.00  0.00    +0.000 C 
ATOM     34  C   UNL     1      -1.214  13.949  23.497  0.00  0.00    +0.000 C 
ATOM     35  C   UNL     1      -3.420  14.265  22.366  0.00  0.00    +0.000 C 
ENDBRANCH  32  33
ENDBRANCH  29  32
ENDBRANCH  26  28
ENDBRANCH  21  22
ENDBRANCH   3  21
TORSDOF 13
ENDMDL
MODEL 8
REMARK VINA RESULT:      -6.8      1.915      2.456
REMARK  Name = 
REMARK  19 active torsions:
REMARK  status: ('A' for Active; 'I' for Inactive)
REMARK    1  A    between atoms: C_1  and  O_2
REMARK    2  A    between atoms: O_2  and  C_3
REMARK    3  A    between atoms: C_3  and  C_4
REMARK    4  A    between atoms: C_4  and  C_5
REMARK    5  A    between atoms: C_5  and  O_6
REMARK    6  A    between atoms: O_6  and  C_7
REMARK    7  A    between atoms: C_9  and  C_10
REMARK    8  A    between atoms: N_12  and  C_13
REMARK    9  A    between atoms: N_12  and  C_26
REMARK   10  A    between atoms: C_13  and  C_14
REMARK   11  A    between atoms: C_18  and  N_19
REMARK   12  A    between atoms: C_20  and  O_22
REMARK   13  A    between atoms: O_22  and  C_23
REMARK   14  A    between atoms: C_23  and  C_24
REMARK   15  A    between atoms: C_23  and  C_25
REMARK   16  A    between atoms: C_26  and  C_27
REMARK   17  A    between atoms: C_26  and  C_28
REMARK   18  A    between atoms: C_31  and  O_32
REMARK   19  A    between atoms: O_32  and  C_33
REMARK                            x       y       z     vdW  Elec       q    Type
REMARK                         _______ _______ _______ _____ _____    ______ ____
ROOT
ATOM      1  C   UNL     1       3.015   6.734  18.120  0.00  0.00    +0.000 C 
ATOM      2  O   UNL     1       3.745   7.283  17.304  0.00  0.00    +0.000 OA
ATOM      3  N   UNL     1       2.907   5.315  18.201  0.00  0.00    +0.000 N 
ENDROOT
BRANCH   1   6
ATOM      4  C   UNL     1       0.946   9.709  19.384  0.00  0.00    +0.000 A 
ATOM      5  C   UNL     1       1.562   8.769  18.537  0.00  0.00    +0.000 A 
ATOM      6  C   UNL     1       2.203   7.625  19.018  0.00  0.00    +0.000 A 
ATOM      7  C   UNL     1       2.029   7.307  20.364  0.00  0.00    +0.000 A 
ATOM      8  C   UNL     1       1.408   8.224  21.229  0.00  0.00    +0.000 A 
ATOM      9  C   UNL     1       0.939   9.465  20.766  0.00  0.00    +0.000 A 
BRANCH   9  10
ATOM     10  O   UNL     1       0.354  10.255  21.720  0.00  0.00    +0.000 OA
ATOM     11  C   UNL     1       0.072   9.630  22.973  0.00  0.00    +0.000 C 
ENDBRANCH   9  10
BRANCH   4  12
ATOM     12  O   UNL     1       0.335  10.850  18.900  0.00  0.00    +0.000 OA
BRANCH  12  13
ATOM     13  C   UNL     1       1.215  11.975  18.775  0.00  0.00    +0.000 C 
BRANCH  13  14
ATOM     14  C   UNL     1       0.706  13.184  19.551  0.00  0.00    +0.000 C 
BRANCH  14  15
ATOM     15  C   UNL     1       1.430  14.451  19.095  0.00  0.00    +0.000 C 
BRANCH  15  17
ATOM     16  C   UNL     1      -0.245  16.092  18.755  0.00  0.00    +0.000 C 
ATOM     17  O   UNL     1       0.760  15.595  19.628  0.00  0.00    +0.000 OA
ENDBRANCH  15  17
ENDBRANCH  14  15
ENDBRANCH  13  14
ENDBRANCH  12  13
ENDBRANCH   4  12
ENDBRANCH   1   6
BRANCH   3  18
ATOM     18  C   UNL     1       1.960   4.610  19.099  0.00  0.00    +0.000 C 
ATOM     19  C   UNL     1       1.091   3.566  18.403  0.00  0.00    +0.000 C 
ATOM     20  C   UNL     1       2.658   4.037  20.335  0.00  0.00    +0.000 C 
ENDBRANCH   3  18
BRANCH   3  21
ATOM     21  C   UNL     1       3.736   4.499  17.264  0.00  0.00    +0.000 C 
BRANCH  21  22
ATOM     22  C   UNL     1       5.172   4.239  17.742  0.00  0.00    +0.000 C 
ATOM     23  C   UNL     1       5.499   5.014  19.018  0.00  0.00    +0.000 C 
ATOM     24  N   UNL     1       6.959   4.905  19.171  0.00  0.00    +0.000 NA
ATOM     25  C   UNL     1       7.500   4.706  17.815  0.00  0.00    +0.000 C 
ATOM     26  C   UNL     1       6.302   4.767  16.842  0.00  0.00    +0.000 C 
ATOM     27  H   UNL     1       7.174   4.091  19.745  0.00  0.00    +0.000 HD
BRANCH  26  28
ATOM     28  N   UNL     1       6.604   4.065  15.599  0.00  0.00    +0.000 N 
ATOM     29  C   UNL     1       6.072   4.580  14.435  0.00  0.00    +0.000 C 
ATOM     30  O   UNL     1       5.104   5.322  14.402  0.00  0.00    +0.000 OA
ATOM     31  H   UNL     1       7.505   3.622  15.477  0.00  0.00    +0.000 HD
BRANCH  29  32
ATOM     32  O   UNL     1       6.798   4.219  13.337  0.00  0.00    +0.000 OA
BRANCH  32  33
ATOM     33  C   UNL     1       6.243   3.098  12.598  0.00  0.00    +0.000 C 
ATOM     34  C   UNL     1       4.898   3.473  11.970  0.00  0.00    +0.000 C 
ATOM     35  C   UNL     1       7.225   2.692  11.503  0.00  0.00    +0.000 C 
ENDBRANCH  32  33
ENDBRANCH  29  32
ENDBRANCH  26  28
ENDBRANCH  21  22
ENDBRANCH   3  21
TORSDOF 13
ENDMDL
MODEL 9
REMARK VINA RESULT:      -6.8      3.755     10.173
REMARK  Name = 
REMARK  19 active torsions:
REMARK  status: ('A' for Active; 'I' for Inactive)
REMARK    1  A    between atoms: C_1  and  O_2
REMARK    2  A    between atoms: O_2  and  C_3
REMARK    3  A    between atoms: C_3  and  C_4
REMARK    4  A    between atoms: C_4  and  C_5
REMARK    5  A    between atoms: C_5  and  O_6
REMARK    6  A    between atoms: O_6  and  C_7
REMARK    7  A    between atoms: C_9  and  C_10
REMARK    8  A    between atoms: N_12  and  C_13
REMARK    9  A    between atoms: N_12  and  C_26
REMARK   10  A    between atoms: C_13  and  C_14
REMARK   11  A    between atoms: C_18  and  N_19
REMARK   12  A    between atoms: C_20  and  O_22
REMARK   13  A    between atoms: O_22  and  C_23
REMARK   14  A    between atoms: C_23  and  C_24
REMARK   15  A    between atoms: C_23  and  C_25
REMARK   16  A    between atoms: C_26  and  C_27
REMARK   17  A    between atoms: C_26  and  C_28
REMARK   18  A    between atoms: C_31  and  O_32
REMARK   19  A    between atoms: O_32  and  C_33
REMARK                            x       y       z     vdW  Elec       q    Type
REMARK                         _______ _______ _______ _____ _____    ______ ____
ROOT
ATOM      1  C   UNL     1       1.704   9.348  18.410  0.00  0.00    +0.000 C 
ATOM      2  O   UNL     1       1.821   9.919  17.333  0.00  0.00    +0.000 OA
ATOM      3  N   UNL     1       0.996   9.934  19.502  0.00  0.00    +0.000 N 
ENDROOT
BRANCH   1   6
ATOM      4  C   UNL     1       2.736   5.930  19.818  0.00  0.00    +0.000 A 
ATOM      5  C   UNL     1       2.013   7.109  19.558  0.00  0.00    +0.000 A 
ATOM      6  C   UNL     1       2.371   8.008  18.550  0.00  0.00    +0.000 A 
ATOM      7  C   UNL     1       3.347   7.603  17.642  0.00  0.00    +0.000 A 
ATOM      8  C   UNL     1       4.077   6.424  17.873  0.00  0.00    +0.000 A 
ATOM      9  C   UNL     1       3.837   5.625  19.004  0.00  0.00    +0.000 A 
BRANCH   9  10
ATOM     10  O   UNL     1       4.623   4.506  19.097  0.00  0.00    +0.000 OA
ATOM     11  C   UNL     1       5.997   4.665  18.742  0.00  0.00    +0.000 C 
ENDBRANCH   9  10
BRANCH   4  12
ATOM     12  O   UNL     1       2.388   5.059  20.832  0.00  0.00    +0.000 OA
BRANCH  12  13
ATOM     13  C   UNL     1       1.189   4.315  20.577  0.00  0.00    +0.000 C 
BRANCH  13  14
ATOM     14  C   UNL     1       1.372   2.828  20.853  0.00  0.00    +0.000 C 
BRANCH  14  15
ATOM     15  C   UNL     1       1.412   2.045  19.540  0.00  0.00    +0.000 C 
BRANCH  15  17
ATOM     16  C   UNL     1       2.503   2.525  17.493  0.00  0.00    +0.000 C 
ATOM     17  O   UNL     1       1.547   2.959  18.450  0.00  0.00    +0.000 OA
ENDBRANCH  15  17
ENDBRANCH  14  15
ENDBRANCH  13  14
ENDBRANCH  12  13
ENDBRANCH   4  12
ENDBRANCH   1   6
BRANCH   3  18
ATOM     18  C   UNL     1       0.919   9.328  20.854  0.00  0.00    +0.000 C 
ATOM     19  C   UNL     1       1.274  10.281  21.991  0.00  0.00    +0.000 C 
ATOM     20  C   UNL     1      -0.422   8.629  21.094  0.00  0.00    +0.000 C 
ENDBRANCH   3  18
BRANCH   3  21
ATOM     21  C   UNL     1       0.373  11.274  19.288  0.00  0.00    +0.000 C 
BRANCH  21  22
ATOM     22  C   UNL     1      -1.162  11.275  19.298  0.00  0.00    +0.000 C 
ATOM     23  C   UNL     1      -1.742  11.760  17.969  0.00  0.00    +0.000 C 
ATOM     24  N   UNL     1      -3.171  11.991  18.235  0.00  0.00    +0.000 NA
ATOM     25  C   UNL     1      -3.279  12.284  19.674  0.00  0.00    +0.000 C 
ATOM     26  C   UNL     1      -1.841  12.282  20.241  0.00  0.00    +0.000 C 
ATOM     27  H   UNL     1      -3.691  11.141  18.023  0.00  0.00    +0.000 HD
BRANCH  26  28
ATOM     28  N   UNL     1      -1.847  12.016  21.675  0.00  0.00    +0.000 N 
ATOM     29  C   UNL     1      -1.446  13.039  22.511  0.00  0.00    +0.000 C 
ATOM     30  O   UNL     1      -0.758  13.979  22.148  0.00  0.00    +0.000 OA
ATOM     31  H   UNL     1      -2.557  11.417  22.074  0.00  0.00    +0.000 HD
BRANCH  29  32
ATOM     32  O   UNL     1      -1.967  12.909  23.765  0.00  0.00    +0.000 OA
BRANCH  32  33
ATOM     33  C   UNL     1      -3.251  13.562  23.948  0.00  0.00    +0.000 C 
ATOM     34  C   UNL     1      -4.303  12.566  24.439  0.00  0.00    +0.000 C 
ATOM     35  C   UNL     1      -3.093  14.687  24.968  0.00  0.00    +0.000 C 
ENDBRANCH  32  33
ENDBRANCH  29  32
ENDBRANCH  26  28
ENDBRANCH  21  22
ENDBRANCH   3  21
TORSDOF 13
ENDMDL
