MODEL 1
REMARK VINA RESULT:      -7.7      0.000      0.000
REMARK  Name = 
REMARK  7 active torsions:
REMARK  status: ('A' for Active; 'I' for Inactive)
REMARK    1  A    between atoms: C_1  and  C_2
REMARK    2  A    between atoms: C_2  and  C_3
REMARK    3  A    between atoms: C_2  and  O_4
REMARK    4  A    between atoms: C_2  and  C_5
REMARK    5  A    between atoms: C_5  and  N_6
REMARK    6  A    between atoms: C_7  and  C_9
REMARK    7  A    between atoms: C_20  and  C_21
REMARK                            x       y       z     vdW  Elec       q    Type
REMARK                         _______ _______ _______ _____ _____    ______ ____
ROOT
ATOM      1  C   UNL     1      -6.251  12.036  20.111  0.00  0.00    +0.000 A 
ATOM      2  C   UNL     1      -7.528  12.073  20.711  0.00  0.00    +0.000 A 
ATOM      3  N   UNL     1      -7.506  12.494  21.973  0.00  0.00    +0.000 NA
ATOM      4  N   UNL     1      -6.198  12.732  22.216  0.00  0.00    +0.000 N 
ATOM      5  C   UNL     1      -5.641  13.146  23.412  0.00  0.00    +0.000 A 
ATOM      6  C   UNL     1      -4.327  13.367  23.500  0.00  0.00    +0.000 A 
ATOM      7  C   UNL     1      -3.502  13.167  22.249  0.00  0.00    +0.000 A 
ATOM      8  N   UNL     1      -2.145  13.446  22.303  0.00  0.00    +0.000 N 
ATOM      9  C   UNL     1      -1.548  14.456  23.167  0.00  0.00    +0.000 C 
ATOM     10  C   UNL     1      -0.530  15.145  22.276  0.00  0.00    +0.000 C 
ATOM     11  C   UNL     1      -0.020  14.032  21.379  0.00  0.00    +0.000 C 
ATOM     12  C   UNL     1      -1.213  13.065  21.234  0.00  0.00    +0.000 C 
ATOM     13  N   UNL     1      -4.036  12.730  21.125  0.00  0.00    +0.000 NA
ATOM     14  C   UNL     1      -5.392  12.505  21.094  0.00  0.00    +0.000 A 
ENDROOT
BRANCH  12  15
ATOM     15  C   UNL     1      -0.788  11.624  21.405  0.00  0.00    +0.000 A 
ATOM     16  C   UNL     1      -0.550  10.816  20.297  0.00  0.00    +0.000 A 
ATOM     17  N   UNL     1      -0.133   9.527  20.365  0.00  0.00    +0.000 NA
ATOM     18  C   UNL     1       0.034   9.009  21.606  0.00  0.00    +0.000 A 
ATOM     19  C   UNL     1      -0.192   9.721  22.770  0.00  0.00    +0.000 A 
ATOM     20  F   UNL     1      -0.004   9.160  23.967  0.00  0.00    +0.000 F 
ATOM     21  C   UNL     1      -0.609  11.040  22.670  0.00  0.00    +0.000 A 
ENDBRANCH  12  15
BRANCH   1  23
ATOM     22  N   UNL     1      -4.888  12.099  18.139  0.00  0.00    +0.000 N 
ATOM     23  C   UNL     1      -5.987  11.568  18.765  0.00  0.00    +0.000 C 
ATOM     24  O   UNL     1      -6.717  10.739  18.230  0.00  0.00    +0.000 OA
ATOM     25  H   UNL     1      -4.416  12.881  18.584  0.00  0.00    +0.000 HD
BRANCH  22  26
ATOM     26  C   UNL     1      -4.500  11.694  16.797  0.00  0.00    +0.000 C 
BRANCH  26  28
ATOM     27  C   UNL     1      -2.779  10.493  15.327  0.00  0.00    +0.000 C 
ATOM     28  C   UNL     1      -3.105  11.029  16.723  0.00  0.00    +0.000 C 
ATOM     29  C   UNL     1      -3.020   9.886  17.741  0.00  0.00    +0.000 C 
BRANCH  28  30
ATOM     30  O   UNL     1      -2.121  12.010  17.087  0.00  0.00    +0.000 OA
ATOM     31  H   UNL     1      -1.388  11.541  17.519  0.00  0.00    +0.000 HD
ENDBRANCH  28  30
ENDBRANCH  26  28
ENDBRANCH  22  26
ENDBRANCH   1  23
TORSDOF 5
ENDMDL
MODEL 2
REMARK VINA RESULT:      -7.3      1.128      1.385
REMARK  Name = 
REMARK  7 active torsions:
REMARK  status: ('A' for Active; 'I' for Inactive)
REMARK    1  A    between atoms: C_1  and  C_2
REMARK    2  A    between atoms: C_2  and  C_3
REMARK    3  A    between atoms: C_2  and  O_4
REMARK    4  A    between atoms: C_2  and  C_5
REMARK    5  A    between atoms: C_5  and  N_6
REMARK    6  A    between atoms: C_7  and  C_9
REMARK    7  A    between atoms: C_20  and  C_21
REMARK                            x       y       z     vdW  Elec       q    Type
REMARK                         _______ _______ _______ _____ _____    ______ ____
ROOT
ATOM      1  C   UNL     1      -6.039  12.052  20.482  0.00  0.00    +0.000 A 
ATOM      2  C   UNL     1      -7.319  12.119  21.072  0.00  0.00    +0.000 A 
ATOM      3  N   UNL     1      -7.298  12.543  22.332  0.00  0.00    +0.000 NA
ATOM      4  N   UNL     1      -5.987  12.755  22.584  0.00  0.00    +0.000 N 
ATOM      5  C   UNL     1      -5.431  13.161  23.783  0.00  0.00    +0.000 A 
ATOM      6  C   UNL     1      -4.113  13.355  23.880  0.00  0.00    +0.000 A 
ATOM      7  C   UNL     1      -3.283  13.134  22.637  0.00  0.00    +0.000 A 
ATOM      8  N   UNL     1      -1.921  13.385  22.700  0.00  0.00    +0.000 N 
ATOM      9  C   UNL     1      -1.310  14.386  23.565  0.00  0.00    +0.000 C 
ATOM     10  C   UNL     1      -0.271  15.051  22.680  0.00  0.00    +0.000 C 
ATOM     11  C   UNL     1       0.223  13.924  21.790  0.00  0.00    +0.000 C 
ATOM     12  C   UNL     1      -0.989  12.981  21.639  0.00  0.00    +0.000 C 
ATOM     13  N   UNL     1      -3.817  12.705  21.510  0.00  0.00    +0.000 NA
ATOM     14  C   UNL     1      -5.178  12.507  21.469  0.00  0.00    +0.000 A 
ENDROOT
BRANCH  12  15
ATOM     15  C   UNL     1      -0.595  11.532  21.819  0.00  0.00    +0.000 A 
ATOM     16  C   UNL     1      -0.867  10.864  23.010  0.00  0.00    +0.000 A 
ATOM     17  N   UNL     1      -0.578   9.559  23.237  0.00  0.00    +0.000 NA
ATOM     18  C   UNL     1       0.036   8.889  22.231  0.00  0.00    +0.000 A 
ATOM     19  C   UNL     1       0.365   9.465  21.017  0.00  0.00    +0.000 A 
ATOM     20  F   UNL     1       0.964   8.754  20.060  0.00  0.00    +0.000 F 
ATOM     21  C   UNL     1       0.049  10.799  20.810  0.00  0.00    +0.000 A 
ENDBRANCH  12  15
BRANCH   1  23
ATOM     22  N   UNL     1      -4.730  12.167  18.475  0.00  0.00    +0.000 N 
ATOM     23  C   UNL     1      -5.774  11.574  19.139  0.00  0.00    +0.000 C 
ATOM     24  O   UNL     1      -6.456  10.684  18.640  0.00  0.00    +0.000 OA
ATOM     25  H   UNL     1      -4.304  12.990  18.892  0.00  0.00    +0.000 HD
BRANCH  22  26
ATOM     26  C   UNL     1      -4.347  11.760  17.133  0.00  0.00    +0.000 C 
BRANCH  26  28
ATOM     27  C   UNL     1      -2.863   9.674  17.252  0.00  0.00    +0.000 C 
ATOM     28  C   UNL     1      -2.912  11.189  17.038  0.00  0.00    +0.000 C 
ATOM     29  C   UNL     1      -2.009  11.879  18.067  0.00  0.00    +0.000 C 
BRANCH  28  30
ATOM     30  O   UNL     1      -2.394  11.492  15.732  0.00  0.00    +0.000 OA
ATOM     31  H   UNL     1      -1.439  11.645  15.826  0.00  0.00    +0.000 HD
ENDBRANCH  28  30
ENDBRANCH  26  28
ENDBRANCH  22  26
ENDBRANCH   1  23
TORSDOF 5
ENDMDL
MODEL 3
REMARK VINA RESULT:      -7.2      2.964      6.962
REMARK  Name = 
REMARK  7 active torsions:
REMARK  status: ('A' for Active; 'I' for Inactive)
REMARK    1  A    between atoms: C_1  and  C_2
REMARK    2  A    between atoms: C_2  and  C_3
REMARK    3  A    between atoms: C_2  and  O_4
REMARK    4  A    between atoms: C_2  and  C_5
REMARK    5  A    between atoms: C_5  and  N_6
REMARK    6  A    between atoms: C_7  and  C_9
REMARK    7  A    between atoms: C_20  and  C_21
REMARK                            x       y       z     vdW  Elec       q    Type
REMARK                         _______ _______ _______ _____ _____    ______ ____
ROOT
ATOM      1  C   UNL     1      -1.228  11.814  20.533  0.00  0.00    +0.000 A 
ATOM      2  C   UNL     1      -0.037  11.371  19.919  0.00  0.00    +0.000 A 
ATOM      3  N   UNL     1      -0.190  11.054  18.637  0.00  0.00    +0.000 NA
ATOM      4  N   UNL     1      -1.501  11.283  18.398  0.00  0.00    +0.000 N 
ATOM      5  C   UNL     1      -2.176  11.060  17.212  0.00  0.00    +0.000 A 
ATOM      6  C   UNL     1      -3.474  11.357  17.112  0.00  0.00    +0.000 A 
ATOM      7  C   UNL     1      -4.147  11.955  18.326  0.00  0.00    +0.000 A 
ATOM      8  N   UNL     1      -5.480  12.324  18.227  0.00  0.00    +0.000 N 
ATOM      9  C   UNL     1      -6.115  12.783  16.998  0.00  0.00    +0.000 C 
ATOM     10  C   UNL     1      -6.968  13.958  17.443  0.00  0.00    +0.000 C 
ATOM     11  C   UNL     1      -7.431  13.564  18.834  0.00  0.00    +0.000 C 
ATOM     12  C   UNL     1      -6.292  12.687  19.395  0.00  0.00    +0.000 C 
ATOM     13  N   UNL     1      -3.505  12.123  19.466  0.00  0.00    +0.000 NA
ATOM     14  C   UNL     1      -2.172  11.787  19.518  0.00  0.00    +0.000 A 
ENDROOT
BRANCH  12  15
ATOM     15  C   UNL     1      -6.826  11.440  20.063  0.00  0.00    +0.000 A 
ATOM     16  C   UNL     1      -7.384  11.499  21.337  0.00  0.00    +0.000 A 
ATOM     17  N   UNL     1      -7.915  10.436  21.990  0.00  0.00    +0.000 NA
ATOM     18  C   UNL     1      -7.867   9.243  21.347  0.00  0.00    +0.000 A 
ATOM     19  C   UNL     1      -7.319   9.074  20.088  0.00  0.00    +0.000 A 
ATOM     20  F   UNL     1      -7.305   7.876  19.500  0.00  0.00    +0.000 F 
ATOM     21  C   UNL     1      -6.791  10.181  19.441  0.00  0.00    +0.000 A 
ENDBRANCH  12  15
BRANCH   1  23
ATOM     22  N   UNL     1      -2.431  12.944  22.273  0.00  0.00    +0.000 N 
ATOM     23  C   UNL     1      -1.351  12.170  21.933  0.00  0.00    +0.000 C 
ATOM     24  O   UNL     1      -0.523  11.790  22.756  0.00  0.00    +0.000 OA
ATOM     25  H   UNL     1      -2.991  13.339  21.523  0.00  0.00    +0.000 HD
BRANCH  22  26
ATOM     26  C   UNL     1      -2.681  13.348  23.647  0.00  0.00    +0.000 C 
BRANCH  26  28
ATOM     27  C   UNL     1      -4.713  12.342  24.842  0.00  0.00    +0.000 C 
ATOM     28  C   UNL     1      -4.182  13.499  23.992  0.00  0.00    +0.000 C 
ATOM     29  C   UNL     1      -5.003  13.604  22.702  0.00  0.00    +0.000 C 
BRANCH  28  30
ATOM     30  O   UNL     1      -4.354  14.727  24.718  0.00  0.00    +0.000 OA
ATOM     31  H   UNL     1      -3.613  14.801  25.343  0.00  0.00    +0.000 HD
ENDBRANCH  28  30
ENDBRANCH  26  28
ENDBRANCH  22  26
ENDBRANCH   1  23
TORSDOF 5
ENDMDL
MODEL 4
REMARK VINA RESULT:      -7.2      1.744      2.146
REMARK  Name = 
REMARK  7 active torsions:
REMARK  status: ('A' for Active; 'I' for Inactive)
REMARK    1  A    between atoms: C_1  and  C_2
REMARK    2  A    between atoms: C_2  and  C_3
REMARK    3  A    between atoms: C_2  and  O_4
REMARK    4  A    between atoms: C_2  and  C_5
REMARK    5  A    between atoms: C_5  and  N_6
REMARK    6  A    between atoms: C_7  and  C_9
REMARK    7  A    between atoms: C_20  and  C_21
REMARK                            x       y       z     vdW  Elec       q    Type
REMARK                         _______ _______ _______ _____ _____    ______ ____
ROOT
ATOM      1  C   UNL     1      -5.298  12.200  20.279  0.00  0.00    +0.000 A 
ATOM      2  C   UNL     1      -6.328  12.235  21.244  0.00  0.00    +0.000 A 
ATOM      3  N   UNL     1      -5.917  12.651  22.438  0.00  0.00    +0.000 NA
ATOM      4  N   UNL     1      -4.597  12.888  22.267  0.00  0.00    +0.000 N 
ATOM      5  C   UNL     1      -3.698  13.296  23.234  0.00  0.00    +0.000 A 
ATOM      6  C   UNL     1      -2.420  13.517  22.913  0.00  0.00    +0.000 A 
ATOM      7  C   UNL     1      -2.022  13.322  21.468  0.00  0.00    +0.000 A 
ATOM      8  N   UNL     1      -0.714  13.600  21.101  0.00  0.00    +0.000 N 
ATOM      9  C   UNL     1       0.122  14.607  21.743  0.00  0.00    +0.000 C 
ATOM     10  C   UNL     1       0.816  15.300  20.584  0.00  0.00    +0.000 C 
ATOM     11  C   UNL     1       1.023  14.190  19.569  0.00  0.00    +0.000 C 
ATOM     12  C   UNL     1      -0.158  13.223  19.796  0.00  0.00    +0.000 C 
ATOM     13  N   UNL     1      -2.877  12.890  20.562  0.00  0.00    +0.000 NA
ATOM     14  C   UNL     1      -4.178  12.664  20.950  0.00  0.00    +0.000 A 
ENDROOT
BRANCH  12  15
ATOM     15  C   UNL     1       0.297  11.782  19.823  0.00  0.00    +0.000 A 
ATOM     16  C   UNL     1       0.379  11.084  21.025  0.00  0.00    +0.000 A 
ATOM     17  N   UNL     1       0.745   9.782  21.130  0.00  0.00    +0.000 NA
ATOM     18  C   UNL     1       1.067   9.147  19.976  0.00  0.00    +0.000 A 
ATOM     19  C   UNL     1       1.035   9.754  18.734  0.00  0.00    +0.000 A 
ATOM     20  F   UNL     1       1.357   9.077  17.630  0.00  0.00    +0.000 F 
ATOM     21  C   UNL     1       0.649  11.084  18.656  0.00  0.00    +0.000 A 
ENDBRANCH  12  15
BRANCH   1  23
ATOM     22  N   UNL     1      -4.464  12.065  18.034  0.00  0.00    +0.000 N 
ATOM     23  C   UNL     1      -5.463  11.737  18.915  0.00  0.00    +0.000 C 
ATOM     24  O   UNL     1      -6.450  11.085  18.584  0.00  0.00    +0.000 OA
ATOM     25  H   UNL     1      -3.754  12.724  18.341  0.00  0.00    +0.000 HD
BRANCH  22  26
ATOM     26  C   UNL     1      -4.498  11.640  16.644  0.00  0.00    +0.000 C 
BRANCH  26  28
ATOM     27  C   UNL     1      -3.436  10.160  14.841  0.00  0.00    +0.000 C 
ATOM     28  C   UNL     1      -3.258  10.824  16.209  0.00  0.00    +0.000 C 
ATOM     29  C   UNL     1      -2.947   9.751  17.260  0.00  0.00    +0.000 C 
BRANCH  28  30
ATOM     30  O   UNL     1      -2.132  11.715  16.151  0.00  0.00    +0.000 OA
ATOM     31  H   UNL     1      -1.887  11.933  17.067  0.00  0.00    +0.000 HD
ENDBRANCH  28  30
ENDBRANCH  26  28
ENDBRANCH  22  26
ENDBRANCH   1  23
TORSDOF 5
ENDMDL
MODEL 5
REMARK VINA RESULT:      -6.9      5.245      8.280
REMARK  Name = 
REMARK  7 active torsions:
REMARK  status: ('A' for Active; 'I' for Inactive)
REMARK    1  A    between atoms: C_1  and  C_2
REMARK    2  A    between atoms: C_2  and  C_3
REMARK    3  A    between atoms: C_2  and  O_4
REMARK    4  A    between atoms: C_2  and  C_5
REMARK    5  A    between atoms: C_5  and  N_6
REMARK    6  A    between atoms: C_7  and  C_9
REMARK    7  A    between atoms: C_20  and  C_21
REMARK                            x       y       z     vdW  Elec       q    Type
REMARK                         _______ _______ _______ _____ _____    ______ ____
ROOT
ATOM      1  C   UNL     1       2.591   7.237  19.015  0.00  0.00    +0.000 A 
ATOM      2  C   UNL     1       2.594   6.090  19.838  0.00  0.00    +0.000 A 
ATOM      3  N   UNL     1       1.787   6.194  20.890  0.00  0.00    +0.000 NA
ATOM      4  N   UNL     1       1.246   7.427  20.768  0.00  0.00    +0.000 N 
ATOM      5  C   UNL     1       0.369   8.035  21.646  0.00  0.00    +0.000 A 
ATOM      6  C   UNL     1      -0.107   9.255  21.384  0.00  0.00    +0.000 A 
ATOM      7  C   UNL     1       0.336   9.912  20.097  0.00  0.00    +0.000 A 
ATOM      8  N   UNL     1      -0.190  11.155  19.776  0.00  0.00    +0.000 N 
ATOM      9  C   UNL     1      -1.519  11.608  20.165  0.00  0.00    +0.000 C 
ATOM     10  C   UNL     1      -2.053  12.288  18.917  0.00  0.00    +0.000 C 
ATOM     11  C   UNL     1      -0.821  12.917  18.290  0.00  0.00    +0.000 C 
ATOM     12  C   UNL     1       0.342  11.985  18.689  0.00  0.00    +0.000 C 
ATOM     13  N   UNL     1       1.207   9.342  19.287  0.00  0.00    +0.000 NA
ATOM     14  C   UNL     1       1.676   8.091  19.613  0.00  0.00    +0.000 A 
ENDROOT
BRANCH  12  15
ATOM     15  C   UNL     1       1.543  12.767  19.172  0.00  0.00    +0.000 A 
ATOM     16  C   UNL     1       1.757  12.972  20.532  0.00  0.00    +0.000 A 
ATOM     17  N   UNL     1       2.824  13.631  21.047  0.00  0.00    +0.000 NA
ATOM     18  C   UNL     1       3.717  14.130  20.157  0.00  0.00    +0.000 A 
ATOM     19  C   UNL     1       3.587  13.996  18.786  0.00  0.00    +0.000 A 
ATOM     20  F   UNL     1       4.501  14.504  17.957  0.00  0.00    +0.000 F 
ATOM     21  C   UNL     1       2.490  13.310  18.289  0.00  0.00    +0.000 A 
ENDBRANCH  12  15
BRANCH   1  23
ATOM     22  N   UNL     1       4.446   6.516  17.677  0.00  0.00    +0.000 N 
ATOM     23  C   UNL     1       3.416   7.408  17.836  0.00  0.00    +0.000 C 
ATOM     24  O   UNL     1       3.190   8.308  17.032  0.00  0.00    +0.000 OA
ATOM     25  H   UNL     1       4.661   5.893  18.450  0.00  0.00    +0.000 HD
BRANCH  22  26
ATOM     26  C   UNL     1       5.331   6.565  16.525  0.00  0.00    +0.000 C 
BRANCH  26  28
ATOM     27  C   UNL     1       6.948   5.020  17.775  0.00  0.00    +0.000 C 
ATOM     28  C   UNL     1       6.806   6.234  16.854  0.00  0.00    +0.000 C 
ATOM     29  C   UNL     1       7.479   7.449  17.504  0.00  0.00    +0.000 C 
BRANCH  28  30
ATOM     30  O   UNL     1       7.491   5.966  15.620  0.00  0.00    +0.000 OA
ATOM     31  H   UNL     1       8.430   5.825  15.833  0.00  0.00    +0.000 HD
ENDBRANCH  28  30
ENDBRANCH  26  28
ENDBRANCH  22  26
ENDBRANCH   1  23
TORSDOF 5
ENDMDL
MODEL 6
REMARK VINA RESULT:      -6.9      1.178      1.367
REMARK  Name = 
REMARK  7 active torsions:
REMARK  status: ('A' for Active; 'I' for Inactive)
REMARK    1  A    between atoms: C_1  and  C_2
REMARK    2  A    between atoms: C_2  and  C_3
REMARK    3  A    between atoms: C_2  and  O_4
REMARK    4  A    between atoms: C_2  and  C_5
REMARK    5  A    between atoms: C_5  and  N_6
REMARK    6  A    between atoms: C_7  and  C_9
REMARK    7  A    between atoms: C_20  and  C_21
REMARK                            x       y       z     vdW  Elec       q    Type
REMARK                         _______ _______ _______ _____ _____    ______ ____
ROOT
ATOM      1  C   UNL     1      -6.204  12.297  20.746  0.00  0.00    +0.000 A 
ATOM      2  C   UNL     1      -7.456  11.922  21.280  0.00  0.00    +0.000 A 
ATOM      3  N   UNL     1      -7.497  11.965  22.608  0.00  0.00    +0.000 NA
ATOM      4  N   UNL     1      -6.255  12.366  22.962  0.00  0.00    +0.000 N 
ATOM      5  C   UNL     1      -5.771  12.522  24.248  0.00  0.00    +0.000 A 
ATOM      6  C   UNL     1      -4.523  12.952  24.448  0.00  0.00    +0.000 A 
ATOM      7  C   UNL     1      -3.693  13.273  23.227  0.00  0.00    +0.000 A 
ATOM      8  N   UNL     1      -2.414  13.775  23.412  0.00  0.00    +0.000 N 
ATOM      9  C   UNL     1      -2.010  14.593  24.549  0.00  0.00    +0.000 C 
ATOM     10  C   UNL     1      -1.156  15.685  23.929  0.00  0.00    +0.000 C 
ATOM     11  C   UNL     1      -0.454  14.987  22.777  0.00  0.00    +0.000 C 
ATOM     12  C   UNL     1      -1.441  13.894  22.318  0.00  0.00    +0.000 C 
ATOM     13  N   UNL     1      -4.149  13.080  22.004  0.00  0.00    +0.000 NA
ATOM     14  C   UNL     1      -5.437  12.621  21.855  0.00  0.00    +0.000 A 
ENDROOT
BRANCH  12  15
ATOM     15  C   UNL     1      -0.745  12.570  22.096  0.00  0.00    +0.000 A 
ATOM     16  C   UNL     1       0.347  12.477  21.239  0.00  0.00    +0.000 A 
ATOM     17  N   UNL     1       1.047  11.337  21.012  0.00  0.00    +0.000 NA
ATOM     18  C   UNL     1       0.620  10.225  21.660  0.00  0.00    +0.000 A 
ATOM     19  C   UNL     1      -0.464  10.208  22.519  0.00  0.00    +0.000 A 
ATOM     20  F   UNL     1      -0.835   9.083  23.134  0.00  0.00    +0.000 F 
ATOM     21  C   UNL     1      -1.155  11.390  22.738  0.00  0.00    +0.000 A 
ENDBRANCH  12  15
BRANCH   1  23
ATOM     22  N   UNL     1      -4.607  11.874  19.007  0.00  0.00    +0.000 N 
ATOM     23  C   UNL     1      -5.873  12.288  19.335  0.00  0.00    +0.000 C 
ATOM     24  O   UNL     1      -6.697  12.633  18.491  0.00  0.00    +0.000 OA
ATOM     25  H   UNL     1      -3.938  11.743  19.760  0.00  0.00    +0.000 HD
BRANCH  22  26
ATOM     26  C   UNL     1      -4.161  11.796  17.625  0.00  0.00    +0.000 C 
BRANCH  26  28
ATOM     27  C   UNL     1      -2.653   9.725  17.664  0.00  0.00    +0.000 C 
ATOM     28  C   UNL     1      -2.726  11.240  17.462  0.00  0.00    +0.000 C 
ATOM     29  C   UNL     1      -1.785  11.934  18.453  0.00  0.00    +0.000 C 
BRANCH  28  30
ATOM     30  O   UNL     1      -2.272  11.556  16.136  0.00  0.00    +0.000 OA
ATOM     31  H   UNL     1      -2.474  10.792  15.570  0.00  0.00    +0.000 HD
ENDBRANCH  28  30
ENDBRANCH  26  28
ENDBRANCH  22  26
ENDBRANCH   1  23
TORSDOF 5
ENDMDL
MODEL 7
REMARK VINA RESULT:      -6.8      1.943      2.774
REMARK  Name = 
REMARK  7 active torsions:
REMARK  status: ('A' for Active; 'I' for Inactive)
REMARK    1  A    between atoms: C_1  and  C_2
REMARK    2  A    between atoms: C_2  and  C_3
REMARK    3  A    between atoms: C_2  and  O_4
REMARK    4  A    between atoms: C_2  and  C_5
REMARK    5  A    between atoms: C_5  and  N_6
REMARK    6  A    between atoms: C_7  and  C_9
REMARK    7  A    between atoms: C_20  and  C_21
REMARK                            x       y       z     vdW  Elec       q    Type
REMARK                         _______ _______ _______ _____ _____    ______ ____
ROOT
ATOM      1  C   UNL     1      -4.139  12.655  20.516  0.00  0.00    +0.000 A 
ATOM      2  C   UNL     1      -4.944  13.050  21.607  0.00  0.00    +0.000 A 
ATOM      3  N   UNL     1      -4.245  13.542  22.626  0.00  0.00    +0.000 NA
ATOM      4  N   UNL     1      -2.961  13.467  22.210  0.00  0.00    +0.000 N 
ATOM      5  C   UNL     1      -1.836  13.816  22.933  0.00  0.00    +0.000 A 
ATOM      6  C   UNL     1      -0.624  13.711  22.382  0.00  0.00    +0.000 A 
ATOM      7  C   UNL     1      -0.549  13.224  20.953  0.00  0.00    +0.000 A 
ATOM      8  N   UNL     1       0.694  13.163  20.342  0.00  0.00    +0.000 N 
ATOM      9  C   UNL     1       1.805  14.054  20.650  0.00  0.00    +0.000 C 
ATOM     10  C   UNL     1       2.382  14.405  19.290  0.00  0.00    +0.000 C 
ATOM     11  C   UNL     1       2.187  13.138  18.475  0.00  0.00    +0.000 C 
ATOM     12  C   UNL     1       0.915  12.487  19.057  0.00  0.00    +0.000 C 
ATOM     13  N   UNL     1      -1.624  12.853  20.287  0.00  0.00    +0.000 NA
ATOM     14  C   UNL     1      -2.846  12.967  20.907  0.00  0.00    +0.000 A 
ENDROOT
BRANCH  12  15
ATOM     15  C   UNL     1       1.098  11.002  19.276  0.00  0.00    +0.000 A 
ATOM     16  C   UNL     1       1.604  10.191  18.265  0.00  0.00    +0.000 A 
ATOM     17  N   UNL     1       1.830   8.860  18.392  0.00  0.00    +0.000 NA
ATOM     18  C   UNL     1       1.513   8.303  19.586  0.00  0.00    +0.000 A 
ATOM     19  C   UNL     1       0.988   9.016  20.649  0.00  0.00    +0.000 A 
ATOM     20  F   UNL     1       0.701   8.415  21.805  0.00  0.00    +0.000 F 
ATOM     21  C   UNL     1       0.776  10.378  20.492  0.00  0.00    +0.000 A 
ENDBRANCH  12  15
BRANCH   1  23
ATOM     22  N   UNL     1      -3.816  12.089  18.208  0.00  0.00    +0.000 N 
ATOM     23  C   UNL     1      -4.641  12.040  19.303  0.00  0.00    +0.000 C 
ATOM     24  O   UNL     1      -5.746  11.506  19.276  0.00  0.00    +0.000 OA
ATOM     25  H   UNL     1      -2.983  12.669  18.263  0.00  0.00    +0.000 HD
BRANCH  22  26
ATOM     26  C   UNL     1      -4.192  11.487  16.939  0.00  0.00    +0.000 C 
BRANCH  26  28
ATOM     27  C   UNL     1      -3.420  10.270  14.820  0.00  0.00    +0.000 C 
ATOM     28  C   UNL     1      -3.011  10.831  16.184  0.00  0.00    +0.000 C 
ATOM     29  C   UNL     1      -2.408   9.710  17.038  0.00  0.00    +0.000 C 
BRANCH  28  30
ATOM     30  O   UNL     1      -1.993  11.827  15.992  0.00  0.00    +0.000 OA
ATOM     31  H   UNL     1      -1.135  11.371  16.004  0.00  0.00    +0.000 HD
ENDBRANCH  28  30
ENDBRANCH  26  28
ENDBRANCH  22  26
ENDBRANCH   1  23
TORSDOF 5
ENDMDL
MODEL 8
REMARK VINA RESULT:      -6.8      2.891      5.489
REMARK  Name = 
REMARK  7 active torsions:
REMARK  status: ('A' for Active; 'I' for Inactive)
REMARK    1  A    between atoms: C_1  and  C_2
REMARK    2  A    between atoms: C_2  and  C_3
REMARK    3  A    between atoms: C_2  and  O_4
REMARK    4  A    between atoms: C_2  and  C_5
REMARK    5  A    between atoms: C_5  and  N_6
REMARK    6  A    between atoms: C_7  and  C_9
REMARK    7  A    between atoms: C_20  and  C_21
REMARK                            x       y       z     vdW  Elec       q    Type
REMARK                         _______ _______ _______ _____ _____    ______ ____
ROOT
ATOM      1  C   UNL     1      -6.339  12.619  19.882  0.00  0.00    +0.000 A 
ATOM      2  C   UNL     1      -7.427  12.431  19.003  0.00  0.00    +0.000 A 
ATOM      3  N   UNL     1      -7.067  11.966  17.810  0.00  0.00    +0.000 NA
ATOM      4  N   UNL     1      -5.723  11.849  17.896  0.00  0.00    +0.000 N 
ATOM      5  C   UNL     1      -4.862  11.447  16.892  0.00  0.00    +0.000 A 
ATOM      6  C   UNL     1      -3.551  11.355  17.128  0.00  0.00    +0.000 A 
ATOM      7  C   UNL     1      -3.070  11.684  18.522  0.00  0.00    +0.000 A 
ATOM      8  N   UNL     1      -1.721  11.540  18.806  0.00  0.00    +0.000 N 
ATOM      9  C   UNL     1      -0.848  10.561  18.169  0.00  0.00    +0.000 C 
ATOM     10  C   UNL     1      -0.017  10.012  19.315  0.00  0.00    +0.000 C 
ATOM     11  C   UNL     1       0.165  11.205  20.236  0.00  0.00    +0.000 C 
ATOM     12  C   UNL     1      -1.109  12.054  20.038  0.00  0.00    +0.000 C 
ATOM     13  N   UNL     1      -3.894  12.109  19.461  0.00  0.00    +0.000 NA
ATOM     14  C   UNL     1      -5.233  12.200  19.159  0.00  0.00    +0.000 A 
ENDROOT
BRANCH  12  15
ATOM     15  C   UNL     1      -0.782  13.522  19.882  0.00  0.00    +0.000 A 
ATOM     16  C   UNL     1       0.235  13.937  19.027  0.00  0.00    +0.000 A 
ATOM     17  N   UNL     1       0.566  15.233  18.805  0.00  0.00    +0.000 NA
ATOM     18  C   UNL     1      -0.141  16.166  19.490  0.00  0.00    +0.000 A 
ATOM     19  C   UNL     1      -1.158  15.857  20.376  0.00  0.00    +0.000 A 
ATOM     20  F   UNL     1      -1.824  16.818  21.019  0.00  0.00    +0.000 F 
ATOM     21  C   UNL     1      -1.480  14.523  20.576  0.00  0.00    +0.000 A 
ENDBRANCH  12  15
BRANCH   1  23
ATOM     22  N   UNL     1      -5.784  12.483  22.211  0.00  0.00    +0.000 N 
ATOM     23  C   UNL     1      -6.447  13.163  21.221  0.00  0.00    +0.000 C 
ATOM     24  O   UNL     1      -7.098  14.181  21.439  0.00  0.00    +0.000 OA
ATOM     25  H   UNL     1      -5.388  11.576  21.984  0.00  0.00    +0.000 HD
BRANCH  22  26
ATOM     26  C   UNL     1      -5.793  12.940  23.592  0.00  0.00    +0.000 C 
BRANCH  26  28
ATOM     27  C   UNL     1      -3.951  14.564  24.326  0.00  0.00    +0.000 C 
ATOM     28  C   UNL     1      -4.382  13.100  24.206  0.00  0.00    +0.000 C 
ATOM     29  C   UNL     1      -3.357  12.333  23.362  0.00  0.00    +0.000 C 
BRANCH  28  30
ATOM     30  O   UNL     1      -4.395  12.510  25.516  0.00  0.00    +0.000 OA
ATOM     31  H   UNL     1      -5.092  12.953  26.028  0.00  0.00    +0.000 HD
ENDBRANCH  28  30
ENDBRANCH  26  28
ENDBRANCH  22  26
ENDBRANCH   1  23
TORSDOF 5
ENDMDL
MODEL 9
REMARK VINA RESULT:      -6.8      5.110      8.174
REMARK  Name = 
REMARK  7 active torsions:
REMARK  status: ('A' for Active; 'I' for Inactive)
REMARK    1  A    between atoms: C_1  and  C_2
REMARK    2  A    between atoms: C_2  and  C_3
REMARK    3  A    between atoms: C_2  and  O_4
REMARK    4  A    between atoms: C_2  and  C_5
REMARK    5  A    between atoms: C_5  and  N_6
REMARK    6  A    between atoms: C_7  and  C_9
REMARK    7  A    between atoms: C_20  and  C_21
REMARK                            x       y       z     vdW  Elec       q    Type
REMARK                         _______ _______ _______ _____ _____    ______ ____
ROOT
ATOM      1  C   UNL     1       2.618   7.250  19.029  0.00  0.00    +0.000 A 
ATOM      2  C   UNL     1       2.638   6.124  19.879  0.00  0.00    +0.000 A 
ATOM      3  N   UNL     1       1.843   6.248  20.938  0.00  0.00    +0.000 NA
ATOM      4  N   UNL     1       1.293   7.475  20.793  0.00  0.00    +0.000 N 
ATOM      5  C   UNL     1       0.423   8.100  21.667  0.00  0.00    +0.000 A 
ATOM      6  C   UNL     1      -0.062   9.311  21.380  0.00  0.00    +0.000 A 
ATOM      7  C   UNL     1       0.362   9.939  20.073  0.00  0.00    +0.000 A 
ATOM      8  N   UNL     1      -0.175  11.170  19.728  0.00  0.00    +0.000 N 
ATOM      9  C   UNL     1      -1.502  11.627  20.122  0.00  0.00    +0.000 C 
ATOM     10  C   UNL     1      -2.055  12.273  18.864  0.00  0.00    +0.000 C 
ATOM     11  C   UNL     1      -0.834  12.893  18.207  0.00  0.00    +0.000 C 
ATOM     12  C   UNL     1       0.340  11.977  18.614  0.00  0.00    +0.000 C 
ATOM     13  N   UNL     1       1.226   9.354  19.267  0.00  0.00    +0.000 NA
ATOM     14  C   UNL     1       1.706   8.113  19.617  0.00  0.00    +0.000 A 
ENDROOT
BRANCH  12  15
ATOM     15  C   UNL     1       1.542  12.776  19.064  0.00  0.00    +0.000 A 
ATOM     16  C   UNL     1       2.545  13.120  18.162  0.00  0.00    +0.000 A 
ATOM     17  N   UNL     1       3.635  13.862  18.477  0.00  0.00    +0.000 NA
ATOM     18  C   UNL     1       3.742  14.266  19.767  0.00  0.00    +0.000 A 
ATOM     19  C   UNL     1       2.811  13.963  20.744  0.00  0.00    +0.000 A 
ATOM     20  F   UNL     1       2.965  14.393  21.997  0.00  0.00    +0.000 F 
ATOM     21  C   UNL     1       1.701  13.210  20.390  0.00  0.00    +0.000 A 
ENDBRANCH  12  15
BRANCH   1  23
ATOM     22  N   UNL     1       4.480   6.526  17.702  0.00  0.00    +0.000 N 
ATOM     23  C   UNL     1       3.429   7.397  17.837  0.00  0.00    +0.000 C 
ATOM     24  O   UNL     1       3.172   8.259  17.000  0.00  0.00    +0.000 OA
ATOM     25  H   UNL     1       4.718   5.938  18.496  0.00  0.00    +0.000 HD
BRANCH  22  26
ATOM     26  C   UNL     1       5.353   6.553  16.540  0.00  0.00    +0.000 C 
BRANCH  26  28
ATOM     27  C   UNL     1       6.989   5.016  17.775  0.00  0.00    +0.000 C 
ATOM     28  C   UNL     1       6.833   6.234  16.862  0.00  0.00    +0.000 C 
ATOM     29  C   UNL     1       7.497   7.451  17.515  0.00  0.00    +0.000 C 
BRANCH  28  30
ATOM     30  O   UNL     1       7.515   5.979  15.624  0.00  0.00    +0.000 OA
ATOM     31  H   UNL     1       8.427   6.304  15.721  0.00  0.00    +0.000 HD
ENDBRANCH  28  30
ENDBRANCH  26  28
ENDBRANCH  22  26
ENDBRANCH   1  23
TORSDOF 5
ENDMDL
