MODEL 1
REMARK VINA RESULT:      -6.9      0.000      0.000
REMARK  Name = 
REMARK  15 active torsions:
REMARK  status: ('A' for Active; 'I' for Inactive)
REMARK    1  A    between atoms: C_1  and  C_2
REMARK    2  A    between atoms: C_2  and  C_3
REMARK    3  A    between atoms: C_9  and  C_10
REMARK    4  A    between atoms: C_9  and  C_11
REMARK    5  A    between atoms: C_11  and  C_12
REMARK    6  A    between atoms: C_12  and  C_13
REMARK    7  A    between atoms: C_13  and  C_14
REMARK    8  A    between atoms: C_14  and  C_15
REMARK    9  A    between atoms: C_15  and  C_16
REMARK   10  A    between atoms: C_16  and  C_17
REMARK   11  A    between atoms: C_17  and  C_18
REMARK   12  A    between atoms: C_18  and  C_19
REMARK   13  A    between atoms: C_19  and  C_20
REMARK   14  A    between atoms: C_20  and  C_21
REMARK   15  A    between atoms: C_21  and  O_22
REMARK                            x       y       z     vdW  Elec       q    Type
REMARK                         _______ _______ _______ _____ _____    ______ ____
ROOT
ATOM      1  C   UNL     1       4.239   6.234  18.024  0.00  0.00    +0.000 C 
ENDROOT
BRANCH   1  10
ATOM      2  C   UNL     1       4.981   2.024  20.501  0.00  0.00    +0.000 C 
ATOM      3  C   UNL     1       3.797   2.650  19.679  0.00  0.00    +0.000 C 
ATOM      4  C   UNL     1       3.712   1.715  18.465  0.00  0.00    +0.000 C 
ATOM      5  C   UNL     1       2.582   2.626  20.630  0.00  0.00    +0.000 C 
ATOM      6  C   UNL     1       1.134   2.832  20.173  0.00  0.00    +0.000 C 
ATOM      7  C   UNL     1       0.733   2.802  18.708  0.00  0.00    +0.000 C 
ATOM      8  C   UNL     1       1.018   4.008  17.808  0.00  0.00    +0.000 C 
ATOM      9  C   UNL     1       2.430   4.522  17.517  0.00  0.00    +0.000 C 
ATOM     10  C   UNL     1       3.288   5.135  18.650  0.00  0.00    +0.000 C 
ATOM     11  C   UNL     1       2.452   5.933  19.661  0.00  0.00    +0.000 C 
ATOM     12  C   UNL     1       4.211   4.114  19.381  0.00  0.00    +0.000 C 
ATOM     13  O   UNL     1       5.295   4.529  19.826  0.00  0.00    +0.000 OA
ENDBRANCH   1  10
BRANCH   1  14
ATOM     14  C   UNL     1       4.916   5.811  16.731  0.00  0.00    +0.000 C 
BRANCH  14  15
ATOM     15  C   UNL     1       6.354   6.329  16.623  0.00  0.00    +0.000 C 
BRANCH  15  16
ATOM     16  C   UNL     1       6.546   7.614  17.426  0.00  0.00    +0.000 C 
BRANCH  16  17
ATOM     17  C   UNL     1       8.025   7.967  17.572  0.00  0.00    +0.000 C 
BRANCH  17  18
ATOM     18  C   UNL     1       8.259   9.441  17.849  0.00  0.00    +0.000 C 
BRANCH  18  19
ATOM     19  C   UNL     1       9.096   9.575  19.117  0.00  0.00    +0.000 C 
BRANCH  19  20
ATOM     20  C   UNL     1       9.801  10.918  19.171  0.00  0.00    +0.000 C 
BRANCH  20  21
ATOM     21  C   UNL     1       9.789  11.588  17.802  0.00  0.00    +0.000 C 
BRANCH  21  22
ATOM     22  C   UNL     1      10.389  12.988  17.884  0.00  0.00    +0.000 C 
BRANCH  22  23
ATOM     23  C   UNL     1      11.354  13.243  16.740  0.00  0.00    +0.000 C 
BRANCH  23  24
ATOM     24  O   UNL     1      11.207  14.580  16.280  0.00  0.00    +0.000 OA
ATOM     25  H   UNL     1      10.256  14.786  16.284  0.00  0.00    +0.000 HD
ENDBRANCH  23  24
ENDBRANCH  22  23
ENDBRANCH  21  22
ENDBRANCH  20  21
ENDBRANCH  19  20
ENDBRANCH  18  19
ENDBRANCH  17  18
ENDBRANCH  16  17
ENDBRANCH  15  16
ENDBRANCH  14  15
ENDBRANCH   1  14
TORSDOF 12
ENDMDL
MODEL 2
REMARK VINA RESULT:      -6.9      1.115      2.181
REMARK  Name = 
REMARK  15 active torsions:
REMARK  status: ('A' for Active; 'I' for Inactive)
REMARK    1  A    between atoms: C_1  and  C_2
REMARK    2  A    between atoms: C_2  and  C_3
REMARK    3  A    between atoms: C_9  and  C_10
REMARK    4  A    between atoms: C_9  and  C_11
REMARK    5  A    between atoms: C_11  and  C_12
REMARK    6  A    between atoms: C_12  and  C_13
REMARK    7  A    between atoms: C_13  and  C_14
REMARK    8  A    between atoms: C_14  and  C_15
REMARK    9  A    between atoms: C_15  and  C_16
REMARK   10  A    between atoms: C_16  and  C_17
REMARK   11  A    between atoms: C_17  and  C_18
REMARK   12  A    between atoms: C_18  and  C_19
REMARK   13  A    between atoms: C_19  and  C_20
REMARK   14  A    between atoms: C_20  and  C_21
REMARK   15  A    between atoms: C_21  and  O_22
REMARK                            x       y       z     vdW  Elec       q    Type
REMARK                         _______ _______ _______ _____ _____    ______ ____
ROOT
ATOM      1  C   UNL     1       5.736   4.700  18.321  0.00  0.00    +0.000 C 
ENDROOT
BRANCH   1  10
ATOM      2  C   UNL     1       1.656   6.052  20.757  0.00  0.00    +0.000 C 
ATOM      3  C   UNL     1       2.199   4.718  20.132  0.00  0.00    +0.000 C 
ATOM      4  C   UNL     1       2.441   3.849  21.373  0.00  0.00    +0.000 C 
ATOM      5  C   UNL     1       1.088   4.232  19.178  0.00  0.00    +0.000 C 
ATOM      6  C   UNL     1       1.023   2.816  18.593  0.00  0.00    +0.000 C 
ATOM      7  C   UNL     1       1.889   1.681  19.113  0.00  0.00    +0.000 C 
ATOM      8  C   UNL     1       3.367   1.601  18.721  0.00  0.00    +0.000 C 
ATOM      9  C   UNL     1       4.389   2.682  19.080  0.00  0.00    +0.000 C 
ATOM     10  C   UNL     1       4.279   4.097  18.463  0.00  0.00    +0.000 C 
ATOM     11  C   UNL     1       3.769   4.075  17.015  0.00  0.00    +0.000 C 
ATOM     12  C   UNL     1       3.462   5.110  19.321  0.00  0.00    +0.000 C 
ATOM     13  O   UNL     1       3.791   6.308  19.273  0.00  0.00    +0.000 OA
ENDBRANCH   1  10
BRANCH   1  14
ATOM     14  C   UNL     1       6.070   5.203  16.927  0.00  0.00    +0.000 C 
BRANCH  14  15
ATOM     15  C   UNL     1       7.389   5.982  16.882  0.00  0.00    +0.000 C 
BRANCH  15  16
ATOM     16  C   UNL     1       7.169   7.467  17.167  0.00  0.00    +0.000 C 
BRANCH  16  17
ATOM     17  C   UNL     1       8.130   7.978  18.238  0.00  0.00    +0.000 C 
BRANCH  17  18
ATOM     18  C   UNL     1       8.449   9.455  18.093  0.00  0.00    +0.000 C 
BRANCH  18  19
ATOM     19  C   UNL     1       9.239   9.910  19.315  0.00  0.00    +0.000 C 
BRANCH  19  20
ATOM     20  C   UNL     1       9.621  11.375  19.210  0.00  0.00    +0.000 C 
BRANCH  20  21
ATOM     21  C   UNL     1      10.127  11.701  17.809  0.00  0.00    +0.000 C 
BRANCH  21  22
ATOM     22  C   UNL     1      10.574  13.156  17.725  0.00  0.00    +0.000 C 
BRANCH  22  23
ATOM     23  C   UNL     1      11.298  13.437  16.420  0.00  0.00    +0.000 C 
BRANCH  23  24
ATOM     24  O   UNL     1      11.367  14.841  16.205  0.00  0.00    +0.000 OA
ATOM     25  H   UNL     1      10.542  15.228  16.544  0.00  0.00    +0.000 HD
ENDBRANCH  23  24
ENDBRANCH  22  23
ENDBRANCH  21  22
ENDBRANCH  20  21
ENDBRANCH  19  20
ENDBRANCH  18  19
ENDBRANCH  17  18
ENDBRANCH  16  17
ENDBRANCH  15  16
ENDBRANCH  14  15
ENDBRANCH   1  14
TORSDOF 12
ENDMDL
MODEL 3
REMARK VINA RESULT:      -6.8      4.327      6.394
REMARK  Name = 
REMARK  15 active torsions:
REMARK  status: ('A' for Active; 'I' for Inactive)
REMARK    1  A    between atoms: C_1  and  C_2
REMARK    2  A    between atoms: C_2  and  C_3
REMARK    3  A    between atoms: C_9  and  C_10
REMARK    4  A    between atoms: C_9  and  C_11
REMARK    5  A    between atoms: C_11  and  C_12
REMARK    6  A    between atoms: C_12  and  C_13
REMARK    7  A    between atoms: C_13  and  C_14
REMARK    8  A    between atoms: C_14  and  C_15
REMARK    9  A    between atoms: C_15  and  C_16
REMARK   10  A    between atoms: C_16  and  C_17
REMARK   11  A    between atoms: C_17  and  C_18
REMARK   12  A    between atoms: C_18  and  C_19
REMARK   13  A    between atoms: C_19  and  C_20
REMARK   14  A    between atoms: C_20  and  C_21
REMARK   15  A    between atoms: C_21  and  O_22
REMARK                            x       y       z     vdW  Elec       q    Type
REMARK                         _______ _______ _______ _____ _____    ______ ____
ROOT
ATOM      1  C   UNL     1       4.562   6.202  18.239  0.00  0.00    +0.000 C 
ENDROOT
BRANCH   1  10
ATOM      2  C   UNL     1       4.854   1.821  20.505  0.00  0.00    +0.000 C 
ATOM      3  C   UNL     1       3.765   2.580  19.665  0.00  0.00    +0.000 C 
ATOM      4  C   UNL     1       3.673   1.720  18.398  0.00  0.00    +0.000 C 
ATOM      5  C   UNL     1       2.505   2.601  20.555  0.00  0.00    +0.000 C 
ATOM      6  C   UNL     1       1.102   2.943  20.041  0.00  0.00    +0.000 C 
ATOM      7  C   UNL     1       0.776   3.022  18.559  0.00  0.00    +0.000 C 
ATOM      8  C   UNL     1       1.197   4.248  17.744  0.00  0.00    +0.000 C 
ATOM      9  C   UNL     1       2.657   4.665  17.551  0.00  0.00    +0.000 C 
ATOM     10  C   UNL     1       3.499   5.148  18.756  0.00  0.00    +0.000 C 
ATOM     11  C   UNL     1       2.675   5.955  19.770  0.00  0.00    +0.000 C 
ATOM     12  C   UNL     1       4.304   4.021  19.471  0.00  0.00    +0.000 C 
ATOM     13  O   UNL     1       5.391   4.326  19.990  0.00  0.00    +0.000 OA
ENDBRANCH   1  10
BRANCH   1  14
ATOM     14  C   UNL     1       4.209   6.841  16.906  0.00  0.00    +0.000 C 
BRANCH  14  15
ATOM     15  C   UNL     1       5.343   6.729  15.881  0.00  0.00    +0.000 C 
BRANCH  15  16
ATOM     16  C   UNL     1       6.489   5.867  16.409  0.00  0.00    +0.000 C 
BRANCH  16  17
ATOM     17  C   UNL     1       7.022   4.927  15.330  0.00  0.00    +0.000 C 
BRANCH  17  18
ATOM     18  C   UNL     1       6.195   3.662  15.183  0.00  0.00    +0.000 C 
BRANCH  18  19
ATOM     19  C   UNL     1       5.384   3.752  13.895  0.00  0.00    +0.000 C 
BRANCH  19  20
ATOM     20  C   UNL     1       6.170   3.220  12.712  0.00  0.00    +0.000 C 
BRANCH  20  21
ATOM     21  C   UNL     1       5.460   3.546  11.402  0.00  0.00    +0.000 C 
BRANCH  21  22
ATOM     22  C   UNL     1       3.958   3.314  11.534  0.00  0.00    +0.000 C 
BRANCH  22  23
ATOM     23  C   UNL     1       3.302   3.162  10.172  0.00  0.00    +0.000 C 
BRANCH  23  24
ATOM     24  O   UNL     1       2.941   4.443   9.671  0.00  0.00    +0.000 OA
ATOM     25  H   UNL     1       2.513   4.307   8.808  0.00  0.00    +0.000 HD
ENDBRANCH  23  24
ENDBRANCH  22  23
ENDBRANCH  21  22
ENDBRANCH  20  21
ENDBRANCH  19  20
ENDBRANCH  18  19
ENDBRANCH  17  18
ENDBRANCH  16  17
ENDBRANCH  15  16
ENDBRANCH  14  15
ENDBRANCH   1  14
TORSDOF 12
ENDMDL
MODEL 4
REMARK VINA RESULT:      -6.8      4.247      6.888
REMARK  Name = 
REMARK  15 active torsions:
REMARK  status: ('A' for Active; 'I' for Inactive)
REMARK    1  A    between atoms: C_1  and  C_2
REMARK    2  A    between atoms: C_2  and  C_3
REMARK    3  A    between atoms: C_9  and  C_10
REMARK    4  A    between atoms: C_9  and  C_11
REMARK    5  A    between atoms: C_11  and  C_12
REMARK    6  A    between atoms: C_12  and  C_13
REMARK    7  A    between atoms: C_13  and  C_14
REMARK    8  A    between atoms: C_14  and  C_15
REMARK    9  A    between atoms: C_15  and  C_16
REMARK   10  A    between atoms: C_16  and  C_17
REMARK   11  A    between atoms: C_17  and  C_18
REMARK   12  A    between atoms: C_18  and  C_19
REMARK   13  A    between atoms: C_19  and  C_20
REMARK   14  A    between atoms: C_20  and  C_21
REMARK   15  A    between atoms: C_21  and  O_22
REMARK                            x       y       z     vdW  Elec       q    Type
REMARK                         _______ _______ _______ _____ _____    ______ ____
ROOT
ATOM      1  C   UNL     1       5.234   5.619  18.425  0.00  0.00    +0.000 C 
ENDROOT
BRANCH   1  10
ATOM      2  C   UNL     1       0.994   5.889  20.949  0.00  0.00    +0.000 C 
ATOM      3  C   UNL     1       1.856   4.735  20.321  0.00  0.00    +0.000 C 
ATOM      4  C   UNL     1       2.343   3.978  21.563  0.00  0.00    +0.000 C 
ATOM      5  C   UNL     1       0.891   3.961  19.399  0.00  0.00    +0.000 C 
ATOM      6  C   UNL     1       1.186   2.570  18.827  0.00  0.00    +0.000 C 
ATOM      7  C   UNL     1       2.330   1.709  19.335  0.00  0.00    +0.000 C 
ATOM      8  C   UNL     1       3.769   2.013  18.908  0.00  0.00    +0.000 C 
ATOM      9  C   UNL     1       4.480   3.330  19.232  0.00  0.00    +0.000 C 
ATOM     10  C   UNL     1       3.989   4.657  18.607  0.00  0.00    +0.000 C 
ATOM     11  C   UNL     1       3.472   4.482  17.172  0.00  0.00    +0.000 C 
ATOM     12  C   UNL     1       2.954   5.433  19.477  0.00  0.00    +0.000 C 
ATOM     13  O   UNL     1       2.956   6.674  19.411  0.00  0.00    +0.000 OA
ENDBRANCH   1  10
BRANCH   1  14
ATOM     14  C   UNL     1       6.534   5.070  18.987  0.00  0.00    +0.000 C 
BRANCH  14  15
ATOM     15  C   UNL     1       7.610   4.887  17.910  0.00  0.00    +0.000 C 
BRANCH  15  16
ATOM     16  C   UNL     1       7.360   5.801  16.712  0.00  0.00    +0.000 C 
BRANCH  16  17
ATOM     17  C   UNL     1       7.138   4.996  15.433  0.00  0.00    +0.000 C 
BRANCH  17  18
ATOM     18  C   UNL     1       5.799   5.280  14.778  0.00  0.00    +0.000 C 
BRANCH  18  19
ATOM     19  C   UNL     1       5.350   4.038  14.015  0.00  0.00    +0.000 C 
BRANCH  19  20
ATOM     20  C   UNL     1       6.403   3.595  13.017  0.00  0.00    +0.000 C 
BRANCH  20  21
ATOM     21  C   UNL     1       5.785   3.385  11.639  0.00  0.00    +0.000 C 
BRANCH  21  22
ATOM     22  C   UNL     1       5.394   1.924  11.443  0.00  0.00    +0.000 C 
BRANCH  22  23
ATOM     23  C   UNL     1       6.601   1.072  11.091  0.00  0.00    +0.000 C 
BRANCH  23  24
ATOM     24  O   UNL     1       6.252  -0.304  11.164  0.00  0.00    +0.000 OA
ATOM     25  H   UNL     1       6.060  -0.506  12.096  0.00  0.00    +0.000 HD
ENDBRANCH  23  24
ENDBRANCH  22  23
ENDBRANCH  21  22
ENDBRANCH  20  21
ENDBRANCH  19  20
ENDBRANCH  18  19
ENDBRANCH  17  18
ENDBRANCH  16  17
ENDBRANCH  15  16
ENDBRANCH  14  15
ENDBRANCH   1  14
TORSDOF 12
ENDMDL
MODEL 5
REMARK VINA RESULT:      -6.7      4.655      6.535
REMARK  Name = 
REMARK  15 active torsions:
REMARK  status: ('A' for Active; 'I' for Inactive)
REMARK    1  A    between atoms: C_1  and  C_2
REMARK    2  A    between atoms: C_2  and  C_3
REMARK    3  A    between atoms: C_9  and  C_10
REMARK    4  A    between atoms: C_9  and  C_11
REMARK    5  A    between atoms: C_11  and  C_12
REMARK    6  A    between atoms: C_12  and  C_13
REMARK    7  A    between atoms: C_13  and  C_14
REMARK    8  A    between atoms: C_14  and  C_15
REMARK    9  A    between atoms: C_15  and  C_16
REMARK   10  A    between atoms: C_16  and  C_17
REMARK   11  A    between atoms: C_17  and  C_18
REMARK   12  A    between atoms: C_18  and  C_19
REMARK   13  A    between atoms: C_19  and  C_20
REMARK   14  A    between atoms: C_20  and  C_21
REMARK   15  A    between atoms: C_21  and  O_22
REMARK                            x       y       z     vdW  Elec       q    Type
REMARK                         _______ _______ _______ _____ _____    ______ ____
ROOT
ATOM      1  C   UNL     1       4.597   5.796  17.764  0.00  0.00    +0.000 C 
ENDROOT
BRANCH   1  10
ATOM      2  C   UNL     1       4.973   1.721  20.533  0.00  0.00    +0.000 C 
ATOM      3  C   UNL     1       3.806   2.480  19.804  0.00  0.00    +0.000 C 
ATOM      4  C   UNL     1       3.405   1.485  18.706  0.00  0.00    +0.000 C 
ATOM      5  C   UNL     1       2.745   2.740  20.893  0.00  0.00    +0.000 C 
ATOM      6  C   UNL     1       1.301   3.160  20.597  0.00  0.00    +0.000 C 
ATOM      7  C   UNL     1       0.704   3.090  19.201  0.00  0.00    +0.000 C 
ATOM      8  C   UNL     1       1.057   4.156  18.160  0.00  0.00    +0.000 C 
ATOM      9  C   UNL     1       2.481   4.392  17.651  0.00  0.00    +0.000 C 
ATOM     10  C   UNL     1       3.573   4.930  18.606  0.00  0.00    +0.000 C 
ATOM     11  C   UNL     1       3.025   5.936  19.628  0.00  0.00    +0.000 C 
ATOM     12  C   UNL     1       4.409   3.822  19.315  0.00  0.00    +0.000 C 
ATOM     13  O   UNL     1       5.596   4.075  19.583  0.00  0.00    +0.000 OA
ENDBRANCH   1  10
BRANCH   1  14
ATOM     14  C   UNL     1       4.625   5.463  16.282  0.00  0.00    +0.000 C 
BRANCH  14  15
ATOM     15  C   UNL     1       5.722   4.453  15.926  0.00  0.00    +0.000 C 
BRANCH  15  16
ATOM     16  C   UNL     1       6.959   5.149  15.361  0.00  0.00    +0.000 C 
BRANCH  16  17
ATOM     17  C   UNL     1       7.517   4.401  14.152  0.00  0.00    +0.000 C 
BRANCH  17  18
ATOM     18  C   UNL     1       7.674   5.284  12.928  0.00  0.00    +0.000 C 
BRANCH  18  19
ATOM     19  C   UNL     1       7.003   4.603  11.740  0.00  0.00    +0.000 C 
BRANCH  19  20
ATOM     20  C   UNL     1       6.280   3.339  12.167  0.00  0.00    +0.000 C 
BRANCH  20  21
ATOM     21  C   UNL     1       4.780   3.587  12.275  0.00  0.00    +0.000 C 
BRANCH  21  22
ATOM     22  C   UNL     1       4.050   2.995  11.074  0.00  0.00    +0.000 C 
BRANCH  22  23
ATOM     23  C   UNL     1       3.657   4.074  10.080  0.00  0.00    +0.000 C 
BRANCH  23  24
ATOM     24  O   UNL     1       2.674   3.566   9.188  0.00  0.00    +0.000 OA
ATOM     25  H   UNL     1       2.735   2.596   9.209  0.00  0.00    +0.000 HD
ENDBRANCH  23  24
ENDBRANCH  22  23
ENDBRANCH  21  22
ENDBRANCH  20  21
ENDBRANCH  19  20
ENDBRANCH  18  19
ENDBRANCH  17  18
ENDBRANCH  16  17
ENDBRANCH  15  16
ENDBRANCH  14  15
ENDBRANCH   1  14
TORSDOF 12
ENDMDL
MODEL 6
REMARK VINA RESULT:      -6.6      4.800      7.570
REMARK  Name = 
REMARK  15 active torsions:
REMARK  status: ('A' for Active; 'I' for Inactive)
REMARK    1  A    between atoms: C_1  and  C_2
REMARK    2  A    between atoms: C_2  and  C_3
REMARK    3  A    between atoms: C_9  and  C_10
REMARK    4  A    between atoms: C_9  and  C_11
REMARK    5  A    between atoms: C_11  and  C_12
REMARK    6  A    between atoms: C_12  and  C_13
REMARK    7  A    between atoms: C_13  and  C_14
REMARK    8  A    between atoms: C_14  and  C_15
REMARK    9  A    between atoms: C_15  and  C_16
REMARK   10  A    between atoms: C_16  and  C_17
REMARK   11  A    between atoms: C_17  and  C_18
REMARK   12  A    between atoms: C_18  and  C_19
REMARK   13  A    between atoms: C_19  and  C_20
REMARK   14  A    between atoms: C_20  and  C_21
REMARK   15  A    between atoms: C_21  and  O_22
REMARK                            x       y       z     vdW  Elec       q    Type
REMARK                         _______ _______ _______ _____ _____    ______ ____
ROOT
ATOM      1  C   UNL     1       2.494   7.242  19.060  0.00  0.00    +0.000 C 
ENDROOT
BRANCH   1  10
ATOM      2  C   UNL     1       6.401   4.376  18.094  0.00  0.00    +0.000 C 
ATOM      3  C   UNL     1       4.841   4.190  18.081  0.00  0.00    +0.000 C 
ATOM      4  C   UNL     1       4.548   3.992  16.587  0.00  0.00    +0.000 C 
ATOM      5  C   UNL     1       4.567   2.970  18.985  0.00  0.00    +0.000 C 
ATOM      6  C   UNL     1       3.234   2.214  19.020  0.00  0.00    +0.000 C 
ATOM      7  C   UNL     1       2.154   2.421  17.971  0.00  0.00    +0.000 C 
ATOM      8  C   UNL     1       1.264   3.666  18.021  0.00  0.00    +0.000 C 
ATOM      9  C   UNL     1       1.808   5.092  17.892  0.00  0.00    +0.000 C 
ATOM     10  C   UNL     1       2.730   5.679  18.987  0.00  0.00    +0.000 C 
ATOM     11  C   UNL     1       2.352   5.204  20.398  0.00  0.00    +0.000 C 
ATOM     12  C   UNL     1       4.252   5.472  18.724  0.00  0.00    +0.000 C 
ATOM     13  O   UNL     1       5.035   6.344  19.139  0.00  0.00    +0.000 OA
ENDBRANCH   1  10
BRANCH   1  14
ATOM     14  C   UNL     1       2.310   7.910  17.708  0.00  0.00    +0.000 C 
BRANCH  14  15
ATOM     15  C   UNL     1       1.081   8.826  17.665  0.00  0.00    +0.000 C 
BRANCH  15  16
ATOM     16  C   UNL     1       1.272  10.055  18.551  0.00  0.00    +0.000 C 
BRANCH  16  17
ATOM     17  C   UNL     1      -0.060  10.551  19.111  0.00  0.00    +0.000 C 
BRANCH  17  18
ATOM     18  C   UNL     1      -0.514  11.860  18.489  0.00  0.00    +0.000 C 
BRANCH  18  19
ATOM     19  C   UNL     1      -1.888  11.654  17.861  0.00  0.00    +0.000 C 
BRANCH  19  20
ATOM     20  C   UNL     1      -2.387  10.238  18.078  0.00  0.00    +0.000 C 
BRANCH  20  21
ATOM     21  C   UNL     1      -2.929   9.653  16.778  0.00  0.00    +0.000 C 
BRANCH  21  22
ATOM     22  C   UNL     1      -2.625  10.579  15.605  0.00  0.00    +0.000 C 
BRANCH  22  23
ATOM     23  C   UNL     1      -3.427  10.192  14.374  0.00  0.00    +0.000 C 
BRANCH  23  24
ATOM     24  O   UNL     1      -2.541   9.900  13.301  0.00  0.00    +0.000 OA
ATOM     25  H   UNL     1      -2.370  10.734  12.831  0.00  0.00    +0.000 HD
ENDBRANCH  23  24
ENDBRANCH  22  23
ENDBRANCH  21  22
ENDBRANCH  20  21
ENDBRANCH  19  20
ENDBRANCH  18  19
ENDBRANCH  17  18
ENDBRANCH  16  17
ENDBRANCH  15  16
ENDBRANCH  14  15
ENDBRANCH   1  14
TORSDOF 12
ENDMDL
MODEL 7
REMARK VINA RESULT:      -6.6      1.418      1.706
REMARK  Name = 
REMARK  15 active torsions:
REMARK  status: ('A' for Active; 'I' for Inactive)
REMARK    1  A    between atoms: C_1  and  C_2
REMARK    2  A    between atoms: C_2  and  C_3
REMARK    3  A    between atoms: C_9  and  C_10
REMARK    4  A    between atoms: C_9  and  C_11
REMARK    5  A    between atoms: C_11  and  C_12
REMARK    6  A    between atoms: C_12  and  C_13
REMARK    7  A    between atoms: C_13  and  C_14
REMARK    8  A    between atoms: C_14  and  C_15
REMARK    9  A    between atoms: C_15  and  C_16
REMARK   10  A    between atoms: C_16  and  C_17
REMARK   11  A    between atoms: C_17  and  C_18
REMARK   12  A    between atoms: C_18  and  C_19
REMARK   13  A    between atoms: C_19  and  C_20
REMARK   14  A    between atoms: C_20  and  C_21
REMARK   15  A    between atoms: C_21  and  O_22
REMARK                            x       y       z     vdW  Elec       q    Type
REMARK                         _______ _______ _______ _____ _____    ______ ____
ROOT
ATOM      1  C   UNL     1       4.409   6.079  18.162  0.00  0.00    +0.000 C 
ENDROOT
BRANCH   1  10
ATOM      2  C   UNL     1       4.905   1.808  20.596  0.00  0.00    +0.000 C 
ATOM      3  C   UNL     1       3.768   2.499  19.761  0.00  0.00    +0.000 C 
ATOM      4  C   UNL     1       3.662   1.584  18.533  0.00  0.00    +0.000 C 
ATOM      5  C   UNL     1       2.535   2.520  20.689  0.00  0.00    +0.000 C 
ATOM      6  C   UNL     1       1.107   2.799  20.207  0.00  0.00    +0.000 C 
ATOM      7  C   UNL     1       0.734   2.806  18.734  0.00  0.00    +0.000 C 
ATOM      8  C   UNL     1       1.092   4.009  17.856  0.00  0.00    +0.000 C 
ATOM      9  C   UNL     1       2.532   4.459  17.599  0.00  0.00    +0.000 C 
ATOM     10  C   UNL     1       3.395   5.017  18.756  0.00  0.00    +0.000 C 
ATOM     11  C   UNL     1       2.578   5.841  19.761  0.00  0.00    +0.000 C 
ATOM     12  C   UNL     1       4.256   3.945  19.490  0.00  0.00    +0.000 C 
ATOM     13  O   UNL     1       5.349   4.303  19.961  0.00  0.00    +0.000 OA
ENDBRANCH   1  10
BRANCH   1  14
ATOM     14  C   UNL     1       4.760   5.857  16.700  0.00  0.00    +0.000 C 
BRANCH  14  15
ATOM     15  C   UNL     1       6.001   4.974  16.520  0.00  0.00    +0.000 C 
BRANCH  15  16
ATOM     16  C   UNL     1       7.287   5.786  16.662  0.00  0.00    +0.000 C 
BRANCH  16  17
ATOM     17  C   UNL     1       6.996   7.227  17.074  0.00  0.00    +0.000 C 
BRANCH  17  18
ATOM     18  C   UNL     1       8.039   7.797  18.017  0.00  0.00    +0.000 C 
BRANCH  18  19
ATOM     19  C   UNL     1       8.054   9.316  17.874  0.00  0.00    +0.000 C 
BRANCH  19  20
ATOM     20  C   UNL     1       9.039   9.950  18.838  0.00  0.00    +0.000 C 
BRANCH  20  21
ATOM     21  C   UNL     1       9.844  11.043  18.144  0.00  0.00    +0.000 C 
BRANCH  21  22
ATOM     22  C   UNL     1      10.168  12.171  19.118  0.00  0.00    +0.000 C 
BRANCH  22  23
ATOM     23  C   UNL     1      10.454  11.634  20.510  0.00  0.00    +0.000 C 
BRANCH  23  24
ATOM     24  O   UNL     1       9.768  12.421  21.475  0.00  0.00    +0.000 OA
ATOM     25  H   UNL     1       9.028  12.859  21.021  0.00  0.00    +0.000 HD
ENDBRANCH  23  24
ENDBRANCH  22  23
ENDBRANCH  21  22
ENDBRANCH  20  21
ENDBRANCH  19  20
ENDBRANCH  18  19
ENDBRANCH  17  18
ENDBRANCH  16  17
ENDBRANCH  15  16
ENDBRANCH  14  15
ENDBRANCH   1  14
TORSDOF 12
ENDMDL
MODEL 8
REMARK VINA RESULT:      -6.6      4.404      7.040
REMARK  Name = 
REMARK  15 active torsions:
REMARK  status: ('A' for Active; 'I' for Inactive)
REMARK    1  A    between atoms: C_1  and  C_2
REMARK    2  A    between atoms: C_2  and  C_3
REMARK    3  A    between atoms: C_9  and  C_10
REMARK    4  A    between atoms: C_9  and  C_11
REMARK    5  A    between atoms: C_11  and  C_12
REMARK    6  A    between atoms: C_12  and  C_13
REMARK    7  A    between atoms: C_13  and  C_14
REMARK    8  A    between atoms: C_14  and  C_15
REMARK    9  A    between atoms: C_15  and  C_16
REMARK   10  A    between atoms: C_16  and  C_17
REMARK   11  A    between atoms: C_17  and  C_18
REMARK   12  A    between atoms: C_18  and  C_19
REMARK   13  A    between atoms: C_19  and  C_20
REMARK   14  A    between atoms: C_20  and  C_21
REMARK   15  A    between atoms: C_21  and  O_22
REMARK                            x       y       z     vdW  Elec       q    Type
REMARK                         _______ _______ _______ _____ _____    ______ ____
ROOT
ATOM      1  C   UNL     1       4.502   6.255  18.400  0.00  0.00    +0.000 C 
ENDROOT
BRANCH   1  10
ATOM      2  C   UNL     1       4.919   1.777  20.446  0.00  0.00    +0.000 C 
ATOM      3  C   UNL     1       3.809   2.545  19.643  0.00  0.00    +0.000 C 
ATOM      4  C   UNL     1       3.741   1.747  18.334  0.00  0.00    +0.000 C 
ATOM      5  C   UNL     1       2.549   2.486  20.531  0.00  0.00    +0.000 C 
ATOM      6  C   UNL     1       1.137   2.813  20.032  0.00  0.00    +0.000 C 
ATOM      7  C   UNL     1       0.809   2.957  18.556  0.00  0.00    +0.000 C 
ATOM      8  C   UNL     1       1.195   4.234  17.804  0.00  0.00    +0.000 C 
ATOM      9  C   UNL     1       2.643   4.701  17.633  0.00  0.00    +0.000 C 
ATOM     10  C   UNL     1       3.470   5.147  18.862  0.00  0.00    +0.000 C 
ATOM     11  C   UNL     1       2.623   5.878  19.914  0.00  0.00    +0.000 C 
ATOM     12  C   UNL     1       4.306   4.009  19.521  0.00  0.00    +0.000 C 
ATOM     13  O   UNL     1       5.385   4.319  20.057  0.00  0.00    +0.000 OA
ENDBRANCH   1  10
BRANCH   1  14
ATOM     14  C   UNL     1       4.749   6.291  16.901  0.00  0.00    +0.000 C 
BRANCH  14  15
ATOM     15  C   UNL     1       6.155   5.812  16.524  0.00  0.00    +0.000 C 
BRANCH  15  16
ATOM     16  C   UNL     1       6.150   4.343  16.105  0.00  0.00    +0.000 C 
BRANCH  16  17
ATOM     17  C   UNL     1       5.725   4.181  14.647  0.00  0.00    +0.000 C 
BRANCH  17  18
ATOM     18  C   UNL     1       6.787   4.641  13.664  0.00  0.00    +0.000 C 
BRANCH  18  19
ATOM     19  C   UNL     1       6.764   3.720  12.449  0.00  0.00    +0.000 C 
BRANCH  19  20
ATOM     20  C   UNL     1       5.522   2.849  12.441  0.00  0.00    +0.000 C 
BRANCH  20  21
ATOM     21  C   UNL     1       5.425   2.060  11.140  0.00  0.00    +0.000 C 
BRANCH  21  22
ATOM     22  C   UNL     1       6.543   1.025  11.056  0.00  0.00    +0.000 C 
BRANCH  22  23
ATOM     23  C   UNL     1       5.984  -0.385  10.971  0.00  0.00    +0.000 C 
BRANCH  23  24
ATOM     24  O   UNL     1       5.865  -0.930  12.278  0.00  0.00    +0.000 OA
ATOM     25  H   UNL     1       6.709  -1.363  12.491  0.00  0.00    +0.000 HD
ENDBRANCH  23  24
ENDBRANCH  22  23
ENDBRANCH  21  22
ENDBRANCH  20  21
ENDBRANCH  19  20
ENDBRANCH  18  19
ENDBRANCH  17  18
ENDBRANCH  16  17
ENDBRANCH  15  16
ENDBRANCH  14  15
ENDBRANCH   1  14
TORSDOF 12
ENDMDL
MODEL 9
REMARK VINA RESULT:      -6.6      2.283      4.000
REMARK  Name = 
REMARK  15 active torsions:
REMARK  status: ('A' for Active; 'I' for Inactive)
REMARK    1  A    between atoms: C_1  and  C_2
REMARK    2  A    between atoms: C_2  and  C_3
REMARK    3  A    between atoms: C_9  and  C_10
REMARK    4  A    between atoms: C_9  and  C_11
REMARK    5  A    between atoms: C_11  and  C_12
REMARK    6  A    between atoms: C_12  and  C_13
REMARK    7  A    between atoms: C_13  and  C_14
REMARK    8  A    between atoms: C_14  and  C_15
REMARK    9  A    between atoms: C_15  and  C_16
REMARK   10  A    between atoms: C_16  and  C_17
REMARK   11  A    between atoms: C_17  and  C_18
REMARK   12  A    between atoms: C_18  and  C_19
REMARK   13  A    between atoms: C_19  and  C_20
REMARK   14  A    between atoms: C_20  and  C_21
REMARK   15  A    between atoms: C_21  and  O_22
REMARK                            x       y       z     vdW  Elec       q    Type
REMARK                         _______ _______ _______ _____ _____    ______ ____
ROOT
ATOM      1  C   UNL     1       7.925   6.837  18.312  0.00  0.00    +0.000 C 
ENDROOT
BRANCH   1  10
ATOM      2  C   UNL     1       6.393   3.607  14.901  0.00  0.00    +0.000 C 
ATOM      3  C   UNL     1       5.699   4.623  15.878  0.00  0.00    +0.000 C 
ATOM      4  C   UNL     1       5.110   5.657  14.909  0.00  0.00    +0.000 C 
ATOM      5  C   UNL     1       4.673   3.788  16.673  0.00  0.00    +0.000 C 
ATOM      6  C   UNL     1       3.540   4.395  17.508  0.00  0.00    +0.000 C 
ATOM      7  C   UNL     1       3.153   5.861  17.408  0.00  0.00    +0.000 C 
ATOM      8  C   UNL     1       4.011   6.931  18.090  0.00  0.00    +0.000 C 
ATOM      9  C   UNL     1       5.476   7.187  17.728  0.00  0.00    +0.000 C 
ATOM     10  C   UNL     1       6.551   6.110  18.012  0.00  0.00    +0.000 C 
ATOM     11  C   UNL     1       6.281   5.329  19.306  0.00  0.00    +0.000 C 
ATOM     12  C   UNL     1       6.815   5.137  16.824  0.00  0.00    +0.000 C 
ATOM     13  O   UNL     1       7.964   4.681  16.693  0.00  0.00    +0.000 OA
ENDBRANCH   1  10
BRANCH   1  14
ATOM     14  C   UNL     1       8.005   8.262  17.790  0.00  0.00    +0.000 C 
BRANCH  14  15
ATOM     15  C   UNL     1       8.765   9.195  18.740  0.00  0.00    +0.000 C 
BRANCH  15  16
ATOM     16  C   UNL     1       8.781  10.630  18.216  0.00  0.00    +0.000 C 
BRANCH  16  17
ATOM     17  C   UNL     1       9.823  11.477  18.943  0.00  0.00    +0.000 C 
BRANCH  17  18
ATOM     18  C   UNL     1      11.238  11.225  18.454  0.00  0.00    +0.000 C 
BRANCH  18  19
ATOM     19  C   UNL     1      12.197  12.104  19.250  0.00  0.00    +0.000 C 
BRANCH  19  20
ATOM     20  C   UNL     1      11.513  13.369  19.733  0.00  0.00    +0.000 C 
BRANCH  20  21
ATOM     21  C   UNL     1      12.332  14.600  19.359  0.00  0.00    +0.000 C 
BRANCH  21  22
ATOM     22  C   UNL     1      11.475  15.601  18.591  0.00  0.00    +0.000 C 
BRANCH  22  23
ATOM     23  C   UNL     1      10.626  14.909  17.538  0.00  0.00    +0.000 C 
BRANCH  23  24
ATOM     24  O   UNL     1      11.155  15.178  16.247  0.00  0.00    +0.000 OA
ATOM     25  H   UNL     1      11.204  16.145  16.148  0.00  0.00    +0.000 HD
ENDBRANCH  23  24
ENDBRANCH  22  23
ENDBRANCH  21  22
ENDBRANCH  20  21
ENDBRANCH  19  20
ENDBRANCH  18  19
ENDBRANCH  17  18
ENDBRANCH  16  17
ENDBRANCH  15  16
ENDBRANCH  14  15
ENDBRANCH   1  14
TORSDOF 12
ENDMDL
