MODEL 1
REMARK VINA RESULT:      -6.8      0.000      0.000
REMARK  Name = 
REMARK  7 active torsions:
REMARK  status: ('A' for Active; 'I' for Inactive)
REMARK    1  A    between atoms: C_1  and  N_2
REMARK    2  A    between atoms: N_2  and  C_3
REMARK    3  A    between atoms: N_2  and  C_4
REMARK    4  A    between atoms: C_4  and  N_6
REMARK    5  A    between atoms: C_10  and  C_11
REMARK    6  A    between atoms: C_12  and  C_13
REMARK    7  A    between atoms: C_12  and  C_15
REMARK                            x       y       z     vdW  Elec       q    Type
REMARK                         _______ _______ _______ _____ _____    ______ ____
ROOT
ATOM      1  C   UNL     1       3.517   5.527  17.589  0.00  0.00    +0.000 C 
ATOM      2  C   UNL     1       4.842   5.277  17.551  0.00  0.00    +0.000 C 
ENDROOT
BRANCH   2   3
ATOM      3  C   UNL     1       5.480   4.937  16.256  0.00  0.00    +0.000 A 
ATOM      4  C   UNL     1       4.785   4.234  15.261  0.00  0.00    +0.000 A 
ATOM      5  C   UNL     1       5.377   3.998  14.013  0.00  0.00    +0.000 A 
ATOM      6  C   UNL     1       6.666   4.458  13.754  0.00  0.00    +0.000 A 
ATOM      7 CL   UNL     1       7.379   4.195  12.209  0.00  0.00    +0.000 Cl
ATOM      8  C   UNL     1       7.379   5.139  14.738  0.00  0.00    +0.000 A 
ATOM      9  C   UNL     1       6.788   5.376  15.985  0.00  0.00    +0.000 A 
ENDBRANCH   2   3
BRANCH   1  14
ATOM     10  N   UNL     1       2.153   4.596  19.490  0.00  0.00    +0.000 N 
ATOM     11  C   UNL     1       1.700   5.149  20.694  0.00  0.00    +0.000 A 
ATOM     12  C   UNL     1       1.902   6.503  20.718  0.00  0.00    +0.000 A 
ATOM     13  C   UNL     1       2.569   6.829  19.528  0.00  0.00    +0.000 A 
ATOM     14  C   UNL     1       2.760   5.667  18.792  0.00  0.00    +0.000 A 
BRANCH  10  15
ATOM     15  C   UNL     1       2.097   3.189  19.184  0.00  0.00    +0.000 C 
ATOM     16  S   UNL     1       0.702   2.309  18.818  0.00  0.00    +0.000 S 
BRANCH  15  18
ATOM     17  C   UNL     1       3.758   1.685  18.069  0.00  0.00    +0.000 C 
ATOM     18  N   UNL     1       3.400   2.609  19.144  0.00  0.00    +0.000 N 
ATOM     19  C   UNL     1       4.118   2.377  20.405  0.00  0.00    +0.000 C 
ENDBRANCH  15  18
ENDBRANCH  10  15
ENDBRANCH   1  14
BRANCH   2  20
ATOM     20  C   UNL     1       5.679   5.276  18.710  0.00  0.00    +0.000 C 
ATOM     21  N   UNL     1       6.394   5.281  19.627  0.00  0.00    +0.000 NA
ENDBRANCH   2  20
TORSDOF 5
ENDMDL
MODEL 2
REMARK VINA RESULT:      -6.7      1.064      1.293
REMARK  Name = 
REMARK  7 active torsions:
REMARK  status: ('A' for Active; 'I' for Inactive)
REMARK    1  A    between atoms: C_1  and  N_2
REMARK    2  A    between atoms: N_2  and  C_3
REMARK    3  A    between atoms: N_2  and  C_4
REMARK    4  A    between atoms: C_4  and  N_6
REMARK    5  A    between atoms: C_10  and  C_11
REMARK    6  A    between atoms: C_12  and  C_13
REMARK    7  A    between atoms: C_12  and  C_15
REMARK                            x       y       z     vdW  Elec       q    Type
REMARK                         _______ _______ _______ _____ _____    ______ ____
ROOT
ATOM      1  C   UNL     1       3.638   5.404  17.688  0.00  0.00    +0.000 C 
ATOM      2  C   UNL     1       4.974   5.238  17.610  0.00  0.00    +0.000 C 
ENDROOT
BRANCH   2   3
ATOM      3  C   UNL     1       5.593   4.939  16.296  0.00  0.00    +0.000 A 
ATOM      4  C   UNL     1       4.893   4.242  15.300  0.00  0.00    +0.000 A 
ATOM      5  C   UNL     1       5.464   4.046  14.035  0.00  0.00    +0.000 A 
ATOM      6  C   UNL     1       6.739   4.538  13.761  0.00  0.00    +0.000 A 
ATOM      7 CL   UNL     1       7.426   4.323  12.198  0.00  0.00    +0.000 Cl
ATOM      8  C   UNL     1       7.456   5.213  14.746  0.00  0.00    +0.000 A 
ATOM      9  C   UNL     1       6.886   5.411  16.009  0.00  0.00    +0.000 A 
ENDBRANCH   2   3
BRANCH   1  14
ATOM     10  N   UNL     1       2.671   4.412  19.791  0.00  0.00    +0.000 N 
ATOM     11  C   UNL     1       2.109   4.982  20.939  0.00  0.00    +0.000 A 
ATOM     12  C   UNL     1       1.898   6.324  20.766  0.00  0.00    +0.000 A 
ATOM     13  C   UNL     1       2.401   6.647  19.498  0.00  0.00    +0.000 A 
ATOM     14  C   UNL     1       2.909   5.495  18.913  0.00  0.00    +0.000 A 
BRANCH  10  15
ATOM     15  C   UNL     1       3.029   3.020  19.682  0.00  0.00    +0.000 C 
ATOM     16  S   UNL     1       4.236   2.234  20.565  0.00  0.00    +0.000 S 
BRANCH  15  18
ATOM     17  C   UNL     1       2.624   2.048  17.410  0.00  0.00    +0.000 C 
ATOM     18  N   UNL     1       2.173   2.329  18.773  0.00  0.00    +0.000 N 
ATOM     19  C   UNL     1       0.717   2.476  18.909  0.00  0.00    +0.000 C 
ENDBRANCH  15  18
ENDBRANCH  10  15
ENDBRANCH   1  14
BRANCH   2  20
ATOM     20  C   UNL     1       5.843   5.289  18.743  0.00  0.00    +0.000 C 
ATOM     21  N   UNL     1       6.553   5.288  19.664  0.00  0.00    +0.000 NA
ENDBRANCH   2  20
TORSDOF 5
ENDMDL
MODEL 3
REMARK VINA RESULT:      -6.6      1.070      1.671
REMARK  Name = 
REMARK  7 active torsions:
REMARK  status: ('A' for Active; 'I' for Inactive)
REMARK    1  A    between atoms: C_1  and  N_2
REMARK    2  A    between atoms: N_2  and  C_3
REMARK    3  A    between atoms: N_2  and  C_4
REMARK    4  A    between atoms: C_4  and  N_6
REMARK    5  A    between atoms: C_10  and  C_11
REMARK    6  A    between atoms: C_12  and  C_13
REMARK    7  A    between atoms: C_12  and  C_15
REMARK                            x       y       z     vdW  Elec       q    Type
REMARK                         _______ _______ _______ _____ _____    ______ ____
ROOT
ATOM      1  C   UNL     1       3.592   5.485  17.692  0.00  0.00    +0.000 C 
ATOM      2  C   UNL     1       4.926   5.317  17.582  0.00  0.00    +0.000 C 
ENDROOT
BRANCH   2   3
ATOM      3  C   UNL     1       5.518   5.075  16.244  0.00  0.00    +0.000 A 
ATOM      4  C   UNL     1       6.844   5.430  15.956  0.00  0.00    +0.000 A 
ATOM      5  C   UNL     1       7.411   5.115  14.714  0.00  0.00    +0.000 A 
ATOM      6  C   UNL     1       6.655   4.450  13.751  0.00  0.00    +0.000 A 
ATOM      7 CL   UNL     1       7.363   4.035  12.238  0.00  0.00    +0.000 Cl
ATOM      8  C   UNL     1       5.330   4.109  14.011  0.00  0.00    +0.000 A 
ATOM      9  C   UNL     1       4.763   4.422  15.253  0.00  0.00    +0.000 A 
ENDBRANCH   2   3
BRANCH   1  14
ATOM     10  N   UNL     1       2.687   4.409  19.782  0.00  0.00    +0.000 N 
ATOM     11  C   UNL     1       2.139   4.933  20.958  0.00  0.00    +0.000 A 
ATOM     12  C   UNL     1       1.898   6.276  20.832  0.00  0.00    +0.000 A 
ATOM     13  C   UNL     1       2.369   6.648  19.565  0.00  0.00    +0.000 A 
ATOM     14  C   UNL     1       2.887   5.524  18.934  0.00  0.00    +0.000 A 
BRANCH  10  15
ATOM     15  C   UNL     1       3.069   3.029  19.622  0.00  0.00    +0.000 C 
ATOM     16  S   UNL     1       4.317   2.243  20.446  0.00  0.00    +0.000 S 
BRANCH  15  18
ATOM     17  C   UNL     1       2.624   2.096  17.341  0.00  0.00    +0.000 C 
ATOM     18  N   UNL     1       2.200   2.347  18.719  0.00  0.00    +0.000 N 
ATOM     19  C   UNL     1       0.746   2.477  18.889  0.00  0.00    +0.000 C 
ENDBRANCH  15  18
ENDBRANCH  10  15
ENDBRANCH   1  14
BRANCH   2  20
ATOM     20  C   UNL     1       5.816   5.315  18.699  0.00  0.00    +0.000 C 
ATOM     21  N   UNL     1       6.518   5.281  19.626  0.00  0.00    +0.000 NA
ENDBRANCH   2  20
TORSDOF 5
ENDMDL
MODEL 4
REMARK VINA RESULT:      -6.6      0.119      1.061
REMARK  Name = 
REMARK  7 active torsions:
REMARK  status: ('A' for Active; 'I' for Inactive)
REMARK    1  A    between atoms: C_1  and  N_2
REMARK    2  A    between atoms: N_2  and  C_3
REMARK    3  A    between atoms: N_2  and  C_4
REMARK    4  A    between atoms: C_4  and  N_6
REMARK    5  A    between atoms: C_10  and  C_11
REMARK    6  A    between atoms: C_12  and  C_13
REMARK    7  A    between atoms: C_12  and  C_15
REMARK                            x       y       z     vdW  Elec       q    Type
REMARK                         _______ _______ _______ _____ _____    ______ ____
ROOT
ATOM      1  C   UNL     1       3.474   5.604  17.588  0.00  0.00    +0.000 C 
ATOM      2  C   UNL     1       4.795   5.340  17.515  0.00  0.00    +0.000 C 
ENDROOT
BRANCH   2   3
ATOM      3  C   UNL     1       5.404   5.048  16.195  0.00  0.00    +0.000 A 
ATOM      4  C   UNL     1       6.730   5.404  15.907  0.00  0.00    +0.000 A 
ATOM      5  C   UNL     1       7.314   5.041  14.685  0.00  0.00    +0.000 A 
ATOM      6  C   UNL     1       6.575   4.329  13.743  0.00  0.00    +0.000 A 
ATOM      7 CL   UNL     1       7.304   3.858  12.257  0.00  0.00    +0.000 Cl
ATOM      8  C   UNL     1       5.250   3.987  14.003  0.00  0.00    +0.000 A 
ATOM      9  C   UNL     1       4.666   4.347  15.224  0.00  0.00    +0.000 A 
ENDBRANCH   2   3
BRANCH   1  14
ATOM     10  N   UNL     1       2.160   4.605  19.490  0.00  0.00    +0.000 N 
ATOM     11  C   UNL     1       1.726   5.119  20.717  0.00  0.00    +0.000 A 
ATOM     12  C   UNL     1       1.913   6.474  20.775  0.00  0.00    +0.000 A 
ATOM     13  C   UNL     1       2.551   6.840  19.581  0.00  0.00    +0.000 A 
ATOM     14  C   UNL     1       2.740   5.701  18.809  0.00  0.00    +0.000 A 
BRANCH  10  15
ATOM     15  C   UNL     1       2.113   3.206  19.147  0.00  0.00    +0.000 C 
ATOM     16  S   UNL     1       0.725   2.327  18.754  0.00  0.00    +0.000 S 
BRANCH  15  18
ATOM     17  C   UNL     1       3.785   1.735  18.000  0.00  0.00    +0.000 C 
ATOM     18  N   UNL     1       3.420   2.636  19.095  0.00  0.00    +0.000 N 
ATOM     19  C   UNL     1       4.141   2.383  20.350  0.00  0.00    +0.000 C 
ENDBRANCH  15  18
ENDBRANCH  10  15
ENDBRANCH   1  14
BRANCH   2  20
ATOM     20  C   UNL     1       5.652   5.282  18.656  0.00  0.00    +0.000 C 
ATOM     21  N   UNL     1       6.329   5.269  19.602  0.00  0.00    +0.000 NA
ENDBRANCH   2  20
TORSDOF 5
ENDMDL
MODEL 5
REMARK VINA RESULT:      -6.4      3.552      5.988
REMARK  Name = 
REMARK  7 active torsions:
REMARK  status: ('A' for Active; 'I' for Inactive)
REMARK    1  A    between atoms: C_1  and  N_2
REMARK    2  A    between atoms: N_2  and  C_3
REMARK    3  A    between atoms: N_2  and  C_4
REMARK    4  A    between atoms: C_4  and  N_6
REMARK    5  A    between atoms: C_10  and  C_11
REMARK    6  A    between atoms: C_12  and  C_13
REMARK    7  A    between atoms: C_12  and  C_15
REMARK                            x       y       z     vdW  Elec       q    Type
REMARK                         _______ _______ _______ _____ _____    ______ ____
ROOT
ATOM      1  C   UNL     1       2.330   5.523  17.853  0.00  0.00    +0.000 C 
ATOM      2  C   UNL     1       2.164   6.144  19.039  0.00  0.00    +0.000 C 
ENDROOT
BRANCH   2   3
ATOM      3  C   UNL     1       1.921   7.607  19.064  0.00  0.00    +0.000 A 
ATOM      4  C   UNL     1       2.124   8.402  17.927  0.00  0.00    +0.000 A 
ATOM      5  C   UNL     1       1.806   9.766  17.948  0.00  0.00    +0.000 A 
ATOM      6  C   UNL     1       1.291  10.345  19.105  0.00  0.00    +0.000 A 
ATOM      7 CL   UNL     1       0.871  12.014  19.119  0.00  0.00    +0.000 Cl
ATOM      8  C   UNL     1       1.103   9.575  20.251  0.00  0.00    +0.000 A 
ATOM      9  C   UNL     1       1.419   8.211  20.231  0.00  0.00    +0.000 A 
ENDBRANCH   2   3
BRANCH   1  14
ATOM     10  N   UNL     1       4.072   3.780  17.335  0.00  0.00    +0.000 N 
ATOM     11  C   UNL     1       4.110   2.392  17.513  0.00  0.00    +0.000 A 
ATOM     12  C   UNL     1       2.878   1.910  17.868  0.00  0.00    +0.000 A 
ATOM     13  C   UNL     1       2.035   3.024  17.993  0.00  0.00    +0.000 A 
ATOM     14  C   UNL     1       2.765   4.170  17.708  0.00  0.00    +0.000 A 
BRANCH  10  15
ATOM     15  C   UNL     1       5.223   4.573  16.983  0.00  0.00    +0.000 C 
ATOM     16  S   UNL     1       5.421   5.456  15.557  0.00  0.00    +0.000 S 
BRANCH  15  18
ATOM     17  C   UNL     1       5.856   5.245  19.311  0.00  0.00    +0.000 C 
ATOM     18  N   UNL     1       6.183   4.600  18.039  0.00  0.00    +0.000 N 
ATOM     19  C   UNL     1       7.614   4.614  17.705  0.00  0.00    +0.000 C 
ENDBRANCH  15  18
ENDBRANCH  10  15
ENDBRANCH   1  14
BRANCH   2  20
ATOM     20  C   UNL     1       2.253   5.476  20.299  0.00  0.00    +0.000 C 
ATOM     21  N   UNL     1       2.282   4.932  21.326  0.00  0.00    +0.000 NA
ENDBRANCH   2  20
TORSDOF 5
ENDMDL
MODEL 6
REMARK VINA RESULT:      -6.4      3.875      6.544
REMARK  Name = 
REMARK  7 active torsions:
REMARK  status: ('A' for Active; 'I' for Inactive)
REMARK    1  A    between atoms: C_1  and  N_2
REMARK    2  A    between atoms: N_2  and  C_3
REMARK    3  A    between atoms: N_2  and  C_4
REMARK    4  A    between atoms: C_4  and  N_6
REMARK    5  A    between atoms: C_10  and  C_11
REMARK    6  A    between atoms: C_12  and  C_13
REMARK    7  A    between atoms: C_12  and  C_15
REMARK                            x       y       z     vdW  Elec       q    Type
REMARK                         _______ _______ _______ _____ _____    ______ ____
ROOT
ATOM      1  C   UNL     1       4.299   6.865  16.789  0.00  0.00    +0.000 C 
ATOM      2  C   UNL     1       3.302   6.412  17.577  0.00  0.00    +0.000 C 
ENDROOT
BRANCH   2   3
ATOM      3  C   UNL     1       2.489   7.383  18.347  0.00  0.00    +0.000 A 
ATOM      4  C   UNL     1       2.217   7.191  19.710  0.00  0.00    +0.000 A 
ATOM      5  C   UNL     1       1.519   8.163  20.440  0.00  0.00    +0.000 A 
ATOM      6  C   UNL     1       1.084   9.328  19.812  0.00  0.00    +0.000 A 
ATOM      7 CL   UNL     1       0.255  10.535  20.717  0.00  0.00    +0.000 Cl
ATOM      8  C   UNL     1       1.326   9.525  18.454  0.00  0.00    +0.000 A 
ATOM      9  C   UNL     1       2.024   8.556  17.724  0.00  0.00    +0.000 A 
ENDBRANCH   2   3
BRANCH   1  14
ATOM     10  N   UNL     1       6.593   5.838  16.626  0.00  0.00    +0.000 N 
ATOM     11  C   UNL     1       7.117   4.803  15.844  0.00  0.00    +0.000 A 
ATOM     12  C   UNL     1       6.230   4.429  14.869  0.00  0.00    +0.000 A 
ATOM     13  C   UNL     1       5.072   5.193  15.068  0.00  0.00    +0.000 A 
ATOM     14  C   UNL     1       5.271   6.027  16.161  0.00  0.00    +0.000 A 
BRANCH  10  15
ATOM     15  C   UNL     1       7.286   6.424  17.746  0.00  0.00    +0.000 C 
ATOM     16  S   UNL     1       7.924   7.988  17.810  0.00  0.00    +0.000 S 
BRANCH  15  18
ATOM     17  C   UNL     1       6.062   4.984  19.388  0.00  0.00    +0.000 C 
ATOM     18  N   UNL     1       7.310   5.542  18.867  0.00  0.00    +0.000 N 
ATOM     19  C   UNL     1       8.372   5.691  19.872  0.00  0.00    +0.000 C 
ENDBRANCH  15  18
ENDBRANCH  10  15
ENDBRANCH   1  14
BRANCH   2  20
ATOM     20  C   UNL     1       3.002   5.026  17.752  0.00  0.00    +0.000 C 
ATOM     21  N   UNL     1       2.763   3.904  17.937  0.00  0.00    +0.000 NA
ENDBRANCH   2  20
TORSDOF 5
ENDMDL
MODEL 7
REMARK VINA RESULT:      -6.2      3.519      6.002
REMARK  Name = 
REMARK  7 active torsions:
REMARK  status: ('A' for Active; 'I' for Inactive)
REMARK    1  A    between atoms: C_1  and  N_2
REMARK    2  A    between atoms: N_2  and  C_3
REMARK    3  A    between atoms: N_2  and  C_4
REMARK    4  A    between atoms: C_4  and  N_6
REMARK    5  A    between atoms: C_10  and  C_11
REMARK    6  A    between atoms: C_12  and  C_13
REMARK    7  A    between atoms: C_12  and  C_15
REMARK                            x       y       z     vdW  Elec       q    Type
REMARK                         _______ _______ _______ _____ _____    ______ ____
ROOT
ATOM      1  C   UNL     1       2.333   5.471  17.934  0.00  0.00    +0.000 C 
ATOM      2  C   UNL     1       2.161   6.119  19.104  0.00  0.00    +0.000 C 
ENDROOT
BRANCH   2   3
ATOM      3  C   UNL     1       1.926   7.583  19.096  0.00  0.00    +0.000 A 
ATOM      4  C   UNL     1       2.137   8.350  17.941  0.00  0.00    +0.000 A 
ATOM      5  C   UNL     1       1.827   9.717  17.929  0.00  0.00    +0.000 A 
ATOM      6  C   UNL     1       1.313  10.326  19.073  0.00  0.00    +0.000 A 
ATOM      7 CL   UNL     1       0.904  11.997  19.047  0.00  0.00    +0.000 Cl
ATOM      8  C   UNL     1       1.119   9.583  20.235  0.00  0.00    +0.000 A 
ATOM      9  C   UNL     1       1.426   8.217  20.247  0.00  0.00    +0.000 A 
ENDBRANCH   2   3
BRANCH   1  14
ATOM     10  N   UNL     1       4.111   3.692  17.811  0.00  0.00    +0.000 N 
ATOM     11  C   UNL     1       4.065   2.295  17.892  0.00  0.00    +0.000 A 
ATOM     12  C   UNL     1       2.772   1.845  17.846  0.00  0.00    +0.000 A 
ATOM     13  C   UNL     1       1.954   2.983  17.805  0.00  0.00    +0.000 A 
ATOM     14  C   UNL     1       2.761   4.113  17.823  0.00  0.00    +0.000 A 
BRANCH  10  15
ATOM     15  C   UNL     1       5.333   4.456  17.859  0.00  0.00    +0.000 C 
ATOM     16  S   UNL     1       5.941   5.269  19.209  0.00  0.00    +0.000 S 
BRANCH  15  18
ATOM     17  C   UNL     1       7.501   4.499  16.608  0.00  0.00    +0.000 C 
ATOM     18  N   UNL     1       6.042   4.387  16.623  0.00  0.00    +0.000 N 
ATOM     19  C   UNL     1       5.388   4.859  15.395  0.00  0.00    +0.000 C 
ENDBRANCH  15  18
ENDBRANCH  10  15
ENDBRANCH   1  14
BRANCH   2  20
ATOM     20  C   UNL     1       2.233   5.478  20.379  0.00  0.00    +0.000 C 
ATOM     21  N   UNL     1       2.251   4.966  21.423  0.00  0.00    +0.000 NA
ENDBRANCH   2  20
TORSDOF 5
ENDMDL
MODEL 8
REMARK VINA RESULT:      -6.1      3.516      5.966
REMARK  Name = 
REMARK  7 active torsions:
REMARK  status: ('A' for Active; 'I' for Inactive)
REMARK    1  A    between atoms: C_1  and  N_2
REMARK    2  A    between atoms: N_2  and  C_3
REMARK    3  A    between atoms: N_2  and  C_4
REMARK    4  A    between atoms: C_4  and  N_6
REMARK    5  A    between atoms: C_10  and  C_11
REMARK    6  A    between atoms: C_12  and  C_13
REMARK    7  A    between atoms: C_12  and  C_15
REMARK                            x       y       z     vdW  Elec       q    Type
REMARK                         _______ _______ _______ _____ _____    ______ ____
ROOT
ATOM      1  C   UNL     1       2.312   5.480  17.863  0.00  0.00    +0.000 C 
ATOM      2  C   UNL     1       2.127   6.100  19.046  0.00  0.00    +0.000 C 
ENDROOT
BRANCH   2   3
ATOM      3  C   UNL     1       1.839   7.555  19.066  0.00  0.00    +0.000 A 
ATOM      4  C   UNL     1       1.395   8.196  20.231  0.00  0.00    +0.000 A 
ATOM      5  C   UNL     1       1.211   9.586  20.251  0.00  0.00    +0.000 A 
ATOM      6  C   UNL     1       1.461  10.340  19.107  0.00  0.00    +0.000 A 
ATOM      7 CL   UNL     1       1.265  12.049  19.143  0.00  0.00    +0.000 Cl
ATOM      8  C   UNL     1       1.882   9.716  17.934  0.00  0.00    +0.000 A 
ATOM      9  C   UNL     1       2.068   8.328  17.913  0.00  0.00    +0.000 A 
ENDBRANCH   2   3
BRANCH   1  14
ATOM     10  N   UNL     1       4.110   3.790  17.362  0.00  0.00    +0.000 N 
ATOM     11  C   UNL     1       4.188   2.404  17.541  0.00  0.00    +0.000 A 
ATOM     12  C   UNL     1       2.968   1.885  17.886  0.00  0.00    +0.000 A 
ATOM     13  C   UNL     1       2.090   2.973  18.003  0.00  0.00    +0.000 A 
ATOM     14  C   UNL     1       2.788   4.140  17.723  0.00  0.00    +0.000 A 
BRANCH  10  15
ATOM     15  C   UNL     1       5.240   4.616  17.019  0.00  0.00    +0.000 C 
ATOM     16  S   UNL     1       5.400   5.546  15.618  0.00  0.00    +0.000 S 
BRANCH  15  18
ATOM     17  C   UNL     1       5.906   5.269  19.343  0.00  0.00    +0.000 C 
ATOM     18  N   UNL     1       6.213   4.631  18.063  0.00  0.00    +0.000 N 
ATOM     19  C   UNL     1       7.640   4.641  17.710  0.00  0.00    +0.000 C 
ENDBRANCH  15  18
ENDBRANCH  10  15
ENDBRANCH   1  14
BRANCH   2  20
ATOM     20  C   UNL     1       2.237   5.440  20.309  0.00  0.00    +0.000 C 
ATOM     21  N   UNL     1       2.309   4.938  21.355  0.00  0.00    +0.000 NA
ENDBRANCH   2  20
TORSDOF 5
ENDMDL
MODEL 9
REMARK VINA RESULT:      -6.1      3.959      6.607
REMARK  Name = 
REMARK  7 active torsions:
REMARK  status: ('A' for Active; 'I' for Inactive)
REMARK    1  A    between atoms: C_1  and  N_2
REMARK    2  A    between atoms: N_2  and  C_3
REMARK    3  A    between atoms: N_2  and  C_4
REMARK    4  A    between atoms: C_4  and  N_6
REMARK    5  A    between atoms: C_10  and  C_11
REMARK    6  A    between atoms: C_12  and  C_13
REMARK    7  A    between atoms: C_12  and  C_15
REMARK                            x       y       z     vdW  Elec       q    Type
REMARK                         _______ _______ _______ _____ _____    ______ ____
ROOT
ATOM      1  C   UNL     1       4.265   7.007  16.915  0.00  0.00    +0.000 C 
ATOM      2  C   UNL     1       3.239   6.628  17.704  0.00  0.00    +0.000 C 
ENDROOT
BRANCH   2   3
ATOM      3  C   UNL     1       2.439   7.664  18.401  0.00  0.00    +0.000 A 
ATOM      4  C   UNL     1       1.913   8.767  17.713  0.00  0.00    +0.000 A 
ATOM      5  C   UNL     1       1.087   9.689  18.372  0.00  0.00    +0.000 A 
ATOM      6  C   UNL     1       0.789   9.517  19.722  0.00  0.00    +0.000 A 
ATOM      7 CL   UNL     1      -0.251  10.632  20.520  0.00  0.00    +0.000 Cl
ATOM      8  C   UNL     1       1.320   8.439  20.426  0.00  0.00    +0.000 A 
ATOM      9  C   UNL     1       2.144   7.517  19.768  0.00  0.00    +0.000 A 
ENDBRANCH   2   3
BRANCH   1  14
ATOM     10  N   UNL     1       6.548   5.946  16.831  0.00  0.00    +0.000 N 
ATOM     11  C   UNL     1       7.056   4.841  16.138  0.00  0.00    +0.000 A 
ATOM     12  C   UNL     1       6.161   4.394  15.203  0.00  0.00    +0.000 A 
ATOM     13  C   UNL     1       5.011   5.185  15.341  0.00  0.00    +0.000 A 
ATOM     14  C   UNL     1       5.225   6.108  16.357  0.00  0.00    +0.000 A 
BRANCH  10  15
ATOM     15  C   UNL     1       7.253   6.619  17.893  0.00  0.00    +0.000 C 
ATOM     16  S   UNL     1       7.975   8.143  17.793  0.00  0.00    +0.000 S 
BRANCH  15  18
ATOM     17  C   UNL     1       8.448   5.399  19.723  0.00  0.00    +0.000 C 
ATOM     18  N   UNL     1       7.208   5.871  19.107  0.00  0.00    +0.000 N 
ATOM     19  C   UNL     1       6.037   5.029  19.386  0.00  0.00    +0.000 C 
ENDBRANCH  15  18
ENDBRANCH  10  15
ENDBRANCH   1  14
BRANCH   2  20
ATOM     20  C   UNL     1       2.896   5.263  17.951  0.00  0.00    +0.000 C 
ATOM     21  N   UNL     1       2.658   4.143  18.152  0.00  0.00    +0.000 NA
ENDBRANCH   2  20
TORSDOF 5
ENDMDL
