MODEL 1
REMARK VINA RESULT:      -6.5      0.000      0.000
REMARK  Name = 
REMARK  9 active torsions:
REMARK  status: ('A' for Active; 'I' for Inactive)
REMARK    1  A    between atoms: C_1  and  C_2
REMARK    2  A    between atoms: C_2  and  C_3
REMARK    3  A    between atoms: C_2  and  C_4
REMARK    4  A    between atoms: N_6  and  O_7
REMARK    5  A    between atoms: O_7  and  C_8
REMARK    6  A    between atoms: C_8  and  C_9
REMARK    7  A    between atoms: C_16  and  C_17
REMARK    8  A    between atoms: N_23  and  C_24
REMARK    9  A    between atoms: C_25  and  C_26
REMARK                            x       y       z     vdW  Elec       q    Type
REMARK                         _______ _______ _______ _____ _____    ______ ____
ROOT
ATOM      1  C   UNL     1       0.127  14.081  21.079  0.00  0.00    +0.000 C 
ATOM      2  C   UNL     1      -0.429  13.211  22.245  0.00  0.00    +0.000 C 
ATOM      3  N   UNL     1      -0.262  11.949  22.527  0.00  0.00    +0.000 NA
ATOM      4  C   UNL     1      -1.207  13.955  23.315  0.00  0.00    +0.000 C 
ATOM      5  C   UNL     1      -2.335  14.775  22.711  0.00  0.00    +0.000 C 
ATOM      6  N   UNL     1      -1.763  15.769  21.786  0.00  0.00    +0.000 NA
ATOM      7  C   UNL     1      -2.798  16.708  21.325  0.00  0.00    +0.000 C 
ATOM      8  C   UNL     1      -0.958  15.195  20.677  0.00  0.00    +0.000 C 
ENDROOT
BRANCH   5   9
ATOM      9  C   UNL     1      -3.511  13.944  22.185  0.00  0.00    +0.000 A 
ATOM     10  C   UNL     1      -4.648  13.765  22.990  0.00  0.00    +0.000 A 
ATOM     11  C   UNL     1      -5.752  13.036  22.529  0.00  0.00    +0.000 A 
ATOM     12  C   UNL     1      -5.745  12.486  21.250  0.00  0.00    +0.000 A 
ATOM     13  C   UNL     1      -4.631  12.646  20.440  0.00  0.00    +0.000 A 
ATOM     14  C   UNL     1      -3.526  13.356  20.911  0.00  0.00    +0.000 A 
ENDBRANCH   5   9
BRANCH   8  15
ATOM     15  C   UNL     1      -0.308  16.346  19.880  0.00  0.00    +0.000 A 
ATOM     16  C   UNL     1      -0.676  16.612  18.550  0.00  0.00    +0.000 A 
ATOM     17  C   UNL     1       0.019  17.562  17.796  0.00  0.00    +0.000 A 
ATOM     18  C   UNL     1       1.079  18.267  18.362  0.00  0.00    +0.000 A 
ATOM     19  C   UNL     1       1.441  18.034  19.687  0.00  0.00    +0.000 A 
ATOM     20  C   UNL     1       0.755  17.079  20.441  0.00  0.00    +0.000 A 
ENDBRANCH   8  15
BRANCH   1  22
ATOM     21  C   UNL     1      -0.288  13.201  18.606  0.00  0.00    +0.000 C 
ATOM     22  C   UNL     1       0.698  13.420  19.764  0.00  0.00    +0.000 C 
ATOM     23  C   UNL     1       2.027  13.990  19.259  0.00  0.00    +0.000 C 
ENDBRANCH   1  22
BRANCH   3  24
ATOM     24  O   UNL     1       0.526  11.271  21.620  0.00  0.00    +0.000 OA
BRANCH  24  25
ATOM     25  C   UNL     1      -0.096  10.065  21.172  0.00  0.00    +0.000 C 
BRANCH  25  26
ATOM     26  C   UNL     1       0.762   9.309  20.184  0.00  0.00    +0.000 A 
ATOM     27  C   UNL     1       0.893   9.784  18.873  0.00  0.00    +0.000 A 
ATOM     28  C   UNL     1       1.699   9.112  17.954  0.00  0.00    +0.000 A 
ATOM     29  C   UNL     1       2.385   7.963  18.337  0.00  0.00    +0.000 A 
ATOM     30  C   UNL     1       2.261   7.471  19.633  0.00  0.00    +0.000 A 
ATOM     31  C   UNL     1       1.443   8.137  20.552  0.00  0.00    +0.000 A 
ENDBRANCH  25  26
ENDBRANCH  24  25
ENDBRANCH   3  24
TORSDOF 6
ENDMDL
MODEL 2
REMARK VINA RESULT:      -6.4      0.968      1.325
REMARK  Name = 
REMARK  9 active torsions:
REMARK  status: ('A' for Active; 'I' for Inactive)
REMARK    1  A    between atoms: C_1  and  C_2
REMARK    2  A    between atoms: C_2  and  C_3
REMARK    3  A    between atoms: C_2  and  C_4
REMARK    4  A    between atoms: N_6  and  O_7
REMARK    5  A    between atoms: O_7  and  C_8
REMARK    6  A    between atoms: C_8  and  C_9
REMARK    7  A    between atoms: C_16  and  C_17
REMARK    8  A    between atoms: N_23  and  C_24
REMARK    9  A    between atoms: C_25  and  C_26
REMARK                            x       y       z     vdW  Elec       q    Type
REMARK                         _______ _______ _______ _____ _____    ______ ____
ROOT
ATOM      1  C   UNL     1      -0.109  12.988  20.839  0.00  0.00    +0.000 C 
ATOM      2  C   UNL     1      -0.788  12.029  21.862  0.00  0.00    +0.000 C 
ATOM      3  N   UNL     1      -0.867  10.728  21.894  0.00  0.00    +0.000 NA
ATOM      4  C   UNL     1      -1.364  12.686  23.103  0.00  0.00    +0.000 C 
ATOM      5  C   UNL     1      -2.324  13.806  22.743  0.00  0.00    +0.000 C 
ATOM      6  N   UNL     1      -1.597  14.834  21.978  0.00  0.00    +0.000 NA
ATOM      7  C   UNL     1      -2.438  16.024  21.774  0.00  0.00    +0.000 C 
ATOM      8  C   UNL     1      -0.961  14.344  20.727  0.00  0.00    +0.000 C 
ENDROOT
BRANCH   5   9
ATOM      9  C   UNL     1      -3.660  13.332  22.160  0.00  0.00    +0.000 A 
ATOM     10  C   UNL     1      -4.803  13.307  22.976  0.00  0.00    +0.000 A 
ATOM     11  C   UNL     1      -6.046  12.908  22.468  0.00  0.00    +0.000 A 
ATOM     12  C   UNL     1      -6.171  12.540  21.131  0.00  0.00    +0.000 A 
ATOM     13  C   UNL     1      -5.055  12.553  20.308  0.00  0.00    +0.000 A 
ATOM     14  C   UNL     1      -3.815  12.934  20.824  0.00  0.00    +0.000 A 
ENDBRANCH   5   9
BRANCH   8  15
ATOM     15  C   UNL     1      -0.123  15.484  20.111  0.00  0.00    +0.000 A 
ATOM     16  C   UNL     1      -0.468  16.059  18.877  0.00  0.00    +0.000 A 
ATOM     17  C   UNL     1       0.377  16.989  18.264  0.00  0.00    +0.000 A 
ATOM     18  C   UNL     1       1.570  17.364  18.878  0.00  0.00    +0.000 A 
ATOM     19  C   UNL     1       1.916  16.821  20.114  0.00  0.00    +0.000 A 
ATOM     20  C   UNL     1       1.078  15.886  20.725  0.00  0.00    +0.000 A 
ENDBRANCH   8  15
BRANCH   1  22
ATOM     21  C   UNL     1      -0.804  12.634  18.298  0.00  0.00    +0.000 C 
ATOM     22  C   UNL     1       0.272  12.499  19.387  0.00  0.00    +0.000 C 
ATOM     23  C   UNL     1       1.641  12.955  18.872  0.00  0.00    +0.000 C 
ENDBRANCH   1  22
BRANCH   3  24
ATOM     24  O   UNL     1      -0.263  10.102  20.823  0.00  0.00    +0.000 OA
BRANCH  24  25
ATOM     25  C   UNL     1       0.808   9.253  21.238  0.00  0.00    +0.000 C 
BRANCH  25  26
ATOM     26  C   UNL     1       1.482   8.567  20.073  0.00  0.00    +0.000 A 
ATOM     27  C   UNL     1       2.028   7.289  20.241  0.00  0.00    +0.000 A 
ATOM     28  C   UNL     1       2.634   6.630  19.170  0.00  0.00    +0.000 A 
ATOM     29  C   UNL     1       2.694   7.240  17.921  0.00  0.00    +0.000 A 
ATOM     30  C   UNL     1       2.164   8.513  17.735  0.00  0.00    +0.000 A 
ATOM     31  C   UNL     1       1.568   9.180  18.812  0.00  0.00    +0.000 A 
ENDBRANCH  25  26
ENDBRANCH  24  25
ENDBRANCH   3  24
TORSDOF 6
ENDMDL
MODEL 3
REMARK VINA RESULT:      -6.3      0.958      1.314
REMARK  Name = 
REMARK  9 active torsions:
REMARK  status: ('A' for Active; 'I' for Inactive)
REMARK    1  A    between atoms: C_1  and  C_2
REMARK    2  A    between atoms: C_2  and  C_3
REMARK    3  A    between atoms: C_2  and  C_4
REMARK    4  A    between atoms: N_6  and  O_7
REMARK    5  A    between atoms: O_7  and  C_8
REMARK    6  A    between atoms: C_8  and  C_9
REMARK    7  A    between atoms: C_16  and  C_17
REMARK    8  A    between atoms: N_23  and  C_24
REMARK    9  A    between atoms: C_25  and  C_26
REMARK                            x       y       z     vdW  Elec       q    Type
REMARK                         _______ _______ _______ _____ _____    ______ ____
ROOT
ATOM      1  C   UNL     1      -0.040  12.951  20.768  0.00  0.00    +0.000 C 
ATOM      2  C   UNL     1      -0.716  12.023  21.820  0.00  0.00    +0.000 C 
ATOM      3  N   UNL     1      -0.809  10.724  21.883  0.00  0.00    +0.000 NA
ATOM      4  C   UNL     1      -1.272  12.713  23.052  0.00  0.00    +0.000 C 
ATOM      5  C   UNL     1      -2.226  13.834  22.677  0.00  0.00    +0.000 C 
ATOM      6  N   UNL     1      -1.497  14.837  21.881  0.00  0.00    +0.000 NA
ATOM      7  C   UNL     1      -2.329  16.031  21.658  0.00  0.00    +0.000 C 
ATOM      8  C   UNL     1      -0.880  14.313  20.635  0.00  0.00    +0.000 C 
ENDROOT
BRANCH   5   9
ATOM      9  C   UNL     1      -3.573  13.361  22.120  0.00  0.00    +0.000 A 
ATOM     10  C   UNL     1      -4.700  13.334  22.957  0.00  0.00    +0.000 A 
ATOM     11  C   UNL     1      -5.952  12.935  22.473  0.00  0.00    +0.000 A 
ATOM     12  C   UNL     1      -6.103  12.569  21.138  0.00  0.00    +0.000 A 
ATOM     13  C   UNL     1      -5.003  12.584  20.293  0.00  0.00    +0.000 A 
ATOM     14  C   UNL     1      -3.753  12.964  20.786  0.00  0.00    +0.000 A 
ENDBRANCH   5   9
BRANCH   8  15
ATOM     15  C   UNL     1      -0.037  15.430  19.984  0.00  0.00    +0.000 A 
ATOM     16  C   UNL     1       1.105  15.947  20.618  0.00  0.00    +0.000 A 
ATOM     17  C   UNL     1       1.775  17.052  20.086  0.00  0.00    +0.000 A 
ATOM     18  C   UNL     1       1.323  17.647  18.910  0.00  0.00    +0.000 A 
ATOM     19  C   UNL     1       0.207  17.131  18.255  0.00  0.00    +0.000 A 
ATOM     20  C   UNL     1      -0.471  16.032  18.788  0.00  0.00    +0.000 A 
ENDBRANCH   8  15
BRANCH   1  22
ATOM     21  C   UNL     1      -0.781  12.504  18.255  0.00  0.00    +0.000 C 
ATOM     22  C   UNL     1       0.321  12.425  19.324  0.00  0.00    +0.000 C 
ATOM     23  C   UNL     1       1.668  12.894  18.765  0.00  0.00    +0.000 C 
ENDBRANCH   1  22
BRANCH   3  24
ATOM     24  O   UNL     1      -0.222  10.068  20.820  0.00  0.00    +0.000 OA
BRANCH  24  25
ATOM     25  C   UNL     1       0.855   9.229  21.241  0.00  0.00    +0.000 C 
BRANCH  25  26
ATOM     26  C   UNL     1       1.498   8.496  20.087  0.00  0.00    +0.000 A 
ATOM     27  C   UNL     1       1.563   9.104  18.827  0.00  0.00    +0.000 A 
ATOM     28  C   UNL     1       2.173   8.452  17.756  0.00  0.00    +0.000 A 
ATOM     29  C   UNL     1       2.729   7.189  17.934  0.00  0.00    +0.000 A 
ATOM     30  C   UNL     1       2.668   6.564  19.176  0.00  0.00    +0.000 A 
ATOM     31  C   UNL     1       2.044   7.212  20.248  0.00  0.00    +0.000 A 
ENDBRANCH  25  26
ENDBRANCH  24  25
ENDBRANCH   3  24
TORSDOF 6
ENDMDL
MODEL 4
REMARK VINA RESULT:      -6.3      0.423      1.292
REMARK  Name = 
REMARK  9 active torsions:
REMARK  status: ('A' for Active; 'I' for Inactive)
REMARK    1  A    between atoms: C_1  and  C_2
REMARK    2  A    between atoms: C_2  and  C_3
REMARK    3  A    between atoms: C_2  and  C_4
REMARK    4  A    between atoms: N_6  and  O_7
REMARK    5  A    between atoms: O_7  and  C_8
REMARK    6  A    between atoms: C_8  and  C_9
REMARK    7  A    between atoms: C_16  and  C_17
REMARK    8  A    between atoms: N_23  and  C_24
REMARK    9  A    between atoms: C_25  and  C_26
REMARK                            x       y       z     vdW  Elec       q    Type
REMARK                         _______ _______ _______ _____ _____    ______ ____
ROOT
ATOM      1  C   UNL     1       0.272  14.041  20.647  0.00  0.00    +0.000 C 
ATOM      2  C   UNL     1      -0.229  13.157  21.827  0.00  0.00    +0.000 C 
ATOM      3  N   UNL     1      -0.091  11.882  22.063  0.00  0.00    +0.000 NA
ATOM      4  C   UNL     1      -0.898  13.898  22.971  0.00  0.00    +0.000 C 
ATOM      5  C   UNL     1      -2.035  14.775  22.475  0.00  0.00    +0.000 C 
ATOM      6  N   UNL     1      -1.494  15.775  21.536  0.00  0.00    +0.000 NA
ATOM      7  C   UNL     1      -2.524  16.763  21.179  0.00  0.00    +0.000 C 
ATOM      8  C   UNL     1      -0.795  15.204  20.356  0.00  0.00    +0.000 C 
ENDROOT
BRANCH   5   9
ATOM      9  C   UNL     1      -3.277  14.003  22.017  0.00  0.00    +0.000 A 
ATOM     10  C   UNL     1      -3.341  13.506  20.704  0.00  0.00    +0.000 A 
ATOM     11  C   UNL     1      -4.448  12.772  20.262  0.00  0.00    +0.000 A 
ATOM     12  C   UNL     1      -5.506  12.509  21.128  0.00  0.00    +0.000 A 
ATOM     13  C   UNL     1      -5.467  12.994  22.426  0.00  0.00    +0.000 A 
ATOM     14  C   UNL     1      -4.370  13.741  22.857  0.00  0.00    +0.000 A 
ENDBRANCH   5   9
BRANCH   8  15
ATOM     15  C   UNL     1      -0.163  16.354  19.543  0.00  0.00    +0.000 A 
ATOM     16  C   UNL     1       0.854  17.157  20.085  0.00  0.00    +0.000 A 
ATOM     17  C   UNL     1       1.317  18.281  19.394  0.00  0.00    +0.000 A 
ATOM     18  C   UNL     1       0.781  18.610  18.151  0.00  0.00    +0.000 A 
ATOM     19  C   UNL     1      -0.211  17.810  17.588  0.00  0.00    +0.000 A 
ATOM     20  C   UNL     1      -0.683  16.691  18.279  0.00  0.00    +0.000 A 
ENDBRANCH   8  15
BRANCH   1  22
ATOM     21  C   UNL     1      -0.381  13.129  18.237  0.00  0.00    +0.000 C 
ATOM     22  C   UNL     1       0.719  13.398  19.275  0.00  0.00    +0.000 C 
ATOM     23  C   UNL     1       1.956  14.023  18.623  0.00  0.00    +0.000 C 
ENDBRANCH   1  22
BRANCH   3  24
ATOM     24  O   UNL     1       0.601  11.203  21.082  0.00  0.00    +0.000 OA
BRANCH  24  25
ATOM     25  C   UNL     1       0.448   9.788  21.204  0.00  0.00    +0.000 C 
BRANCH  25  26
ATOM     26  C   UNL     1       1.157   9.035  20.103  0.00  0.00    +0.000 A 
ATOM     27  C   UNL     1       1.247   9.596  18.824  0.00  0.00    +0.000 A 
ATOM     28  C   UNL     1       1.919   8.926  17.801  0.00  0.00    +0.000 A 
ATOM     29  C   UNL     1       2.511   7.691  18.048  0.00  0.00    +0.000 A 
ATOM     30  C   UNL     1       2.426   7.113  19.312  0.00  0.00    +0.000 A 
ATOM     31  C   UNL     1       1.742   7.779  20.334  0.00  0.00    +0.000 A 
ENDBRANCH  25  26
ENDBRANCH  24  25
ENDBRANCH   3  24
TORSDOF 6
ENDMDL
MODEL 5
REMARK VINA RESULT:      -6.3      2.355      3.524
REMARK  Name = 
REMARK  9 active torsions:
REMARK  status: ('A' for Active; 'I' for Inactive)
REMARK    1  A    between atoms: C_1  and  C_2
REMARK    2  A    between atoms: C_2  and  C_3
REMARK    3  A    between atoms: C_2  and  C_4
REMARK    4  A    between atoms: N_6  and  O_7
REMARK    5  A    between atoms: O_7  and  C_8
REMARK    6  A    between atoms: C_8  and  C_9
REMARK    7  A    between atoms: C_16  and  C_17
REMARK    8  A    between atoms: N_23  and  C_24
REMARK    9  A    between atoms: C_25  and  C_26
REMARK                            x       y       z     vdW  Elec       q    Type
REMARK                         _______ _______ _______ _____ _____    ______ ____
ROOT
ATOM      1  C   UNL     1       0.700  12.842  20.477  0.00  0.00    +0.000 C 
ATOM      2  C   UNL     1      -0.106  11.555  20.822  0.00  0.00    +0.000 C 
ATOM      3  N   UNL     1      -0.492  10.559  20.074  0.00  0.00    +0.000 NA
ATOM      4  C   UNL     1      -0.410  11.339  22.294  0.00  0.00    +0.000 C 
ATOM      5  C   UNL     1      -1.099  12.548  22.901  0.00  0.00    +0.000 C 
ATOM      6  N   UNL     1      -0.209  13.716  22.785  0.00  0.00    +0.000 NA
ATOM      7  C   UNL     1      -0.754  14.863  23.529  0.00  0.00    +0.000 C 
ATOM      8  C   UNL     1       0.192  14.057  21.396  0.00  0.00    +0.000 C 
ENDROOT
BRANCH   5   9
ATOM      9  C   UNL     1      -2.551  12.743  22.450  0.00  0.00    +0.000 A 
ATOM     10  C   UNL     1      -3.595  12.570  23.374  0.00  0.00    +0.000 A 
ATOM     11  C   UNL     1      -4.930  12.769  23.003  0.00  0.00    +0.000 A 
ATOM     12  C   UNL     1      -5.246  13.158  21.704  0.00  0.00    +0.000 A 
ATOM     13  C   UNL     1      -4.233  13.331  20.773  0.00  0.00    +0.000 A 
ATOM     14  C   UNL     1      -2.905  13.113  21.143  0.00  0.00    +0.000 A 
ENDBRANCH   5   9
BRANCH   8  15
ATOM     15  C   UNL     1       1.228  15.200  21.437  0.00  0.00    +0.000 A 
ATOM     16  C   UNL     1       0.932  16.473  20.924  0.00  0.00    +0.000 A 
ATOM     17  C   UNL     1       1.924  17.454  20.838  0.00  0.00    +0.000 A 
ATOM     18  C   UNL     1       3.219  17.182  21.275  0.00  0.00    +0.000 A 
ATOM     19  C   UNL     1       3.524  15.932  21.810  0.00  0.00    +0.000 A 
ATOM     20  C   UNL     1       2.537  14.946  21.888  0.00  0.00    +0.000 A 
ENDBRANCH   8  15
BRANCH   1  22
ATOM     21  C   UNL     1      -0.240  14.311  18.472  0.00  0.00    +0.000 C 
ATOM     22  C   UNL     1       0.840  13.346  18.987  0.00  0.00    +0.000 C 
ATOM     23  C   UNL     1       2.240  13.809  18.572  0.00  0.00    +0.000 C 
ENDBRANCH   1  22
BRANCH   3  24
ATOM     24  O   UNL     1      -0.141  10.686  18.746  0.00  0.00    +0.000 OA
BRANCH  24  25
ATOM     25  C   UNL     1      -0.799   9.719  17.927  0.00  0.00    +0.000 C 
BRANCH  25  26
ATOM     26  C   UNL     1      -2.076  10.252  17.321  0.00  0.00    +0.000 A 
ATOM     27  C   UNL     1      -2.938  11.037  18.096  0.00  0.00    +0.000 A 
ATOM     28  C   UNL     1      -4.110  11.557  17.547  0.00  0.00    +0.000 A 
ATOM     29  C   UNL     1      -4.430  11.302  16.217  0.00  0.00    +0.000 A 
ATOM     30  C   UNL     1      -3.590  10.517  15.432  0.00  0.00    +0.000 A 
ATOM     31  C   UNL     1      -2.421   9.985  15.986  0.00  0.00    +0.000 A 
ENDBRANCH  25  26
ENDBRANCH  24  25
ENDBRANCH   3  24
TORSDOF 6
ENDMDL
MODEL 6
REMARK VINA RESULT:      -6.2      0.875      1.740
REMARK  Name = 
REMARK  9 active torsions:
REMARK  status: ('A' for Active; 'I' for Inactive)
REMARK    1  A    between atoms: C_1  and  C_2
REMARK    2  A    between atoms: C_2  and  C_3
REMARK    3  A    between atoms: C_2  and  C_4
REMARK    4  A    between atoms: N_6  and  O_7
REMARK    5  A    between atoms: O_7  and  C_8
REMARK    6  A    between atoms: C_8  and  C_9
REMARK    7  A    between atoms: C_16  and  C_17
REMARK    8  A    between atoms: N_23  and  C_24
REMARK    9  A    between atoms: C_25  and  C_26
REMARK                            x       y       z     vdW  Elec       q    Type
REMARK                         _______ _______ _______ _____ _____    ______ ____
ROOT
ATOM      1  C   UNL     1      -0.000  13.079  20.732  0.00  0.00    +0.000 C 
ATOM      2  C   UNL     1      -0.648  12.162  21.811  0.00  0.00    +0.000 C 
ATOM      3  N   UNL     1      -0.741  10.864  21.889  0.00  0.00    +0.000 NA
ATOM      4  C   UNL     1      -1.168  12.865  23.052  0.00  0.00    +0.000 C 
ATOM      5  C   UNL     1      -2.130  13.984  22.694  0.00  0.00    +0.000 C 
ATOM      6  N   UNL     1      -1.422  14.979  21.868  0.00  0.00    +0.000 NA
ATOM      7  C   UNL     1      -2.257  16.172  21.658  0.00  0.00    +0.000 C 
ATOM      8  C   UNL     1      -0.841  14.442  20.610  0.00  0.00    +0.000 C 
ENDROOT
BRANCH   5   9
ATOM      9  C   UNL     1      -3.493  13.509  22.179  0.00  0.00    +0.000 A 
ATOM     10  C   UNL     1      -3.640  13.159  20.826  0.00  0.00    +0.000 A 
ATOM     11  C   UNL     1      -4.863  12.693  20.329  0.00  0.00    +0.000 A 
ATOM     12  C   UNL     1      -5.958  12.555  21.178  0.00  0.00    +0.000 A 
ATOM     13  C   UNL     1      -5.837  12.898  22.516  0.00  0.00    +0.000 A 
ATOM     14  C   UNL     1      -4.622  13.380  23.003  0.00  0.00    +0.000 A 
ENDBRANCH   5   9
BRANCH   8  15
ATOM     15  C   UNL     1      -0.015  15.550  19.925  0.00  0.00    +0.000 A 
ATOM     16  C   UNL     1       1.157  16.056  20.512  0.00  0.00    +0.000 A 
ATOM     17  C   UNL     1       1.816  17.155  19.953  0.00  0.00    +0.000 A 
ATOM     18  C   UNL     1       1.321  17.755  18.796  0.00  0.00    +0.000 A 
ATOM     19  C   UNL     1       0.174  17.251  18.188  0.00  0.00    +0.000 A 
ATOM     20  C   UNL     1      -0.491  16.158  18.748  0.00  0.00    +0.000 A 
ENDBRANCH   8  15
BRANCH   1  22
ATOM     21  C   UNL     1      -0.801  12.645  18.235  0.00  0.00    +0.000 C 
ATOM     22  C   UNL     1       0.319  12.539  19.283  0.00  0.00    +0.000 C 
ATOM     23  C   UNL     1       1.668  12.969  18.698  0.00  0.00    +0.000 C 
ENDBRANCH   1  22
BRANCH   3  24
ATOM     24  O   UNL     1      -0.186  10.197  20.817  0.00  0.00    +0.000 OA
BRANCH  24  25
ATOM     25  C   UNL     1       0.631   9.103  21.235  0.00  0.00    +0.000 C 
BRANCH  25  26
ATOM     26  C   UNL     1       1.402   8.489  20.089  0.00  0.00    +0.000 A 
ATOM     27  C   UNL     1       2.006   7.236  20.251  0.00  0.00    +0.000 A 
ATOM     28  C   UNL     1       2.702   6.644  19.197  0.00  0.00    +0.000 A 
ATOM     29  C   UNL     1       2.797   7.296  17.971  0.00  0.00    +0.000 A 
ATOM     30  C   UNL     1       2.209   8.545  17.793  0.00  0.00    +0.000 A 
ATOM     31  C   UNL     1       1.522   9.145  18.853  0.00  0.00    +0.000 A 
ENDBRANCH  25  26
ENDBRANCH  24  25
ENDBRANCH   3  24
TORSDOF 6
ENDMDL
MODEL 7
REMARK VINA RESULT:      -6.2      2.329      3.567
REMARK  Name = 
REMARK  9 active torsions:
REMARK  status: ('A' for Active; 'I' for Inactive)
REMARK    1  A    between atoms: C_1  and  C_2
REMARK    2  A    between atoms: C_2  and  C_3
REMARK    3  A    between atoms: C_2  and  C_4
REMARK    4  A    between atoms: N_6  and  O_7
REMARK    5  A    between atoms: O_7  and  C_8
REMARK    6  A    between atoms: C_8  and  C_9
REMARK    7  A    between atoms: C_16  and  C_17
REMARK    8  A    between atoms: N_23  and  C_24
REMARK    9  A    between atoms: C_25  and  C_26
REMARK                            x       y       z     vdW  Elec       q    Type
REMARK                         _______ _______ _______ _____ _____    ______ ____
ROOT
ATOM      1  C   UNL     1       0.703  12.716  20.507  0.00  0.00    +0.000 C 
ATOM      2  C   UNL     1      -0.122  11.455  20.902  0.00  0.00    +0.000 C 
ATOM      3  N   UNL     1      -0.523  10.436  20.193  0.00  0.00    +0.000 NA
ATOM      4  C   UNL     1      -0.428  11.300  22.381  0.00  0.00    +0.000 C 
ATOM      5  C   UNL     1      -1.099  12.541  22.941  0.00  0.00    +0.000 C 
ATOM      6  N   UNL     1      -0.192  13.692  22.780  0.00  0.00    +0.000 NA
ATOM      7  C   UNL     1      -0.721  14.874  23.479  0.00  0.00    +0.000 C 
ATOM      8  C   UNL     1       0.212  13.972  21.378  0.00  0.00    +0.000 C 
ENDROOT
BRANCH   5   9
ATOM      9  C   UNL     1      -2.549  12.740  22.483  0.00  0.00    +0.000 A 
ATOM     10  C   UNL     1      -3.598  12.556  23.399  0.00  0.00    +0.000 A 
ATOM     11  C   UNL     1      -4.931  12.758  23.021  0.00  0.00    +0.000 A 
ATOM     12  C   UNL     1      -5.239  13.160  21.724  0.00  0.00    +0.000 A 
ATOM     13  C   UNL     1      -4.220  13.343  20.802  0.00  0.00    +0.000 A 
ATOM     14  C   UNL     1      -2.894  13.123  21.178  0.00  0.00    +0.000 A 
ENDBRANCH   5   9
BRANCH   8  15
ATOM     15  C   UNL     1       1.265  15.101  21.375  0.00  0.00    +0.000 A 
ATOM     16  C   UNL     1       2.536  14.914  21.942  0.00  0.00    +0.000 A 
ATOM     17  C   UNL     1       3.427  15.985  22.060  0.00  0.00    +0.000 A 
ATOM     18  C   UNL     1       3.066  17.251  21.604  0.00  0.00    +0.000 A 
ATOM     19  C   UNL     1       1.818  17.448  21.016  0.00  0.00    +0.000 A 
ATOM     20  C   UNL     1       0.922  16.382  20.904  0.00  0.00    +0.000 A 
ENDBRANCH   8  15
BRANCH   1  22
ATOM     21  C   UNL     1      -0.261  14.055  18.423  0.00  0.00    +0.000 C 
ATOM     22  C   UNL     1       0.848  13.160  18.999  0.00  0.00    +0.000 C 
ATOM     23  C   UNL     1       2.235  13.662  18.587  0.00  0.00    +0.000 C 
ENDBRANCH   1  22
BRANCH   3  24
ATOM     24  O   UNL     1      -0.171  10.507  18.861  0.00  0.00    +0.000 OA
BRANCH  24  25
ATOM     25  C   UNL     1      -0.920   9.589  18.063  0.00  0.00    +0.000 C 
BRANCH  25  26
ATOM     26  C   UNL     1      -2.134  10.233  17.434  0.00  0.00    +0.000 A 
ATOM     27  C   UNL     1      -2.376  10.067  16.065  0.00  0.00    +0.000 A 
ATOM     28  C   UNL     1      -3.504  10.635  15.471  0.00  0.00    +0.000 A 
ATOM     29  C   UNL     1      -4.403  11.367  16.240  0.00  0.00    +0.000 A 
ATOM     30  C   UNL     1      -4.175  11.549  17.602  0.00  0.00    +0.000 A 
ATOM     31  C   UNL     1      -3.038  10.992  18.195  0.00  0.00    +0.000 A 
ENDBRANCH  25  26
ENDBRANCH  24  25
ENDBRANCH   3  24
TORSDOF 6
ENDMDL
MODEL 8
REMARK VINA RESULT:      -6.2      0.982      1.338
REMARK  Name = 
REMARK  9 active torsions:
REMARK  status: ('A' for Active; 'I' for Inactive)
REMARK    1  A    between atoms: C_1  and  C_2
REMARK    2  A    between atoms: C_2  and  C_3
REMARK    3  A    between atoms: C_2  and  C_4
REMARK    4  A    between atoms: N_6  and  O_7
REMARK    5  A    between atoms: O_7  and  C_8
REMARK    6  A    between atoms: C_8  and  C_9
REMARK    7  A    between atoms: C_16  and  C_17
REMARK    8  A    between atoms: N_23  and  C_24
REMARK    9  A    between atoms: C_25  and  C_26
REMARK                            x       y       z     vdW  Elec       q    Type
REMARK                         _______ _______ _______ _____ _____    ______ ____
ROOT
ATOM      1  C   UNL     1      -0.132  12.993  20.809  0.00  0.00    +0.000 C 
ATOM      2  C   UNL     1      -0.836  12.026  21.807  0.00  0.00    +0.000 C 
ATOM      3  N   UNL     1      -0.917  10.725  21.826  0.00  0.00    +0.000 NA
ATOM      4  C   UNL     1      -1.445  12.672  23.038  0.00  0.00    +0.000 C 
ATOM      5  C   UNL     1      -2.396  13.796  22.662  0.00  0.00    +0.000 C 
ATOM      6  N   UNL     1      -1.648  14.830  21.924  0.00  0.00    +0.000 NA
ATOM      7  C   UNL     1      -2.485  16.022  21.708  0.00  0.00    +0.000 C 
ATOM      8  C   UNL     1      -0.981  14.351  20.687  0.00  0.00    +0.000 C 
ENDROOT
BRANCH   5   9
ATOM      9  C   UNL     1      -3.716  13.327  22.040  0.00  0.00    +0.000 A 
ATOM     10  C   UNL     1      -3.760  12.986  20.678  0.00  0.00    +0.000 A 
ATOM     11  C   UNL     1      -4.942  12.527  20.085  0.00  0.00    +0.000 A 
ATOM     12  C   UNL     1      -6.099  12.386  20.846  0.00  0.00    +0.000 A 
ATOM     13  C   UNL     1      -6.081  12.721  22.192  0.00  0.00    +0.000 A 
ATOM     14  C   UNL     1      -4.905  13.196  22.774  0.00  0.00    +0.000 A 
ENDBRANCH   5   9
BRANCH   8  15
ATOM     15  C   UNL     1      -0.126  15.495  20.102  0.00  0.00    +0.000 A 
ATOM     16  C   UNL     1      -0.439  16.080  18.864  0.00  0.00    +0.000 A 
ATOM     17  C   UNL     1       0.422  17.014  18.280  0.00  0.00    +0.000 A 
ATOM     18  C   UNL     1       1.598  17.384  18.929  0.00  0.00    +0.000 A 
ATOM     19  C   UNL     1       1.911  16.832  20.169  0.00  0.00    +0.000 A 
ATOM     20  C   UNL     1       1.058  15.892  20.751  0.00  0.00    +0.000 A 
ENDBRANCH   8  15
BRANCH   1  22
ATOM     21  C   UNL     1      -0.748  12.690  18.242  0.00  0.00    +0.000 C 
ATOM     22  C   UNL     1       0.288  12.516  19.364  0.00  0.00    +0.000 C 
ATOM     23  C   UNL     1       1.683  12.949  18.902  0.00  0.00    +0.000 C 
ENDBRANCH   1  22
BRANCH   3  24
ATOM     24  O   UNL     1      -0.285  10.108  20.767  0.00  0.00    +0.000 OA
BRANCH  24  25
ATOM     25  C   UNL     1       0.912   9.444  21.174  0.00  0.00    +0.000 C 
BRANCH  25  26
ATOM     26  C   UNL     1       1.506   8.599  20.071  0.00  0.00    +0.000 A 
ATOM     27  C   UNL     1       1.631   9.129  18.781  0.00  0.00    +0.000 A 
ATOM     28  C   UNL     1       2.198   8.372  17.756  0.00  0.00    +0.000 A 
ATOM     29  C   UNL     1       2.650   7.081  18.011  0.00  0.00    +0.000 A 
ATOM     30  C   UNL     1       2.527   6.534  19.284  0.00  0.00    +0.000 A 
ATOM     31  C   UNL     1       1.947   7.287  20.310  0.00  0.00    +0.000 A 
ENDBRANCH  25  26
ENDBRANCH  24  25
ENDBRANCH   3  24
TORSDOF 6
ENDMDL
MODEL 9
REMARK VINA RESULT:      -6.1      2.339      6.770
REMARK  Name = 
REMARK  9 active torsions:
REMARK  status: ('A' for Active; 'I' for Inactive)
REMARK    1  A    between atoms: C_1  and  C_2
REMARK    2  A    between atoms: C_2  and  C_3
REMARK    3  A    between atoms: C_2  and  C_4
REMARK    4  A    between atoms: N_6  and  O_7
REMARK    5  A    between atoms: O_7  and  C_8
REMARK    6  A    between atoms: C_8  and  C_9
REMARK    7  A    between atoms: C_16  and  C_17
REMARK    8  A    between atoms: N_23  and  C_24
REMARK    9  A    between atoms: C_25  and  C_26
REMARK                            x       y       z     vdW  Elec       q    Type
REMARK                         _______ _______ _______ _____ _____    ______ ____
ROOT
ATOM      1  C   UNL     1      -1.628  11.092  19.399  0.00  0.00    +0.000 C 
ATOM      2  C   UNL     1      -2.514  12.184  20.068  0.00  0.00    +0.000 C 
ATOM      3  N   UNL     1      -3.689  12.649  19.746  0.00  0.00    +0.000 NA
ATOM      4  C   UNL     1      -2.000  12.740  21.384  0.00  0.00    +0.000 C 
ATOM      5  C   UNL     1      -0.577  13.253  21.251  0.00  0.00    +0.000 C 
ATOM      6  N   UNL     1       0.300  12.136  20.853  0.00  0.00    +0.000 NA
ATOM      7  C   UNL     1       1.714  12.542  20.899  0.00  0.00    +0.000 C 
ATOM      8  C   UNL     1      -0.078  11.474  19.578  0.00  0.00    +0.000 C 
ENDROOT
BRANCH   5   9
ATOM      9  C   UNL     1      -0.443  14.552  20.449  0.00  0.00    +0.000 A 
ATOM     10  C   UNL     1      -0.338  15.778  21.126  0.00  0.00    +0.000 A 
ATOM     11  C   UNL     1      -0.185  16.980  20.424  0.00  0.00    +0.000 A 
ATOM     12  C   UNL     1      -0.119  16.977  19.033  0.00  0.00    +0.000 A 
ATOM     13  C   UNL     1      -0.225  15.778  18.344  0.00  0.00    +0.000 A 
ATOM     14  C   UNL     1      -0.396  14.585  19.047  0.00  0.00    +0.000 A 
ENDBRANCH   5   9
BRANCH   8  15
ATOM     15  C   UNL     1       0.830  10.246  19.362  0.00  0.00    +0.000 A 
ATOM     16  C   UNL     1       1.526  10.055  18.157  0.00  0.00    +0.000 A 
ATOM     17  C   UNL     1       2.230   8.871  17.921  0.00  0.00    +0.000 A 
ATOM     18  C   UNL     1       2.258   7.867  18.888  0.00  0.00    +0.000 A 
ATOM     19  C   UNL     1       1.594   8.050  20.098  0.00  0.00    +0.000 A 
ATOM     20  C   UNL     1       0.883   9.229  20.334  0.00  0.00    +0.000 A 
ENDBRANCH   8  15
BRANCH   1  22
ATOM     21  C   UNL     1      -3.037   9.657  17.662  0.00  0.00    +0.000 C 
ATOM     22  C   UNL     1      -1.877  10.634  17.909  0.00  0.00    +0.000 C 
ATOM     23  C   UNL     1      -1.861  11.752  16.861  0.00  0.00    +0.000 C 
ENDBRANCH   1  22
BRANCH   3  24
ATOM     24  O   UNL     1      -4.222  12.087  18.605  0.00  0.00    +0.000 OA
BRANCH  24  25
ATOM     25  C   UNL     1      -5.630  12.306  18.511  0.00  0.00    +0.000 C 
BRANCH  25  26
ATOM     26  C   UNL     1      -6.413  11.439  19.470  0.00  0.00    +0.000 A 
ATOM     27  C   UNL     1      -6.916  11.992  20.654  0.00  0.00    +0.000 A 
ATOM     28  C   UNL     1      -7.661  11.212  21.539  0.00  0.00    +0.000 A 
ATOM     29  C   UNL     1      -7.914   9.875  21.248  0.00  0.00    +0.000 A 
ATOM     30  C   UNL     1      -7.415   9.305  20.080  0.00  0.00    +0.000 A 
ATOM     31  C   UNL     1      -6.657  10.083  19.198  0.00  0.00    +0.000 A 
ENDBRANCH  25  26
ENDBRANCH  24  25
ENDBRANCH   3  24
TORSDOF 6
ENDMDL
