MODEL 1
REMARK VINA RESULT:      -9.6      0.000      0.000
REMARK  Name = 
REMARK  9 active torsions:
REMARK  status: ('A' for Active; 'I' for Inactive)
REMARK    1  A    between atoms: C_1  and  C_2
REMARK    2  A    between atoms: C_5  and  N_6
REMARK    3  A    between atoms: C_8  and  C_9
REMARK    4  A    between atoms: C_9  and  C_10
REMARK    5  A    between atoms: C_9  and  C_11
REMARK    6  A    between atoms: C_9  and  C_12
REMARK    7  A    between atoms: C_14  and  N_15
REMARK    8  A    between atoms: N_18  and  C_19
REMARK    9  A    between atoms: C_22  and  N_23
REMARK                            x       y       z     vdW  Elec       q    Type
REMARK                         _______ _______ _______ _____ _____    ______ ____
ROOT
ATOM      1  N   UNL     1      -0.797  11.938  20.093  0.00  0.00    +0.000 N 
ATOM      2  C   UNL     1      -0.375  10.577  20.121  0.00  0.00    +0.000 C 
ATOM      3  O   UNL     1      -1.187   9.709  20.379  0.00  0.00    +0.000 OA
ATOM      4  N   UNL     1       0.942  10.441  19.770  0.00  0.00    +0.000 N 
ATOM      5  H   UNL     1      -0.249  12.645  19.627  0.00  0.00    +0.000 HD
ATOM      6  H   UNL     1       1.553  11.243  19.846  0.00  0.00    +0.000 HD
ENDROOT
BRANCH   4   7
ATOM      7  C   UNL     1       1.568   9.184  19.545  0.00  0.00    +0.000 A 
ATOM      8  C   UNL     1       2.109   8.838  18.308  0.00  0.00    +0.000 A 
ATOM      9  C   UNL     1       2.667   7.574  18.087  0.00  0.00    +0.000 A 
ATOM     10  C   UNL     1       2.703   6.613  19.105  0.00  0.00    +0.000 A 
ATOM     11  C   UNL     1       2.212   6.979  20.366  0.00  0.00    +0.000 A 
ATOM     12  C   UNL     1       1.660   8.260  20.587  0.00  0.00    +0.000 A 
BRANCH  10  13
ATOM     13  N   UNL     1       3.225   5.304  18.830  0.00  0.00    +0.000 N 
ATOM     14  C   UNL     1       4.528   5.022  18.444  0.00  0.00    +0.000 A 
ATOM     15  N   UNL     1       4.759   3.744  18.253  0.00  0.00    +0.000 NA
ATOM     16  C   UNL     1       3.557   3.142  18.509  0.00  0.00    +0.000 A 
ATOM     17  C   UNL     1       3.179   1.788  18.458  0.00  0.00    +0.000 A 
ATOM     18  N   UNL     1       4.061   0.768  18.133  0.00  0.00    +0.000 N 
ATOM     19  N   UNL     1       1.893   1.468  18.714  0.00  0.00    +0.000 NA
ATOM     20  C   UNL     1       1.042   2.462  19.035  0.00  0.00    +0.000 A 
ATOM     21  N   UNL     1       1.292   3.785  19.132  0.00  0.00    +0.000 NA
ATOM     22  C   UNL     1       2.581   4.070  18.854  0.00  0.00    +0.000 A 
ATOM     23  H   UNL     1       4.885   1.084  17.632  0.00  0.00    +0.000 HD
ATOM     24  H   UNL     1       3.592  -0.059  17.789  0.00  0.00    +0.000 HD
ENDBRANCH  10  13
ENDBRANCH   4   7
BRANCH   1  29
ATOM     25  N   UNL     1      -3.243  12.300  19.660  0.00  0.00    +0.000 N 
ATOM     26  N   UNL     1      -4.292  12.864  20.312  0.00  0.00    +0.000 NA
ATOM     27  C   UNL     1      -3.896  12.971  21.589  0.00  0.00    +0.000 A 
ATOM     28  C   UNL     1      -2.524  12.638  21.719  0.00  0.00    +0.000 A 
ATOM     29  C   UNL     1      -2.111  12.256  20.463  0.00  0.00    +0.000 A 
BRANCH  25  34
ATOM     30  C   UNL     1      -3.835  10.195  14.360  0.00  0.00    +0.000 C 
ATOM     31  C   UNL     1      -3.673  10.740  15.749  0.00  0.00    +0.000 A 
ATOM     32  C   UNL     1      -2.404  11.024  16.270  0.00  0.00    +0.000 A 
ATOM     33  C   UNL     1      -2.265  11.554  17.556  0.00  0.00    +0.000 A 
ATOM     34  C   UNL     1      -3.396  11.770  18.351  0.00  0.00    +0.000 A 
ATOM     35  C   UNL     1      -4.670  11.509  17.826  0.00  0.00    +0.000 A 
ATOM     36  C   UNL     1      -4.804  11.002  16.530  0.00  0.00    +0.000 A 
ENDBRANCH  25  34
BRANCH  27  37
ATOM     37  C   UNL     1      -4.839  13.444  22.695  0.00  0.00    +0.000 C 
ATOM     38  C   UNL     1      -4.442  12.897  24.084  0.00  0.00    +0.000 C 
ATOM     39  C   UNL     1      -4.828  14.986  22.782  0.00  0.00    +0.000 C 
ATOM     40  C   UNL     1      -6.278  12.981  22.391  0.00  0.00    +0.000 C 
ENDBRANCH  27  37
ENDBRANCH   1  29
TORSDOF 5
ENDMDL
MODEL 2
REMARK VINA RESULT:      -9.5      0.131      1.101
REMARK  Name = 
REMARK  9 active torsions:
REMARK  status: ('A' for Active; 'I' for Inactive)
REMARK    1  A    between atoms: C_1  and  C_2
REMARK    2  A    between atoms: C_5  and  N_6
REMARK    3  A    between atoms: C_8  and  C_9
REMARK    4  A    between atoms: C_9  and  C_10
REMARK    5  A    between atoms: C_9  and  C_11
REMARK    6  A    between atoms: C_9  and  C_12
REMARK    7  A    between atoms: C_14  and  N_15
REMARK    8  A    between atoms: N_18  and  C_19
REMARK    9  A    between atoms: C_22  and  N_23
REMARK                            x       y       z     vdW  Elec       q    Type
REMARK                         _______ _______ _______ _____ _____    ______ ____
ROOT
ATOM      1  N   UNL     1      -0.827  11.972  20.260  0.00  0.00    +0.000 N 
ATOM      2  C   UNL     1      -0.421  10.606  20.256  0.00  0.00    +0.000 C 
ATOM      3  O   UNL     1      -1.250   9.739  20.459  0.00  0.00    +0.000 OA
ATOM      4  N   UNL     1       0.905  10.466  19.943  0.00  0.00    +0.000 N 
ATOM      5  H   UNL     1      -0.257  12.687  19.836  0.00  0.00    +0.000 HD
ATOM      6  H   UNL     1       1.521  11.258  20.066  0.00  0.00    +0.000 HD
ENDROOT
BRANCH   4   7
ATOM      7  C   UNL     1       1.524   9.209  19.696  0.00  0.00    +0.000 A 
ATOM      8  C   UNL     1       2.085   8.892  18.460  0.00  0.00    +0.000 A 
ATOM      9  C   UNL     1       2.636   7.629  18.216  0.00  0.00    +0.000 A 
ATOM     10  C   UNL     1       2.645   6.642  19.209  0.00  0.00    +0.000 A 
ATOM     11  C   UNL     1       2.135   6.978  20.470  0.00  0.00    +0.000 A 
ATOM     12  C   UNL     1       1.590   8.258  20.715  0.00  0.00    +0.000 A 
BRANCH  10  13
ATOM     13  N   UNL     1       3.161   5.336  18.908  0.00  0.00    +0.000 N 
ATOM     14  C   UNL     1       4.458   5.056  18.501  0.00  0.00    +0.000 A 
ATOM     15  N   UNL     1       4.684   3.781  18.289  0.00  0.00    +0.000 NA
ATOM     16  C   UNL     1       3.485   3.177  18.553  0.00  0.00    +0.000 A 
ATOM     17  C   UNL     1       3.104   1.825  18.489  0.00  0.00    +0.000 A 
ATOM     18  N   UNL     1       3.980   0.808  18.138  0.00  0.00    +0.000 N 
ATOM     19  N   UNL     1       1.821   1.504  18.758  0.00  0.00    +0.000 NA
ATOM     20  C   UNL     1       0.977   2.495  19.103  0.00  0.00    +0.000 A 
ATOM     21  N   UNL     1       1.230   3.816  19.216  0.00  0.00    +0.000 NA
ATOM     22  C   UNL     1       2.515   4.103  18.924  0.00  0.00    +0.000 A 
ATOM     23  H   UNL     1       4.798   1.130  17.630  0.00  0.00    +0.000 HD
ATOM     24  H   UNL     1       3.505  -0.013  17.788  0.00  0.00    +0.000 HD
ENDBRANCH  10  13
ENDBRANCH   4   7
BRANCH   1  29
ATOM     25  N   UNL     1      -3.259  12.349  19.767  0.00  0.00    +0.000 N 
ATOM     26  N   UNL     1      -4.323  12.913  20.397  0.00  0.00    +0.000 NA
ATOM     27  C   UNL     1      -3.960  13.007  21.684  0.00  0.00    +0.000 A 
ATOM     28  C   UNL     1      -2.594  12.666  21.847  0.00  0.00    +0.000 A 
ATOM     29  C   UNL     1      -2.149  12.293  20.598  0.00  0.00    +0.000 A 
BRANCH  25  34
ATOM     30  C   UNL     1      -3.780  10.230  14.466  0.00  0.00    +0.000 C 
ATOM     31  C   UNL     1      -3.650  10.790  15.852  0.00  0.00    +0.000 A 
ATOM     32  C   UNL     1      -4.783  11.056  16.631  0.00  0.00    +0.000 A 
ATOM     33  C   UNL     1      -4.651  11.556  17.931  0.00  0.00    +0.000 A 
ATOM     34  C   UNL     1      -3.381  11.832  18.450  0.00  0.00    +0.000 A 
ATOM     35  C   UNL     1      -2.244  11.547  17.681  0.00  0.00    +0.000 A 
ATOM     36  C   UNL     1      -2.381  11.024  16.392  0.00  0.00    +0.000 A 
ENDBRANCH  25  34
BRANCH  27  37
ATOM     37  C   UNL     1      -4.929  13.475  22.770  0.00  0.00    +0.000 C 
ATOM     38  C   UNL     1      -6.398  13.141  22.433  0.00  0.00    +0.000 C 
ATOM     39  C   UNL     1      -4.593  12.794  24.114  0.00  0.00    +0.000 C 
ATOM     40  C   UNL     1      -4.814  15.002  22.952  0.00  0.00    +0.000 C 
ENDBRANCH  27  37
ENDBRANCH   1  29
TORSDOF 5
ENDMDL
MODEL 3
REMARK VINA RESULT:      -9.4      0.473      1.452
REMARK  Name = 
REMARK  9 active torsions:
REMARK  status: ('A' for Active; 'I' for Inactive)
REMARK    1  A    between atoms: C_1  and  C_2
REMARK    2  A    between atoms: C_5  and  N_6
REMARK    3  A    between atoms: C_8  and  C_9
REMARK    4  A    between atoms: C_9  and  C_10
REMARK    5  A    between atoms: C_9  and  C_11
REMARK    6  A    between atoms: C_9  and  C_12
REMARK    7  A    between atoms: C_14  and  N_15
REMARK    8  A    between atoms: N_18  and  C_19
REMARK    9  A    between atoms: C_22  and  N_23
REMARK                            x       y       z     vdW  Elec       q    Type
REMARK                         _______ _______ _______ _____ _____    ______ ____
ROOT
ATOM      1  N   UNL     1      -0.609  12.075  20.273  0.00  0.00    +0.000 N 
ATOM      2  C   UNL     1      -0.329  10.678  20.298  0.00  0.00    +0.000 C 
ATOM      3  O   UNL     1      -1.230   9.896  20.533  0.00  0.00    +0.000 OA
ATOM      4  N   UNL     1       0.974  10.411  19.970  0.00  0.00    +0.000 N 
ATOM      5  H   UNL     1       0.017  12.726  19.823  0.00  0.00    +0.000 HD
ATOM      6  H   UNL     1       1.661  11.145  20.064  0.00  0.00    +0.000 HD
ENDROOT
BRANCH   4   7
ATOM      7  C   UNL     1       1.472   9.097  19.745  0.00  0.00    +0.000 A 
ATOM      8  C   UNL     1       1.472   8.125  20.744  0.00  0.00    +0.000 A 
ATOM      9  C   UNL     1       2.021   6.857  20.523  0.00  0.00    +0.000 A 
ATOM     10  C   UNL     1       2.586   6.521  19.287  0.00  0.00    +0.000 A 
ATOM     11  C   UNL     1       2.534   7.477  18.263  0.00  0.00    +0.000 A 
ATOM     12  C   UNL     1       1.970   8.752  18.488  0.00  0.00    +0.000 A 
BRANCH  10  13
ATOM     13  N   UNL     1       3.197   5.234  19.111  0.00  0.00    +0.000 N 
ATOM     14  C   UNL     1       4.562   4.994  19.033  0.00  0.00    +0.000 A 
ATOM     15  N   UNL     1       4.870   3.729  18.871  0.00  0.00    +0.000 NA
ATOM     16  C   UNL     1       3.660   3.090  18.827  0.00  0.00    +0.000 A 
ATOM     17  C   UNL     1       3.345   1.730  18.659  0.00  0.00    +0.000 A 
ATOM     18  N   UNL     1       4.310   0.742  18.525  0.00  0.00    +0.000 N 
ATOM     19  N   UNL     1       2.045   1.372  18.601  0.00  0.00    +0.000 NA
ATOM     20  C   UNL     1       1.114   2.335  18.737  0.00  0.00    +0.000 A 
ATOM     21  N   UNL     1       1.294   3.660  18.921  0.00  0.00    +0.000 NA
ATOM     22  C   UNL     1       2.603   3.985  18.956  0.00  0.00    +0.000 A 
ATOM     23  H   UNL     1       5.217   1.092  18.237  0.00  0.00    +0.000 HD
ATOM     24  H   UNL     1       3.958  -0.086  18.062  0.00  0.00    +0.000 HD
ENDBRANCH  10  13
ENDBRANCH   4   7
BRANCH   1  29
ATOM     25  N   UNL     1      -3.019  12.610  19.817  0.00  0.00    +0.000 N 
ATOM     26  N   UNL     1      -4.015  13.299  20.433  0.00  0.00    +0.000 NA
ATOM     27  C   UNL     1      -3.605  13.453  21.700  0.00  0.00    +0.000 A 
ATOM     28  C   UNL     1      -2.266  13.017  21.851  0.00  0.00    +0.000 A 
ATOM     29  C   UNL     1      -1.891  12.524  20.622  0.00  0.00    +0.000 A 
BRANCH  25  34
ATOM     30  C   UNL     1      -3.866  10.171  14.699  0.00  0.00    +0.000 C 
ATOM     31  C   UNL     1      -3.651  10.815  16.037  0.00  0.00    +0.000 A 
ATOM     32  C   UNL     1      -4.731  11.098  16.883  0.00  0.00    +0.000 A 
ATOM     33  C   UNL     1      -4.519  11.676  18.139  0.00  0.00    +0.000 A 
ATOM     34  C   UNL     1      -3.222  12.014  18.545  0.00  0.00    +0.000 A 
ATOM     35  C   UNL     1      -2.137  11.711  17.710  0.00  0.00    +0.000 A 
ATOM     36  C   UNL     1      -2.353  11.110  16.467  0.00  0.00    +0.000 A 
ENDBRANCH  25  34
BRANCH  27  37
ATOM     37  C   UNL     1      -4.501  14.071  22.774  0.00  0.00    +0.000 C 
ATOM     38  C   UNL     1      -5.049  15.454  22.362  0.00  0.00    +0.000 C 
ATOM     39  C   UNL     1      -5.711  13.154  23.051  0.00  0.00    +0.000 C 
ATOM     40  C   UNL     1      -3.706  14.242  24.085  0.00  0.00    +0.000 C 
ENDBRANCH  27  37
ENDBRANCH   1  29
TORSDOF 5
ENDMDL
MODEL 4
REMARK VINA RESULT:      -9.4      0.339      1.121
REMARK  Name = 
REMARK  9 active torsions:
REMARK  status: ('A' for Active; 'I' for Inactive)
REMARK    1  A    between atoms: C_1  and  C_2
REMARK    2  A    between atoms: C_5  and  N_6
REMARK    3  A    between atoms: C_8  and  C_9
REMARK    4  A    between atoms: C_9  and  C_10
REMARK    5  A    between atoms: C_9  and  C_11
REMARK    6  A    between atoms: C_9  and  C_12
REMARK    7  A    between atoms: C_14  and  N_15
REMARK    8  A    between atoms: N_18  and  C_19
REMARK    9  A    between atoms: C_22  and  N_23
REMARK                            x       y       z     vdW  Elec       q    Type
REMARK                         _______ _______ _______ _____ _____    ______ ____
ROOT
ATOM      1  N   UNL     1      -0.674  11.982  20.186  0.00  0.00    +0.000 N 
ATOM      2  C   UNL     1      -0.368  10.591  20.223  0.00  0.00    +0.000 C 
ATOM      3  O   UNL     1      -1.254   9.794  20.471  0.00  0.00    +0.000 OA
ATOM      4  N   UNL     1       0.937  10.343  19.890  0.00  0.00    +0.000 N 
ATOM      5  H   UNL     1      -0.062  12.639  19.726  0.00  0.00    +0.000 HD
ATOM      6  H   UNL     1       1.612  11.091  19.973  0.00  0.00    +0.000 HD
ENDROOT
BRANCH   4   7
ATOM      7  C   UNL     1       1.458   9.037  19.676  0.00  0.00    +0.000 A 
ATOM      8  C   UNL     1       1.461   8.068  20.679  0.00  0.00    +0.000 A 
ATOM      9  C   UNL     1       2.031   6.808  20.469  0.00  0.00    +0.000 A 
ATOM     10  C   UNL     1       2.615   6.476  19.241  0.00  0.00    +0.000 A 
ATOM     11  C   UNL     1       2.562   7.427  18.213  0.00  0.00    +0.000 A 
ATOM     12  C   UNL     1       1.976   8.694  18.426  0.00  0.00    +0.000 A 
BRANCH  10  13
ATOM     13  N   UNL     1       3.248   5.197  19.077  0.00  0.00    +0.000 N 
ATOM     14  C   UNL     1       4.616   4.981  18.983  0.00  0.00    +0.000 A 
ATOM     15  N   UNL     1       4.945   3.719  18.837  0.00  0.00    +0.000 NA
ATOM     16  C   UNL     1       3.747   3.058  18.820  0.00  0.00    +0.000 A 
ATOM     17  C   UNL     1       3.455   1.689  18.678  0.00  0.00    +0.000 A 
ATOM     18  N   UNL     1       4.435   0.717  18.546  0.00  0.00    +0.000 N 
ATOM     19  N   UNL     1       2.161   1.307  18.644  0.00  0.00    +0.000 NA
ATOM     20  C   UNL     1       1.214   2.255  18.778  0.00  0.00    +0.000 A 
ATOM     21  N   UNL     1       1.372   3.586  18.939  0.00  0.00    +0.000 NA
ATOM     22  C   UNL     1       2.675   3.935  18.950  0.00  0.00    +0.000 A 
ATOM     23  H   UNL     1       5.333   1.079  18.239  0.00  0.00    +0.000 HD
ATOM     24  H   UNL     1       4.093  -0.124  18.101  0.00  0.00    +0.000 HD
ENDBRANCH  10  13
ENDBRANCH   4   7
BRANCH   1  29
ATOM     25  N   UNL     1      -3.089  12.495  19.731  0.00  0.00    +0.000 N 
ATOM     26  N   UNL     1      -4.094  13.164  20.353  0.00  0.00    +0.000 NA
ATOM     27  C   UNL     1      -3.689  13.306  21.624  0.00  0.00    +0.000 A 
ATOM     28  C   UNL     1      -2.345  12.883  21.772  0.00  0.00    +0.000 A 
ATOM     29  C   UNL     1      -1.961  12.411  20.537  0.00  0.00    +0.000 A 
BRANCH  25  34
ATOM     30  C   UNL     1      -3.839  10.180  14.540  0.00  0.00    +0.000 C 
ATOM     31  C   UNL     1      -3.636  10.780  15.901  0.00  0.00    +0.000 A 
ATOM     32  C   UNL     1      -2.349  11.034  16.393  0.00  0.00    +0.000 A 
ATOM     33  C   UNL     1      -2.171  11.615  17.652  0.00  0.00    +0.000 A 
ATOM     34  C   UNL     1      -3.282  11.914  18.450  0.00  0.00    +0.000 A 
ATOM     35  C   UNL     1      -4.572  11.683  17.952  0.00  0.00    +0.000 A 
ATOM     36  C   UNL     1      -4.744  11.124  16.682  0.00  0.00    +0.000 A 
ENDBRANCH  25  34
BRANCH  27  37
ATOM     37  C   UNL     1      -4.594  13.898  22.703  0.00  0.00    +0.000 C 
ATOM     38  C   UNL     1      -6.069  13.470  22.540  0.00  0.00    +0.000 C 
ATOM     39  C   UNL     1      -4.128  13.438  24.102  0.00  0.00    +0.000 C 
ATOM     40  C   UNL     1      -4.534  15.438  22.651  0.00  0.00    +0.000 C 
ENDBRANCH  27  37
ENDBRANCH   1  29
TORSDOF 5
ENDMDL
MODEL 5
REMARK VINA RESULT:      -9.4      1.470      4.097
REMARK  Name = 
REMARK  9 active torsions:
REMARK  status: ('A' for Active; 'I' for Inactive)
REMARK    1  A    between atoms: C_1  and  C_2
REMARK    2  A    between atoms: C_5  and  N_6
REMARK    3  A    between atoms: C_8  and  C_9
REMARK    4  A    between atoms: C_9  and  C_10
REMARK    5  A    between atoms: C_9  and  C_11
REMARK    6  A    between atoms: C_9  and  C_12
REMARK    7  A    between atoms: C_14  and  N_15
REMARK    8  A    between atoms: N_18  and  C_19
REMARK    9  A    between atoms: C_22  and  N_23
REMARK                            x       y       z     vdW  Elec       q    Type
REMARK                         _______ _______ _______ _____ _____    ______ ____
ROOT
ATOM      1  N   UNL     1      -1.247  11.970  19.662  0.00  0.00    +0.000 N 
ATOM      2  C   UNL     1      -0.807  10.615  19.680  0.00  0.00    +0.000 C 
ATOM      3  O   UNL     1      -1.632   9.722  19.636  0.00  0.00    +0.000 OA
ATOM      4  N   UNL     1       0.560  10.519  19.678  0.00  0.00    +0.000 N 
ATOM      5  H   UNL     1      -0.617  12.720  19.422  0.00  0.00    +0.000 HD
ATOM      6  H   UNL     1       1.105  11.313  19.983  0.00  0.00    +0.000 HD
ENDROOT
BRANCH   4   7
ATOM      7  C   UNL     1       1.259   9.291  19.514  0.00  0.00    +0.000 A 
ATOM      8  C   UNL     1       1.805   8.908  18.291  0.00  0.00    +0.000 A 
ATOM      9  C   UNL     1       2.438   7.670  18.133  0.00  0.00    +0.000 A 
ATOM     10  C   UNL     1       2.546   6.774  19.204  0.00  0.00    +0.000 A 
ATOM     11  C   UNL     1       2.049   7.181  20.449  0.00  0.00    +0.000 A 
ATOM     12  C   UNL     1       1.421   8.436  20.606  0.00  0.00    +0.000 A 
BRANCH  10  13
ATOM     13  N   UNL     1       3.144   5.485  18.995  0.00  0.00    +0.000 N 
ATOM     14  C   UNL     1       4.488   5.255  18.733  0.00  0.00    +0.000 A 
ATOM     15  N   UNL     1       4.788   3.986  18.581  0.00  0.00    +0.000 NA
ATOM     16  C   UNL     1       3.594   3.336  18.736  0.00  0.00    +0.000 A 
ATOM     17  C   UNL     1       3.278   1.967  18.669  0.00  0.00    +0.000 A 
ATOM     18  N   UNL     1       4.228   0.982  18.440  0.00  0.00    +0.000 N 
ATOM     19  N   UNL     1       1.989   1.595  18.812  0.00  0.00    +0.000 NA
ATOM     20  C   UNL     1       1.072   2.556  19.040  0.00  0.00    +0.000 A 
ATOM     21  N   UNL     1       1.257   3.889  19.142  0.00  0.00    +0.000 NA
ATOM     22  C   UNL     1       2.553   4.226  18.977  0.00  0.00    +0.000 A 
ATOM     23  H   UNL     1       5.081   1.328  18.012  0.00  0.00    +0.000 HD
ATOM     24  H   UNL     1       3.827   0.132  18.066  0.00  0.00    +0.000 HD
ENDBRANCH  10  13
ENDBRANCH   4   7
BRANCH   1  29
ATOM     25  N   UNL     1      -3.360  12.788  20.743  0.00  0.00    +0.000 N 
ATOM     26  N   UNL     1      -4.694  12.701  20.502  0.00  0.00    +0.000 NA
ATOM     27  C   UNL     1      -4.796  12.315  19.221  0.00  0.00    +0.000 A 
ATOM     28  C   UNL     1      -3.523  11.982  18.694  0.00  0.00    +0.000 A 
ATOM     29  C   UNL     1      -2.620  12.246  19.700  0.00  0.00    +0.000 A 
BRANCH  25  34
ATOM     30  C   UNL     1      -1.419  15.429  25.446  0.00  0.00    +0.000 C 
ATOM     31  C   UNL     1      -1.925  14.730  24.218  0.00  0.00    +0.000 A 
ATOM     32  C   UNL     1      -2.714  13.577  24.318  0.00  0.00    +0.000 A 
ATOM     33  C   UNL     1      -3.200  12.945  23.169  0.00  0.00    +0.000 A 
ATOM     34  C   UNL     1      -2.868  13.442  21.903  0.00  0.00    +0.000 A 
ATOM     35  C   UNL     1      -2.098  14.609  21.799  0.00  0.00    +0.000 A 
ATOM     36  C   UNL     1      -1.636  15.250  22.953  0.00  0.00    +0.000 A 
ENDBRANCH  25  34
BRANCH  27  37
ATOM     37  C   UNL     1      -6.143  12.222  18.506  0.00  0.00    +0.000 C 
ATOM     38  C   UNL     1      -6.742  10.800  18.556  0.00  0.00    +0.000 C 
ATOM     39  C   UNL     1      -7.162  13.180  19.160  0.00  0.00    +0.000 C 
ATOM     40  C   UNL     1      -5.979  12.620  17.025  0.00  0.00    +0.000 C 
ENDBRANCH  27  37
ENDBRANCH   1  29
TORSDOF 5
ENDMDL
MODEL 6
REMARK VINA RESULT:      -9.1      3.116      3.993
REMARK  Name = 
REMARK  9 active torsions:
REMARK  status: ('A' for Active; 'I' for Inactive)
REMARK    1  A    between atoms: C_1  and  C_2
REMARK    2  A    between atoms: C_5  and  N_6
REMARK    3  A    between atoms: C_8  and  C_9
REMARK    4  A    between atoms: C_9  and  C_10
REMARK    5  A    between atoms: C_9  and  C_11
REMARK    6  A    between atoms: C_9  and  C_12
REMARK    7  A    between atoms: C_14  and  N_15
REMARK    8  A    between atoms: N_18  and  C_19
REMARK    9  A    between atoms: C_22  and  N_23
REMARK                            x       y       z     vdW  Elec       q    Type
REMARK                         _______ _______ _______ _____ _____    ______ ____
ROOT
ATOM      1  N   UNL     1      -1.224  12.684  20.354  0.00  0.00    +0.000 N 
ATOM      2  C   UNL     1      -0.146  11.759  20.470  0.00  0.00    +0.000 C 
ATOM      3  O   UNL     1       0.602  11.836  21.426  0.00  0.00    +0.000 OA
ATOM      4  N   UNL     1      -0.155  10.831  19.462  0.00  0.00    +0.000 N 
ATOM      5  H   UNL     1      -2.011  12.496  19.751  0.00  0.00    +0.000 HD
ATOM      6  H   UNL     1      -0.653  11.043  18.609  0.00  0.00    +0.000 HD
ENDROOT
BRANCH   4   7
ATOM      7  C   UNL     1       0.697   9.693  19.437  0.00  0.00    +0.000 A 
ATOM      8  C   UNL     1       1.397   9.318  18.291  0.00  0.00    +0.000 A 
ATOM      9  C   UNL     1       2.184   8.161  18.267  0.00  0.00    +0.000 A 
ATOM     10  C   UNL     1       2.297   7.342  19.396  0.00  0.00    +0.000 A 
ATOM     11  C   UNL     1       1.641   7.748  20.566  0.00  0.00    +0.000 A 
ATOM     12  C   UNL     1       0.857   8.922  20.589  0.00  0.00    +0.000 A 
BRANCH  10  13
ATOM     13  N   UNL     1       3.061   6.129  19.321  0.00  0.00    +0.000 N 
ATOM     14  C   UNL     1       4.142   5.909  18.477  0.00  0.00    +0.000 A 
ATOM     15  N   UNL     1       4.674   4.715  18.598  0.00  0.00    +0.000 NA
ATOM     16  C   UNL     1       3.913   4.101  19.556  0.00  0.00    +0.000 A 
ATOM     17  C   UNL     1       3.991   2.807  20.102  0.00  0.00    +0.000 A 
ATOM     18  N   UNL     1       4.960   1.887  19.729  0.00  0.00    +0.000 N 
ATOM     19  N   UNL     1       3.067   2.435  21.012  0.00  0.00    +0.000 NA
ATOM     20  C   UNL     1       2.132   3.335  21.374  0.00  0.00    +0.000 A 
ATOM     21  N   UNL     1       1.970   4.602  20.937  0.00  0.00    +0.000 NA
ATOM     22  C   UNL     1       2.898   4.934  20.016  0.00  0.00    +0.000 A 
ATOM     23  H   UNL     1       5.390   2.086  18.832  0.00  0.00    +0.000 HD
ATOM     24  H   UNL     1       4.682   0.932  19.913  0.00  0.00    +0.000 HD
ENDBRANCH  10  13
ENDBRANCH   4   7
BRANCH   1  29
ATOM     25  N   UNL     1      -0.679  14.946  21.295  0.00  0.00    +0.000 N 
ATOM     26  N   UNL     1      -0.870  15.604  22.469  0.00  0.00    +0.000 NA
ATOM     27  C   UNL     1      -1.823  14.911  23.109  0.00  0.00    +0.000 A 
ATOM     28  C   UNL     1      -2.116  13.707  22.422  0.00  0.00    +0.000 A 
ATOM     29  C   UNL     1      -1.338  13.724  21.286  0.00  0.00    +0.000 A 
BRANCH  25  34
ATOM     30  C   UNL     1       2.287  17.381  17.036  0.00  0.00    +0.000 C 
ATOM     31  C   UNL     1       1.515  16.736  18.150  0.00  0.00    +0.000 A 
ATOM     32  C   UNL     1       2.158  15.942  19.107  0.00  0.00    +0.000 A 
ATOM     33  C   UNL     1       1.434  15.364  20.156  0.00  0.00    +0.000 A 
ATOM     34  C   UNL     1       0.048  15.546  20.233  0.00  0.00    +0.000 A 
ATOM     35  C   UNL     1      -0.596  16.358  19.289  0.00  0.00    +0.000 A 
ATOM     36  C   UNL     1       0.137  16.953  18.258  0.00  0.00    +0.000 A 
ENDBRANCH  25  34
BRANCH  27  37
ATOM     37  C   UNL     1      -2.430  15.392  24.427  0.00  0.00    +0.000 C 
ATOM     38  C   UNL     1      -3.254  16.687  24.259  0.00  0.00    +0.000 C 
ATOM     39  C   UNL     1      -3.371  14.313  25.005  0.00  0.00    +0.000 C 
ATOM     40  C   UNL     1      -1.311  15.666  25.451  0.00  0.00    +0.000 C 
ENDBRANCH  27  37
ENDBRANCH   1  29
TORSDOF 5
ENDMDL
MODEL 7
REMARK VINA RESULT:      -9.1      3.224      4.107
REMARK  Name = 
REMARK  9 active torsions:
REMARK  status: ('A' for Active; 'I' for Inactive)
REMARK    1  A    between atoms: C_1  and  C_2
REMARK    2  A    between atoms: C_5  and  N_6
REMARK    3  A    between atoms: C_8  and  C_9
REMARK    4  A    between atoms: C_9  and  C_10
REMARK    5  A    between atoms: C_9  and  C_11
REMARK    6  A    between atoms: C_9  and  C_12
REMARK    7  A    between atoms: C_14  and  N_15
REMARK    8  A    between atoms: N_18  and  C_19
REMARK    9  A    between atoms: C_22  and  N_23
REMARK                            x       y       z     vdW  Elec       q    Type
REMARK                         _______ _______ _______ _____ _____    ______ ____
ROOT
ATOM      1  N   UNL     1      -1.183  12.852  20.382  0.00  0.00    +0.000 N 
ATOM      2  C   UNL     1      -0.105  11.924  20.459  0.00  0.00    +0.000 C 
ATOM      3  O   UNL     1       0.694  12.015  21.373  0.00  0.00    +0.000 OA
ATOM      4  N   UNL     1      -0.173  10.975  19.473  0.00  0.00    +0.000 N 
ATOM      5  H   UNL     1      -2.002  12.657  19.827  0.00  0.00    +0.000 HD
ATOM      6  H   UNL     1      -0.715  11.173  18.643  0.00  0.00    +0.000 HD
ENDROOT
BRANCH   4   7
ATOM      7  C   UNL     1       0.671   9.832  19.425  0.00  0.00    +0.000 A 
ATOM      8  C   UNL     1       1.323   9.441  18.256  0.00  0.00    +0.000 A 
ATOM      9  C   UNL     1       2.102   8.280  18.212  0.00  0.00    +0.000 A 
ATOM     10  C   UNL     1       2.255   7.471  19.345  0.00  0.00    +0.000 A 
ATOM     11  C   UNL     1       1.648   7.892  20.536  0.00  0.00    +0.000 A 
ATOM     12  C   UNL     1       0.872   9.071  20.578  0.00  0.00    +0.000 A 
BRANCH  10  13
ATOM     13  N   UNL     1       3.009   6.252  19.251  0.00  0.00    +0.000 N 
ATOM     14  C   UNL     1       4.048   6.014  18.362  0.00  0.00    +0.000 A 
ATOM     15  N   UNL     1       4.579   4.820  18.475  0.00  0.00    +0.000 NA
ATOM     16  C   UNL     1       3.859   4.223  19.475  0.00  0.00    +0.000 A 
ATOM     17  C   UNL     1       3.955   2.936  20.034  0.00  0.00    +0.000 A 
ATOM     18  N   UNL     1       4.901   2.005  19.630  0.00  0.00    +0.000 N 
ATOM     19  N   UNL     1       3.072   2.582  20.990  0.00  0.00    +0.000 NA
ATOM     20  C   UNL     1       2.160   3.492  21.382  0.00  0.00    +0.000 A 
ATOM     21  N   UNL     1       1.984   4.753  20.936  0.00  0.00    +0.000 NA
ATOM     22  C   UNL     1       2.871   5.068  19.969  0.00  0.00    +0.000 A 
ATOM     23  H   UNL     1       5.292   2.190  18.712  0.00  0.00    +0.000 HD
ATOM     24  H   UNL     1       4.628   1.055  19.840  0.00  0.00    +0.000 HD
ENDBRANCH  10  13
ENDBRANCH   4   7
BRANCH   1  29
ATOM     25  N   UNL     1      -0.480  15.072  21.320  0.00  0.00    +0.000 N 
ATOM     26  N   UNL     1      -0.657  15.760  22.478  0.00  0.00    +0.000 NA
ATOM     27  C   UNL     1      -1.691  15.162  23.088  0.00  0.00    +0.000 A 
ATOM     28  C   UNL     1      -2.062  13.978  22.402  0.00  0.00    +0.000 A 
ATOM     29  C   UNL     1      -1.242  13.912  21.298  0.00  0.00    +0.000 A 
BRANCH  25  34
ATOM     30  C   UNL     1       2.787  17.150  17.093  0.00  0.00    +0.000 C 
ATOM     31  C   UNL     1       1.928  16.614  18.200  0.00  0.00    +0.000 A 
ATOM     32  C   UNL     1       0.554  16.880  18.240  0.00  0.00    +0.000 A 
ATOM     33  C   UNL     1      -0.244  16.356  19.263  0.00  0.00    +0.000 A 
ATOM     34  C   UNL     1       0.337  15.590  20.281  0.00  0.00    +0.000 A 
ATOM     35  C   UNL     1       1.709  15.303  20.232  0.00  0.00    +0.000 A 
ATOM     36  C   UNL     1       2.495  15.809  19.193  0.00  0.00    +0.000 A 
ENDBRANCH  25  34
BRANCH  27  37
ATOM     37  C   UNL     1      -2.305  15.713  24.375  0.00  0.00    +0.000 C 
ATOM     38  C   UNL     1      -1.453  15.390  25.621  0.00  0.00    +0.000 C 
ATOM     39  C   UNL     1      -2.438  17.249  24.287  0.00  0.00    +0.000 C 
ATOM     40  C   UNL     1      -3.709  15.111  24.585  0.00  0.00    +0.000 C 
ENDBRANCH  27  37
ENDBRANCH   1  29
TORSDOF 5
ENDMDL
MODEL 8
REMARK VINA RESULT:      -9.1      2.882      4.638
REMARK  Name = 
REMARK  9 active torsions:
REMARK  status: ('A' for Active; 'I' for Inactive)
REMARK    1  A    between atoms: C_1  and  C_2
REMARK    2  A    between atoms: C_5  and  N_6
REMARK    3  A    between atoms: C_8  and  C_9
REMARK    4  A    between atoms: C_9  and  C_10
REMARK    5  A    between atoms: C_9  and  C_11
REMARK    6  A    between atoms: C_9  and  C_12
REMARK    7  A    between atoms: C_14  and  N_15
REMARK    8  A    between atoms: N_18  and  C_19
REMARK    9  A    between atoms: C_22  and  N_23
REMARK                            x       y       z     vdW  Elec       q    Type
REMARK                         _______ _______ _______ _____ _____    ______ ____
ROOT
ATOM      1  N   UNL     1      -0.556  12.684  18.993  0.00  0.00    +0.000 N 
ATOM      2  C   UNL     1       0.531  11.773  19.129  0.00  0.00    +0.000 C 
ATOM      3  O   UNL     1       1.548  12.140  19.688  0.00  0.00    +0.000 OA
ATOM      4  N   UNL     1       0.224  10.530  18.641  0.00  0.00    +0.000 N 
ATOM      5  H   UNL     1      -1.490  12.357  18.797  0.00  0.00    +0.000 HD
ATOM      6  H   UNL     1      -0.533  10.441  17.977  0.00  0.00    +0.000 HD
ENDROOT
BRANCH   4   7
ATOM      7  C   UNL     1       1.059   9.392  18.812  0.00  0.00    +0.000 A 
ATOM      8  C   UNL     1       1.819   8.868  17.768  0.00  0.00    +0.000 A 
ATOM      9  C   UNL     1       2.589   7.712  17.939  0.00  0.00    +0.000 A 
ATOM     10  C   UNL     1       2.623   7.044  19.169  0.00  0.00    +0.000 A 
ATOM     11  C   UNL     1       1.905   7.601  20.236  0.00  0.00    +0.000 A 
ATOM     12  C   UNL     1       1.139   8.774  20.061  0.00  0.00    +0.000 A 
BRANCH  10  13
ATOM     13  N   UNL     1       3.372   5.825  19.295  0.00  0.00    +0.000 N 
ATOM     14  C   UNL     1       4.757   5.726  19.282  0.00  0.00    +0.000 A 
ATOM     15  N   UNL     1       5.202   4.499  19.416  0.00  0.00    +0.000 NA
ATOM     16  C   UNL     1       4.069   3.737  19.511  0.00  0.00    +0.000 A 
ATOM     17  C   UNL     1       3.905   2.348  19.656  0.00  0.00    +0.000 A 
ATOM     18  N   UNL     1       4.972   1.468  19.757  0.00  0.00    +0.000 N 
ATOM     19  N   UNL     1       2.653   1.845  19.673  0.00  0.00    +0.000 NA
ATOM     20  C   UNL     1       1.621   2.706  19.580  0.00  0.00    +0.000 A 
ATOM     21  N   UNL     1       1.654   4.049  19.457  0.00  0.00    +0.000 NA
ATOM     22  C   UNL     1       2.919   4.516  19.426  0.00  0.00    +0.000 A 
ATOM     23  H   UNL     1       5.847   1.841  19.403  0.00  0.00    +0.000 HD
ATOM     24  H   UNL     1       4.726   0.523  19.493  0.00  0.00    +0.000 HD
ENDBRANCH  10  13
ENDBRANCH   4   7
BRANCH   1  29
ATOM     25  N   UNL     1      -1.062  14.680  20.428  0.00  0.00    +0.000 N 
ATOM     26  N   UNL     1      -0.807  16.014  20.397  0.00  0.00    +0.000 NA
ATOM     27  C   UNL     1       0.189  16.160  19.511  0.00  0.00    +0.000 A 
ATOM     28  C   UNL     1       0.451  14.938  18.843  0.00  0.00    +0.000 A 
ATOM     29  C   UNL     1      -0.395  14.012  19.411  0.00  0.00    +0.000 A 
BRANCH  25  34
ATOM     30  C   UNL     1      -4.264  12.349  24.574  0.00  0.00    +0.000 C 
ATOM     31  C   UNL     1      -3.418  12.959  23.494  0.00  0.00    +0.000 A 
ATOM     32  C   UNL     1      -2.147  12.451  23.199  0.00  0.00    +0.000 A 
ATOM     33  C   UNL     1      -1.377  13.010  22.175  0.00  0.00    +0.000 A 
ATOM     34  C   UNL     1      -1.857  14.113  21.460  0.00  0.00    +0.000 A 
ATOM     35  C   UNL     1      -3.139  14.611  21.736  0.00  0.00    +0.000 A 
ATOM     36  C   UNL     1      -3.914  14.031  22.745  0.00  0.00    +0.000 A 
ENDBRANCH  25  34
BRANCH  27  37
ATOM     37  C   UNL     1       0.871  17.507  19.271  0.00  0.00    +0.000 C 
ATOM     38  C   UNL     1       0.086  18.400  18.286  0.00  0.00    +0.000 C 
ATOM     39  C   UNL     1       1.003  18.283  20.599  0.00  0.00    +0.000 C 
ATOM     40  C   UNL     1       2.283  17.284  18.692  0.00  0.00    +0.000 C 
ENDBRANCH  27  37
ENDBRANCH   1  29
TORSDOF 5
ENDMDL
MODEL 9
REMARK VINA RESULT:      -9.0      3.147      4.469
REMARK  Name = 
REMARK  9 active torsions:
REMARK  status: ('A' for Active; 'I' for Inactive)
REMARK    1  A    between atoms: C_1  and  C_2
REMARK    2  A    between atoms: C_5  and  N_6
REMARK    3  A    between atoms: C_8  and  C_9
REMARK    4  A    between atoms: C_9  and  C_10
REMARK    5  A    between atoms: C_9  and  C_11
REMARK    6  A    between atoms: C_9  and  C_12
REMARK    7  A    between atoms: C_14  and  N_15
REMARK    8  A    between atoms: N_18  and  C_19
REMARK    9  A    between atoms: C_22  and  N_23
REMARK                            x       y       z     vdW  Elec       q    Type
REMARK                         _______ _______ _______ _____ _____    ______ ____
ROOT
ATOM      1  N   UNL     1      -0.246  12.515  20.100  0.00  0.00    +0.000 N 
ATOM      2  C   UNL     1       0.646  11.419  20.282  0.00  0.00    +0.000 C 
ATOM      3  O   UNL     1       1.170  11.253  21.367  0.00  0.00    +0.000 OA
ATOM      4  N   UNL     1       0.733  10.635  19.161  0.00  0.00    +0.000 N 
ATOM      5  H   UNL     1      -0.900  12.533  19.332  0.00  0.00    +0.000 HD
ATOM      6  H   UNL     1       0.467  11.029  18.269  0.00  0.00    +0.000 HD
ENDROOT
BRANCH   4   7
ATOM      7  C   UNL     1       1.409   9.384  19.129  0.00  0.00    +0.000 A 
ATOM      8  C   UNL     1       2.167   8.981  18.031  0.00  0.00    +0.000 A 
ATOM      9  C   UNL     1       2.776   7.722  17.992  0.00  0.00    +0.000 A 
ATOM     10  C   UNL     1       2.647   6.825  19.059  0.00  0.00    +0.000 A 
ATOM     11  C   UNL     1       1.934   7.251  20.188  0.00  0.00    +0.000 A 
ATOM     12  C   UNL     1       1.330   8.527  20.227  0.00  0.00    +0.000 A 
BRANCH  10  13
ATOM     13  N   UNL     1       3.231   5.517  18.963  0.00  0.00    +0.000 N 
ATOM     14  C   UNL     1       4.592   5.243  18.932  0.00  0.00    +0.000 A 
ATOM     15  N   UNL     1       4.873   3.964  18.842  0.00  0.00    +0.000 NA
ATOM     16  C   UNL     1       3.650   3.352  18.799  0.00  0.00    +0.000 A 
ATOM     17  C   UNL     1       3.307   1.992  18.691  0.00  0.00    +0.000 A 
ATOM     18  N   UNL     1       4.251   0.977  18.631  0.00  0.00    +0.000 N 
ATOM     19  N   UNL     1       2.001   1.661  18.618  0.00  0.00    +0.000 NA
ATOM     20  C   UNL     1       1.090   2.651  18.682  0.00  0.00    +0.000 A 
ATOM     21  N   UNL     1       1.297   3.979  18.804  0.00  0.00    +0.000 NA
ATOM     22  C   UNL     1       2.612   4.275  18.856  0.00  0.00    +0.000 A 
ATOM     23  H   UNL     1       5.174   1.291  18.349  0.00  0.00    +0.000 HD
ATOM     24  H   UNL     1       3.892   0.135  18.201  0.00  0.00    +0.000 HD
ENDBRANCH  10  13
ENDBRANCH   4   7
BRANCH   1  29
ATOM     25  N   UNL     1       0.472  14.398  21.596  0.00  0.00    +0.000 N 
ATOM     26  N   UNL     1       0.050  14.954  22.761  0.00  0.00    +0.000 NA
ATOM     27  C   UNL     1      -1.207  14.515  22.926  0.00  0.00    +0.000 A 
ATOM     28  C   UNL     1      -1.527  13.533  21.955  0.00  0.00    +0.000 A 
ATOM     29  C   UNL     1      -0.421  13.437  21.140  0.00  0.00    +0.000 A 
BRANCH  25  34
ATOM     30  C   UNL     1       5.239  16.284  19.029  0.00  0.00    +0.000 C 
ATOM     31  C   UNL     1       3.995  15.782  19.703  0.00  0.00    +0.000 A 
ATOM     32  C   UNL     1       4.065  15.047  20.892  0.00  0.00    +0.000 A 
ATOM     33  C   UNL     1       2.899  14.604  21.525  0.00  0.00    +0.000 A 
ATOM     34  C   UNL     1       1.649  14.861  20.950  0.00  0.00    +0.000 A 
ATOM     35  C   UNL     1       1.573  15.616  19.771  0.00  0.00    +0.000 A 
ATOM     36  C   UNL     1       2.741  16.077  19.157  0.00  0.00    +0.000 A 
ENDBRANCH  25  34
BRANCH  27  37
ATOM     37  C   UNL     1      -2.099  15.014  24.061  0.00  0.00    +0.000 C 
ATOM     38  C   UNL     1      -2.911  16.268  23.668  0.00  0.00    +0.000 C 
ATOM     39  C   UNL     1      -3.107  13.917  24.469  0.00  0.00    +0.000 C 
ATOM     40  C   UNL     1      -1.237  15.367  25.290  0.00  0.00    +0.000 C 
ENDBRANCH  27  37
ENDBRANCH   1  29
TORSDOF 5
ENDMDL
