MODEL 1
REMARK VINA RESULT:      -6.9      0.000      0.000
REMARK  Name = 
REMARK  0 active torsions:
REMARK  status: ('A' for Active; 'I' for Inactive)
REMARK                            x       y       z     vdW  Elec       q    Type
REMARK                         _______ _______ _______ _____ _____    ______ ____
ROOT
ATOM      1 CL   UNL     1       1.153   6.787  21.184  0.00  0.00    +0.000 Cl
ATOM      2  C   UNL     1       2.147   6.049  19.963  0.00  0.00    +0.000 C 
ATOM      3  C   UNL     1       2.560   6.722  18.883  0.00  0.00    +0.000 C 
ATOM      4 CL   UNL     1       2.208   8.393  18.579  0.00  0.00    +0.000 Cl
ATOM      5  C   UNL     1       3.305   6.019  17.791  0.00  0.00    +0.000 C 
ATOM      6  O   UNL     1       4.704   6.078  18.173  0.00  0.00    +0.000 OA
ATOM      7  C   UNL     1       5.442   4.959  17.722  0.00  0.00    +0.000 C 
ATOM      8  C   UNL     1       6.804   5.306  17.222  0.00  0.00    +0.000 C 
ATOM      9  C   UNL     1       7.104   4.552  16.145  0.00  0.00    +0.000 C 
ATOM     10  C   UNL     1       5.966   3.630  15.793  0.00  0.00    +0.000 C 
ATOM     11  C   UNL     1       4.811   4.376  16.453  0.00  0.00    +0.000 C 
ATOM     12  O   UNL     1       3.634   3.671  16.822  0.00  0.00    +0.000 OA
ATOM     13  C   UNL     1       2.724   4.555  17.554  0.00  0.00    +0.000 C 
ATOM     14  C   UNL     1       2.349   3.904  18.870  0.00  0.00    +0.000 C 
ATOM     15 CL   UNL     1       1.688   2.302  18.778  0.00  0.00    +0.000 Cl
ATOM     16  C   UNL     1       2.320   4.601  20.017  0.00  0.00    +0.000 C 
ATOM     17 CL   UNL     1       2.478   3.825  21.561  0.00  0.00    +0.000 Cl
ENDROOT
TORSDOF 0
ENDMDL
MODEL 2
REMARK VINA RESULT:      -6.9      2.975      4.912
REMARK  Name = 
REMARK  0 active torsions:
REMARK  status: ('A' for Active; 'I' for Inactive)
REMARK                            x       y       z     vdW  Elec       q    Type
REMARK                         _______ _______ _______ _____ _____    ______ ____
ROOT
ATOM      1 CL   UNL     1       7.696   7.279  17.289  0.00  0.00    +0.000 Cl
ATOM      2  C   UNL     1       6.400   6.192  17.690  0.00  0.00    +0.000 C 
ATOM      3  C   UNL     1       6.377   5.512  18.842  0.00  0.00    +0.000 C 
ATOM      4 CL   UNL     1       7.582   5.647  20.082  0.00  0.00    +0.000 Cl
ATOM      5  C   UNL     1       5.313   4.489  19.097  0.00  0.00    +0.000 C 
ATOM      6  O   UNL     1       4.204   5.219  19.684  0.00  0.00    +0.000 OA
ATOM      7  C   UNL     1       2.947   4.657  19.361  0.00  0.00    +0.000 C 
ATOM      8  C   UNL     1       1.985   4.655  20.500  0.00  0.00    +0.000 C 
ATOM      9  C   UNL     1       1.262   3.517  20.490  0.00  0.00    +0.000 C 
ATOM     10  C   UNL     1       1.677   2.620  19.352  0.00  0.00    +0.000 C 
ATOM     11  C   UNL     1       3.083   3.154  19.098  0.00  0.00    +0.000 C 
ATOM     12  O   UNL     1       3.687   2.975  17.824  0.00  0.00    +0.000 OA
ATOM     13  C   UNL     1       4.970   3.679  17.770  0.00  0.00    +0.000 C 
ATOM     14  C   UNL     1       4.986   4.592  16.561  0.00  0.00    +0.000 C 
ATOM     15 CL   UNL     1       4.639   3.852  15.029  0.00  0.00    +0.000 Cl
ATOM     16  C   UNL     1       5.455   5.848  16.633  0.00  0.00    +0.000 C 
ATOM     17 CL   UNL     1       4.970   7.070  15.501  0.00  0.00    +0.000 Cl
ENDROOT
TORSDOF 0
ENDMDL
MODEL 3
REMARK VINA RESULT:      -6.8      2.424      4.350
REMARK  Name = 
REMARK  0 active torsions:
REMARK  status: ('A' for Active; 'I' for Inactive)
REMARK                            x       y       z     vdW  Elec       q    Type
REMARK                         _______ _______ _______ _____ _____    ______ ____
ROOT
ATOM      1 CL   UNL     1       2.819   5.271  19.360  0.00  0.00    +0.000 Cl
ATOM      2  C   UNL     1       3.959   5.186  18.049  0.00  0.00    +0.000 C 
ATOM      3  C   UNL     1       4.485   4.025  17.643  0.00  0.00    +0.000 C 
ATOM      4 CL   UNL     1       4.084   2.479  18.319  0.00  0.00    +0.000 Cl
ATOM      5  C   UNL     1       5.559   4.005  16.599  0.00  0.00    +0.000 C 
ATOM      6  O   UNL     1       4.863   3.958  15.326  0.00  0.00    +0.000 OA
ATOM      7  C   UNL     1       5.573   4.610  14.291  0.00  0.00    +0.000 C 
ATOM      8  C   UNL     1       5.517   3.891  12.985  0.00  0.00    +0.000 C 
ATOM      9  C   UNL     1       6.708   3.979  12.360  0.00  0.00    +0.000 C 
ATOM     10  C   UNL     1       7.701   4.752  13.189  0.00  0.00    +0.000 C 
ATOM     11  C   UNL     1       7.080   4.578  14.571  0.00  0.00    +0.000 C 
ATOM     12  O   UNL     1       7.364   5.519  15.596  0.00  0.00    +0.000 OA
ATOM     13  C   UNL     1       6.559   5.230  16.785  0.00  0.00    +0.000 C 
ATOM     14  C   UNL     1       5.810   6.481  17.197  0.00  0.00    +0.000 C 
ATOM     15 CL   UNL     1       6.768   7.906  17.450  0.00  0.00    +0.000 Cl
ATOM     16  C   UNL     1       4.518   6.441  17.559  0.00  0.00    +0.000 C 
ATOM     17 CL   UNL     1       3.500   7.842  17.463  0.00  0.00    +0.000 Cl
ENDROOT
TORSDOF 0
ENDMDL
MODEL 4
REMARK VINA RESULT:      -6.6      1.768      3.444
REMARK  Name = 
REMARK  0 active torsions:
REMARK  status: ('A' for Active; 'I' for Inactive)
REMARK                            x       y       z     vdW  Elec       q    Type
REMARK                         _______ _______ _______ _____ _____    ______ ____
ROOT
ATOM      1 CL   UNL     1       2.115   2.121  21.739  0.00  0.00    +0.000 Cl
ATOM      2  C   UNL     1       2.882   3.074  20.503  0.00  0.00    +0.000 C 
ATOM      3  C   UNL     1       4.145   2.855  20.122  0.00  0.00    +0.000 C 
ATOM      4 CL   UNL     1       5.156   1.598  20.760  0.00  0.00    +0.000 Cl
ATOM      5  C   UNL     1       4.813   3.777  19.148  0.00  0.00    +0.000 C 
ATOM      6  O   UNL     1       4.489   3.254  17.833  0.00  0.00    +0.000 OA
ATOM      7  C   UNL     1       4.398   4.266  16.850  0.00  0.00    +0.000 C 
ATOM      8  C   UNL     1       4.993   3.878  15.539  0.00  0.00    +0.000 C 
ATOM      9  C   UNL     1       5.626   4.934  14.990  0.00  0.00    +0.000 C 
ATOM     10  C   UNL     1       5.543   6.143  15.886  0.00  0.00    +0.000 C 
ATOM     11  C   UNL     1       5.284   5.460  17.224  0.00  0.00    +0.000 C 
ATOM     12  O   UNL     1       4.648   6.177  18.273  0.00  0.00    +0.000 OA
ATOM     13  C   UNL     1       4.384   5.288  19.406  0.00  0.00    +0.000 C 
ATOM     14  C   UNL     1       2.918   5.377  19.779  0.00  0.00    +0.000 C 
ATOM     15 CL   UNL     1       2.299   6.966  20.102  0.00  0.00    +0.000 Cl
ATOM     16  C   UNL     1       2.194   4.282  20.058  0.00  0.00    +0.000 C 
ATOM     17 CL   UNL     1       0.466   4.266  19.908  0.00  0.00    +0.000 Cl
ENDROOT
TORSDOF 0
ENDMDL
MODEL 5
REMARK VINA RESULT:      -6.3      1.558      2.114
REMARK  Name = 
REMARK  0 active torsions:
REMARK  status: ('A' for Active; 'I' for Inactive)
REMARK                            x       y       z     vdW  Elec       q    Type
REMARK                         _______ _______ _______ _____ _____    ______ ____
ROOT
ATOM      1 CL   UNL     1       1.983   3.371  22.011  0.00  0.00    +0.000 Cl
ATOM      2  C   UNL     1       2.958   3.767  20.626  0.00  0.00    +0.000 C 
ATOM      3  C   UNL     1       2.840   4.937  19.988  0.00  0.00    +0.000 C 
ATOM      4 CL   UNL     1       1.757   6.206  20.464  0.00  0.00    +0.000 Cl
ATOM      5  C   UNL     1       3.603   5.190  18.725  0.00  0.00    +0.000 C 
ATOM      6  O   UNL     1       4.885   5.725  19.145  0.00  0.00    +0.000 OA
ATOM      7  C   UNL     1       5.936   5.383  18.263  0.00  0.00    +0.000 C 
ATOM      8  C   UNL     1       6.902   6.494  18.028  0.00  0.00    +0.000 C 
ATOM      9  C   UNL     1       7.296   6.496  16.738  0.00  0.00    +0.000 C 
ATOM     10  C   UNL     1       6.619   5.396  15.962  0.00  0.00    +0.000 C 
ATOM     11  C   UNL     1       5.397   5.167  16.844  0.00  0.00    +0.000 C 
ATOM     12  O   UNL     1       4.724   3.916  16.807  0.00  0.00    +0.000 OA
ATOM     13  C   UNL     1       3.673   3.878  17.826  0.00  0.00    +0.000 C 
ATOM     14  C   UNL     1       3.857   2.644  18.686  0.00  0.00    +0.000 C 
ATOM     15 CL   UNL     1       3.942   1.125  17.850  0.00  0.00    +0.000 Cl
ATOM     16  C   UNL     1       3.741   2.693  20.023  0.00  0.00    +0.000 C 
ATOM     17 CL   UNL     1       4.493   1.514  21.049  0.00  0.00    +0.000 Cl
ENDROOT
TORSDOF 0
ENDMDL
MODEL 6
REMARK VINA RESULT:      -6.1      1.709      2.490
REMARK  Name = 
REMARK  0 active torsions:
REMARK  status: ('A' for Active; 'I' for Inactive)
REMARK                            x       y       z     vdW  Elec       q    Type
REMARK                         _______ _______ _______ _____ _____    ______ ____
ROOT
ATOM      1 CL   UNL     1       0.792   3.274  20.558  0.00  0.00    +0.000 Cl
ATOM      2  C   UNL     1       2.164   3.949  19.730  0.00  0.00    +0.000 C 
ATOM      3  C   UNL     1       2.555   5.214  19.922  0.00  0.00    +0.000 C 
ATOM      4 CL   UNL     1       1.795   6.316  21.025  0.00  0.00    +0.000 Cl
ATOM      5  C   UNL     1       3.659   5.799  19.096  0.00  0.00    +0.000 C 
ATOM      6  O   UNL     1       4.886   5.476  19.802  0.00  0.00    +0.000 OA
ATOM      7  C   UNL     1       5.986   5.298  18.933  0.00  0.00    +0.000 C 
ATOM      8  C   UNL     1       7.256   5.883  19.452  0.00  0.00    +0.000 C 
ATOM      9  C   UNL     1       7.955   6.436  18.440  0.00  0.00    +0.000 C 
ATOM     10  C   UNL     1       7.218   6.300  17.132  0.00  0.00    +0.000 C 
ATOM     11  C   UNL     1       5.796   6.117  17.651  0.00  0.00    +0.000 C 
ATOM     12  O   UNL     1       4.827   5.464  16.843  0.00  0.00    +0.000 OA
ATOM     13  C   UNL     1       3.582   5.284  17.592  0.00  0.00    +0.000 C 
ATOM     14  C   UNL     1       3.177   3.825  17.541  0.00  0.00    +0.000 C 
ATOM     15 CL   UNL     1       3.039   3.117  15.962  0.00  0.00    +0.000 Cl
ATOM     16  C   UNL     1       2.736   3.178  18.631  0.00  0.00    +0.000 C 
ATOM     17 CL   UNL     1       2.827   1.451  18.767  0.00  0.00    +0.000 Cl
ENDROOT
TORSDOF 0
ENDMDL
MODEL 7
REMARK VINA RESULT:      -6.1      2.612      5.186
REMARK  Name = 
REMARK  0 active torsions:
REMARK  status: ('A' for Active; 'I' for Inactive)
REMARK                            x       y       z     vdW  Elec       q    Type
REMARK                         _______ _______ _______ _____ _____    ______ ____
ROOT
ATOM      1 CL   UNL     1       4.511   2.543  19.689  0.00  0.00    +0.000 Cl
ATOM      2  C   UNL     1       3.798   4.113  19.460  0.00  0.00    +0.000 C 
ATOM      3  C   UNL     1       2.474   4.300  19.489  0.00  0.00    +0.000 C 
ATOM      4 CL   UNL     1       1.315   3.047  19.794  0.00  0.00    +0.000 Cl
ATOM      5  C   UNL     1       1.892   5.640  19.159  0.00  0.00    +0.000 C 
ATOM      6  O   UNL     1       1.868   6.374  20.412  0.00  0.00    +0.000 OA
ATOM      7  C   UNL     1       2.033   7.766  20.233  0.00  0.00    +0.000 C 
ATOM      8  C   UNL     1       1.161   8.588  21.120  0.00  0.00    +0.000 C 
ATOM      9  C   UNL     1       0.711   9.669  20.451  0.00  0.00    +0.000 C 
ATOM     10  C   UNL     1       1.218   9.678  19.031  0.00  0.00    +0.000 C 
ATOM     11  C   UNL     1       1.522   8.195  18.852  0.00  0.00    +0.000 C 
ATOM     12  O   UNL     1       2.469   7.780  17.877  0.00  0.00    +0.000 OA
ATOM     13  C   UNL     1       2.697   6.337  17.976  0.00  0.00    +0.000 C 
ATOM     14  C   UNL     1       4.184   6.076  18.107  0.00  0.00    +0.000 C 
ATOM     15 CL   UNL     1       5.200   6.765  16.881  0.00  0.00    +0.000 Cl
ATOM     16  C   UNL     1       4.667   5.186  18.988  0.00  0.00    +0.000 C 
ATOM     17 CL   UNL     1       6.297   5.276  19.577  0.00  0.00    +0.000 Cl
ENDROOT
TORSDOF 0
ENDMDL
MODEL 8
REMARK VINA RESULT:      -5.9      2.392      4.646
REMARK  Name = 
REMARK  0 active torsions:
REMARK  status: ('A' for Active; 'I' for Inactive)
REMARK                            x       y       z     vdW  Elec       q    Type
REMARK                         _______ _______ _______ _____ _____    ______ ____
ROOT
ATOM      1 CL   UNL     1       4.087   1.693  17.522  0.00  0.00    +0.000 Cl
ATOM      2  C   UNL     1       3.509   3.209  18.150  0.00  0.00    +0.000 C 
ATOM      3  C   UNL     1       4.274   4.306  18.165  0.00  0.00    +0.000 C 
ATOM      4 CL   UNL     1       5.890   4.383  17.540  0.00  0.00    +0.000 Cl
ATOM      5  C   UNL     1       3.789   5.557  18.831  0.00  0.00    +0.000 C 
ATOM      6  O   UNL     1       3.045   6.277  17.813  0.00  0.00    +0.000 OA
ATOM      7  C   UNL     1       1.984   7.042  18.349  0.00  0.00    +0.000 C 
ATOM      8  C   UNL     1       1.827   8.378  17.703  0.00  0.00    +0.000 C 
ATOM      9  C   UNL     1       1.501   9.301  18.629  0.00  0.00    +0.000 C 
ATOM     10  C   UNL     1       1.423   8.688  20.004  0.00  0.00    +0.000 C 
ATOM     11  C   UNL     1       2.297   7.457  19.791  0.00  0.00    +0.000 C 
ATOM     12  O   UNL     1       2.132   6.321  20.628  0.00  0.00    +0.000 OA
ATOM     13  C   UNL     1       2.976   5.220  20.158  0.00  0.00    +0.000 C 
ATOM     14  C   UNL     1       2.122   3.984  19.968  0.00  0.00    +0.000 C 
ATOM     15 CL   UNL     1       1.179   3.479  21.336  0.00  0.00    +0.000 Cl
ATOM     16  C   UNL     1       2.251   3.197  18.888  0.00  0.00    +0.000 C 
ATOM     17 CL   UNL     1       0.963   2.167  18.349  0.00  0.00    +0.000 Cl
ENDROOT
TORSDOF 0
ENDMDL
MODEL 9
REMARK VINA RESULT:      -5.9      2.912      4.973
REMARK  Name = 
REMARK  0 active torsions:
REMARK  status: ('A' for Active; 'I' for Inactive)
REMARK                            x       y       z     vdW  Elec       q    Type
REMARK                         _______ _______ _______ _____ _____    ______ ____
ROOT
ATOM      1 CL   UNL     1       7.675   4.739  16.099  0.00  0.00    +0.000 Cl
ATOM      2  C   UNL     1       6.294   4.797  17.155  0.00  0.00    +0.000 C 
ATOM      3  C   UNL     1       6.358   5.344  18.374  0.00  0.00    +0.000 C 
ATOM      4 CL   UNL     1       7.775   6.091  19.039  0.00  0.00    +0.000 Cl
ATOM      5  C   UNL     1       5.186   5.259  19.303  0.00  0.00    +0.000 C 
ATOM      6  O   UNL     1       4.362   6.414  18.996  0.00  0.00    +0.000 OA
ATOM      7  C   UNL     1       2.985   6.174  19.207  0.00  0.00    +0.000 C 
ATOM      8  C   UNL     1       2.266   7.327  19.822  0.00  0.00    +0.000 C 
ATOM      9  C   UNL     1       1.354   6.880  20.709  0.00  0.00    +0.000 C 
ATOM     10  C   UNL     1       1.375   5.376  20.800  0.00  0.00    +0.000 C 
ATOM     11  C   UNL     1       2.785   5.103  20.285  0.00  0.00    +0.000 C 
ATOM     12  O   UNL     1       3.098   3.837  19.722  0.00  0.00    +0.000 OA
ATOM     13  C   UNL     1       4.458   3.849  19.178  0.00  0.00    +0.000 C 
ATOM     14  C   UNL     1       4.422   3.386  17.736  0.00  0.00    +0.000 C 
ATOM     15 CL   UNL     1       3.665   1.853  17.435  0.00  0.00    +0.000 Cl
ATOM     16  C   UNL     1       5.123   4.012  16.777  0.00  0.00    +0.000 C 
ATOM     17 CL   UNL     1       4.675   3.911  15.104  0.00  0.00    +0.000 Cl
ENDROOT
TORSDOF 0
ENDMDL
