MODEL 1
REMARK VINA RESULT:      -6.4      0.000      0.000
REMARK  Name = 
REMARK  2 active torsions:
REMARK  status: ('A' for Active; 'I' for Inactive)
REMARK    1  A    between atoms: C_1  and  C_2
REMARK    2  A    between atoms: C_14  and  C_15
REMARK                            x       y       z     vdW  Elec       q    Type
REMARK                         _______ _______ _______ _____ _____    ______ ____
ROOT
ATOM      1  C   UNL     1      -3.664  11.623  19.570  0.00  0.00    +0.000 C 
ATOM      2  C   UNL     1      -2.164  11.891  19.903  0.00  0.00    +0.000 C 
ATOM      3  C   UNL     1      -1.299  11.101  21.136  0.00  0.00    +0.000 C 
ATOM      4  C   UNL     1      -0.436  12.055  22.159  0.00  0.00    +0.000 C 
ATOM      5  C   UNL     1      -1.390  12.992  22.923  0.00  0.00    +0.000 C 
ATOM      6  C   UNL     1      -1.233  14.299  23.823  0.00  0.00    +0.000 C 
ATOM      7  C   UNL     1      -0.552  15.549  23.230  0.00  0.00    +0.000 C 
ATOM      8  C   UNL     1      -0.884  16.866  23.962  0.00  0.00    +0.000 C 
ATOM      9  C   UNL     1      -2.374  17.100  24.066  0.00  0.00    +0.000 C 
ATOM     10  O   UNL     1      -2.918  18.207  23.945  0.00  0.00    +0.000 OA
ATOM     11  C   UNL     1      -3.180  15.926  24.398  0.00  0.00    +0.000 C 
ATOM     12  C   UNL     1      -2.667  14.691  24.287  0.00  0.00    +0.000 C 
ATOM     13  C   UNL     1      -3.649  13.567  24.341  0.00  0.00    +0.000 C 
ATOM     14  C   UNL     1      -3.899  13.163  22.871  0.00  0.00    +0.000 C 
ATOM     15  C   UNL     1      -2.575  13.196  21.995  0.00  0.00    +0.000 C 
ATOM     16  C   UNL     1      -2.162  13.391  20.399  0.00  0.00    +0.000 C 
ATOM     17  C   UNL     1      -0.718  13.773  19.932  0.00  0.00    +0.000 C 
ATOM     18  C   UNL     1      -0.241  14.076  18.520  0.00  0.00    +0.000 C 
ATOM     19  C   UNL     1      -0.183  12.659  18.982  0.00  0.00    +0.000 C 
ATOM     20  C   UNL     1      -1.299  11.705  18.631  0.00  0.00    +0.000 C 
ATOM     21  C   UNL     1      -1.012  10.228  18.357  0.00  0.00    +0.000 C 
ATOM     22  C   UNL     1      -2.131   9.828  17.423  0.00  0.00    +0.000 C 
ATOM     23  C   UNL     1      -2.275  11.068  16.631  0.00  0.00    +0.000 C 
ATOM     24  O   UNL     1      -2.725  11.151  15.501  0.00  0.00    +0.000 OA
ATOM     25  O   UNL     1      -1.888  12.144  17.392  0.00  0.00    +0.000 OA
ENDROOT
BRANCH  14  26
ATOM     26  C   UNL     1      -5.089  13.710  22.171  0.00  0.00    +0.000 C 
ATOM     27  C   UNL     1      -6.255  12.757  22.001  0.00  0.00    +0.000 C 
ATOM     28  C   UNL     1      -6.420  14.021  22.789  0.00  0.00    +0.000 C 
ENDBRANCH  14  26
TORSDOF 1
ENDMDL
MODEL 2
REMARK VINA RESULT:      -6.3      2.501      3.561
REMARK  Name = 
REMARK  2 active torsions:
REMARK  status: ('A' for Active; 'I' for Inactive)
REMARK    1  A    between atoms: C_1  and  C_2
REMARK    2  A    between atoms: C_14  and  C_15
REMARK                            x       y       z     vdW  Elec       q    Type
REMARK                         _______ _______ _______ _____ _____    ______ ____
ROOT
ATOM      1  C   UNL     1      -1.779  10.491  18.996  0.00  0.00    +0.000 C 
ATOM      2  C   UNL     1      -1.166  11.505  20.011  0.00  0.00    +0.000 C 
ATOM      3  C   UNL     1      -1.493  11.506  21.680  0.00  0.00    +0.000 C 
ATOM      4  C   UNL     1      -1.905  12.949  22.350  0.00  0.00    +0.000 C 
ATOM      5  C   UNL     1      -3.212  13.461  21.718  0.00  0.00    +0.000 C 
ATOM      6  C   UNL     1      -4.005  14.844  21.689  0.00  0.00    +0.000 C 
ATOM      7  C   UNL     1      -3.304  16.106  21.149  0.00  0.00    +0.000 C 
ATOM      8  C   UNL     1      -4.264  17.230  20.704  0.00  0.00    +0.000 C 
ATOM      9  C   UNL     1      -5.283  16.745  19.698  0.00  0.00    +0.000 C 
ATOM     10  O   UNL     1      -5.675  17.405  18.725  0.00  0.00    +0.000 OA
ATOM     11  C   UNL     1      -5.866  15.431  19.969  0.00  0.00    +0.000 C 
ATOM     12  C   UNL     1      -5.295  14.598  20.850  0.00  0.00    +0.000 C 
ATOM     13  C   UNL     1      -5.774  13.183  20.820  0.00  0.00    +0.000 C 
ATOM     14  C   UNL     1      -4.719  12.403  20.004  0.00  0.00    +0.000 C 
ATOM     15  C   UNL     1      -3.235  12.873  20.318  0.00  0.00    +0.000 C 
ATOM     16  C   UNL     1      -1.763  12.892  19.550  0.00  0.00    +0.000 C 
ATOM     17  C   UNL     1      -0.576  13.803  20.005  0.00  0.00    +0.000 C 
ATOM     18  C   UNL     1       0.776  13.985  19.330  0.00  0.00    +0.000 C 
ATOM     19  C   UNL     1       0.649  12.902  20.349  0.00  0.00    +0.000 C 
ATOM     20  C   UNL     1       0.380  11.482  19.912  0.00  0.00    +0.000 C 
ATOM     21  C   UNL     1       0.976  10.300  20.675  0.00  0.00    +0.000 C 
ATOM     22  C   UNL     1       1.084   9.226  19.617  0.00  0.00    +0.000 C 
ATOM     23  C   UNL     1       1.442  10.045  18.439  0.00  0.00    +0.000 C 
ATOM     24  O   UNL     1       2.040   9.659  17.450  0.00  0.00    +0.000 OA
ATOM     25  O   UNL     1       0.929  11.311  18.591  0.00  0.00    +0.000 OA
ENDROOT
BRANCH  14  26
ATOM     26  C   UNL     1      -4.972  12.155  18.561  0.00  0.00    +0.000 C 
ATOM     27  C   UNL     1      -5.431  10.756  18.200  0.00  0.00    +0.000 C 
ATOM     28  C   UNL     1      -6.308  11.938  17.916  0.00  0.00    +0.000 C 
ENDBRANCH  14  26
TORSDOF 1
ENDMDL
MODEL 3
REMARK VINA RESULT:      -6.2      9.078     12.456
REMARK  Name = 
REMARK  2 active torsions:
REMARK  status: ('A' for Active; 'I' for Inactive)
REMARK    1  A    between atoms: C_1  and  C_2
REMARK    2  A    between atoms: C_14  and  C_15
REMARK                            x       y       z     vdW  Elec       q    Type
REMARK                         _______ _______ _______ _____ _____    ______ ____
ROOT
ATOM      1  C   UNL     1       6.171  16.038  22.573  0.00  0.00    +0.000 C 
ATOM      2  C   UNL     1       7.543  15.550  23.132  0.00  0.00    +0.000 C 
ATOM      3  C   UNL     1       9.011  16.383  22.930  0.00  0.00    +0.000 C 
ATOM      4  C   UNL     1      10.293  15.501  22.399  0.00  0.00    +0.000 C 
ATOM      5  C   UNL     1       9.991  14.940  20.997  0.00  0.00    +0.000 C 
ATOM      6  C   UNL     1      10.632  13.834  20.044  0.00  0.00    +0.000 C 
ATOM      7  C   UNL     1      10.756  12.382  20.548  0.00  0.00    +0.000 C 
ATOM      8  C   UNL     1      10.909  11.329  19.431  0.00  0.00    +0.000 C 
ATOM      9  C   UNL     1       9.801  11.418  18.407  0.00  0.00    +0.000 C 
ATOM     10  O   UNL     1       9.265  10.439  17.869  0.00  0.00    +0.000 OA
ATOM     11  C   UNL     1       9.415  12.771  18.006  0.00  0.00    +0.000 C 
ATOM     12  C   UNL     1       9.786  13.832  18.736  0.00  0.00    +0.000 C 
ATOM     13  C   UNL     1       9.087  15.116  18.428  0.00  0.00    +0.000 C 
ATOM     14  C   UNL     1       7.990  15.261  19.506  0.00  0.00    +0.000 C 
ATOM     15  C   UNL     1       8.480  14.794  20.942  0.00  0.00    +0.000 C 
ATOM     16  C   UNL     1       7.805  14.209  22.341  0.00  0.00    +0.000 C 
ATOM     17  C   UNL     1       8.631  13.464  23.441  0.00  0.00    +0.000 C 
ATOM     18  C   UNL     1       8.116  12.799  24.709  0.00  0.00    +0.000 C 
ATOM     19  C   UNL     1       8.494  14.240  24.787  0.00  0.00    +0.000 C 
ATOM     20  C   UNL     1       7.434  15.306  24.658  0.00  0.00    +0.000 C 
ATOM     21  C   UNL     1       7.535  16.613  25.446  0.00  0.00    +0.000 C 
ATOM     22  C   UNL     1       6.091  17.032  25.604  0.00  0.00    +0.000 C 
ATOM     23  C   UNL     1       5.446  15.713  25.774  0.00  0.00    +0.000 C 
ATOM     24  O   UNL     1       4.388  15.497  26.340  0.00  0.00    +0.000 OA
ATOM     25  O   UNL     1       6.188  14.755  25.126  0.00  0.00    +0.000 OA
ENDROOT
BRANCH  14  26
ATOM     26  C   UNL     1       6.606  14.832  19.180  0.00  0.00    +0.000 C 
ATOM     27  C   UNL     1       5.640  15.937  18.803  0.00  0.00    +0.000 C 
ATOM     28  C   UNL     1       5.965  14.848  17.825  0.00  0.00    +0.000 C 
ENDBRANCH  14  26
TORSDOF 1
ENDMDL
MODEL 4
REMARK VINA RESULT:      -6.1      2.744      6.396
REMARK  Name = 
REMARK  2 active torsions:
REMARK  status: ('A' for Active; 'I' for Inactive)
REMARK    1  A    between atoms: C_1  and  C_2
REMARK    2  A    between atoms: C_14  and  C_15
REMARK                            x       y       z     vdW  Elec       q    Type
REMARK                         _______ _______ _______ _____ _____    ______ ____
ROOT
ATOM      1  C   UNL     1      -4.487  13.172  19.865  0.00  0.00    +0.000 C 
ATOM      2  C   UNL     1      -3.573  13.477  21.091  0.00  0.00    +0.000 C 
ATOM      3  C   UNL     1      -2.227  14.516  21.049  0.00  0.00    +0.000 C 
ATOM      4  C   UNL     1      -0.829  13.938  21.692  0.00  0.00    +0.000 C 
ATOM      5  C   UNL     1      -0.365  12.702  20.899  0.00  0.00    +0.000 C 
ATOM      6  C   UNL     1       0.700  11.536  21.118  0.00  0.00    +0.000 C 
ATOM      7  C   UNL     1       0.593  10.638  22.367  0.00  0.00    +0.000 C 
ATOM      8  C   UNL     1       1.319   9.282  22.243  0.00  0.00    +0.000 C 
ATOM      9  C   UNL     1       0.877   8.508  21.022  0.00  0.00    +0.000 C 
ATOM     10  O   UNL     1       0.714   7.280  20.993  0.00  0.00    +0.000 OA
ATOM     11  C   UNL     1       0.709   9.293  19.800  0.00  0.00    +0.000 C 
ATOM     12  C   UNL     1       0.632  10.631  19.852  0.00  0.00    +0.000 C 
ATOM     13  C   UNL     1       0.149  11.308  18.611  0.00  0.00    +0.000 C 
ATOM     14  C   UNL     1      -1.346  11.610  18.857  0.00  0.00    +0.000 C 
ATOM     15  C   UNL     1      -1.636  12.084  20.344  0.00  0.00    +0.000 C 
ATOM     16  C   UNL     1      -2.910  12.080  21.410  0.00  0.00    +0.000 C 
ATOM     17  C   UNL     1      -2.731  12.269  22.952  0.00  0.00    +0.000 C 
ATOM     18  C   UNL     1      -3.797  12.185  24.035  0.00  0.00    +0.000 C 
ATOM     19  C   UNL     1      -3.551  13.516  23.406  0.00  0.00    +0.000 C 
ATOM     20  C   UNL     1      -4.431  13.990  22.275  0.00  0.00    +0.000 C 
ATOM     21  C   UNL     1      -4.778  15.471  22.118  0.00  0.00    +0.000 C 
ATOM     22  C   UNL     1      -6.115  15.438  21.413  0.00  0.00    +0.000 C 
ATOM     23  C   UNL     1      -6.720  14.246  22.042  0.00  0.00    +0.000 C 
ATOM     24  O   UNL     1      -7.913  14.016  22.149  0.00  0.00    +0.000 OA
ATOM     25  O   UNL     1      -5.726  13.380  22.432  0.00  0.00    +0.000 OA
ENDROOT
BRANCH  14  26
ATOM     26  C   UNL     1      -2.364  10.669  18.324  0.00  0.00    +0.000 C 
ATOM     27  C   UNL     1      -3.111  11.129  17.088  0.00  0.00    +0.000 C 
ATOM     28  C   UNL     1      -2.271   9.888  17.046  0.00  0.00    +0.000 C 
ENDBRANCH  14  26
TORSDOF 1
ENDMDL
MODEL 5
REMARK VINA RESULT:      -6.1      2.791      5.882
REMARK  Name = 
REMARK  2 active torsions:
REMARK  status: ('A' for Active; 'I' for Inactive)
REMARK    1  A    between atoms: C_1  and  C_2
REMARK    2  A    between atoms: C_14  and  C_15
REMARK                            x       y       z     vdW  Elec       q    Type
REMARK                         _______ _______ _______ _____ _____    ______ ____
ROOT
ATOM      1  C   UNL     1      -4.642  12.326  21.012  0.00  0.00    +0.000 C 
ATOM      2  C   UNL     1      -4.328  13.704  21.671  0.00  0.00    +0.000 C 
ATOM      3  C   UNL     1      -4.353  15.190  20.843  0.00  0.00    +0.000 C 
ATOM      4  C   UNL     1      -3.048  16.168  21.044  0.00  0.00    +0.000 C 
ATOM      5  C   UNL     1      -1.787  15.468  20.504  0.00  0.00    +0.000 C 
ATOM      6  C   UNL     1      -0.213  15.699  20.615  0.00  0.00    +0.000 C 
ATOM      7  C   UNL     1       0.452  15.724  22.006  0.00  0.00    +0.000 C 
ATOM      8  C   UNL     1       1.971  15.456  21.993  0.00  0.00    +0.000 C 
ATOM      9  C   UNL     1       2.316  14.163  21.288  0.00  0.00    +0.000 C 
ATOM     10  O   UNL     1       3.201  13.379  21.659  0.00  0.00    +0.000 OA
ATOM     11  C   UNL     1       1.576  13.896  20.055  0.00  0.00    +0.000 C 
ATOM     12  C   UNL     1       0.459  14.579  19.766  0.00  0.00    +0.000 C 
ATOM     13  C   UNL     1      -0.382  14.022  18.665  0.00  0.00    +0.000 C 
ATOM     14  C   UNL     1      -1.518  13.242  19.363  0.00  0.00    +0.000 C 
ATOM     15  C   UNL     1      -2.059  13.981  20.660  0.00  0.00    +0.000 C 
ATOM     16  C   UNL     1      -2.810  13.575  22.084  0.00  0.00    +0.000 C 
ATOM     17  C   UNL     1      -2.841  14.519  23.331  0.00  0.00    +0.000 C 
ATOM     18  C   UNL     1      -3.404  14.224  24.714  0.00  0.00    +0.000 C 
ATOM     19  C   UNL     1      -4.327  14.816  23.702  0.00  0.00    +0.000 C 
ATOM     20  C   UNL     1      -5.243  13.922  22.902  0.00  0.00    +0.000 C 
ATOM     21  C   UNL     1      -6.638  14.394  22.491  0.00  0.00    +0.000 C 
ATOM     22  C   UNL     1      -7.418  13.105  22.379  0.00  0.00    +0.000 C 
ATOM     23  C   UNL     1      -6.821  12.332  23.488  0.00  0.00    +0.000 C 
ATOM     24  O   UNL     1      -7.352  11.417  24.095  0.00  0.00    +0.000 OA
ATOM     25  O   UNL     1      -5.530  12.754  23.695  0.00  0.00    +0.000 OA
ENDROOT
BRANCH  14  26
ATOM     26  C   UNL     1      -1.379  11.773  19.531  0.00  0.00    +0.000 C 
ATOM     27  C   UNL     1      -2.085  10.917  18.497  0.00  0.00    +0.000 C 
ATOM     28  C   UNL     1      -0.595  10.847  18.649  0.00  0.00    +0.000 C 
ENDBRANCH  14  26
TORSDOF 1
ENDMDL
MODEL 6
REMARK VINA RESULT:      -6.0      8.606     10.935
REMARK  Name = 
REMARK  2 active torsions:
REMARK  status: ('A' for Active; 'I' for Inactive)
REMARK    1  A    between atoms: C_1  and  C_2
REMARK    2  A    between atoms: C_14  and  C_15
REMARK                            x       y       z     vdW  Elec       q    Type
REMARK                         _______ _______ _______ _____ _____    ______ ____
ROOT
ATOM      1  C   UNL     1       9.531  14.436  21.254  0.00  0.00    +0.000 C 
ATOM      2  C   UNL     1       9.217  14.745  19.758  0.00  0.00    +0.000 C 
ATOM      3  C   UNL     1       9.201  16.307  19.084  0.00  0.00    +0.000 C 
ATOM      4  C   UNL     1       7.888  16.706  18.179  0.00  0.00    +0.000 C 
ATOM      5  C   UNL     1       6.623  16.670  19.055  0.00  0.00    +0.000 C 
ATOM      6  C   UNL     1       5.050  16.678  18.796  0.00  0.00    +0.000 C 
ATOM      7  C   UNL     1       4.422  15.572  17.924  0.00  0.00    +0.000 C 
ATOM      8  C   UNL     1       2.906  15.375  18.136  0.00  0.00    +0.000 C 
ATOM      9  C   UNL     1       2.559  15.135  19.588  0.00  0.00    +0.000 C 
ATOM     10  O   UNL     1       1.695  14.338  19.978  0.00  0.00    +0.000 OA
ATOM     11  C   UNL     1       3.270  15.971  20.556  0.00  0.00    +0.000 C 
ATOM     12  C   UNL     1       4.369  16.649  20.197  0.00  0.00    +0.000 C 
ATOM     13  C   UNL     1       5.189  17.206  21.314  0.00  0.00    +0.000 C 
ATOM     14  C   UNL     1       6.353  16.210  21.514  0.00  0.00    +0.000 C 
ATOM     15  C   UNL     1       6.918  15.649  20.140  0.00  0.00    +0.000 C 
ATOM     16  C   UNL     1       7.712  14.295  19.599  0.00  0.00    +0.000 C 
ATOM     17  C   UNL     1       7.764  13.883  18.091  0.00  0.00    +0.000 C 
ATOM     18  C   UNL     1       8.367  12.624  17.485  0.00  0.00    +0.000 C 
ATOM     19  C   UNL     1       9.255  13.813  17.639  0.00  0.00    +0.000 C 
ATOM     20  C   UNL     1      10.161  13.929  18.839  0.00  0.00    +0.000 C 
ATOM     21  C   UNL     1      11.538  14.583  18.724  0.00  0.00    +0.000 C 
ATOM     22  C   UNL     1      12.333  13.909  19.819  0.00  0.00    +0.000 C 
ATOM     23  C   UNL     1      11.775  12.542  19.752  0.00  0.00    +0.000 C 
ATOM     24  O   UNL     1      12.333  11.519  20.111  0.00  0.00    +0.000 OA
ATOM     25  O   UNL     1      10.484  12.597  19.284  0.00  0.00    +0.000 OA
ENDROOT
BRANCH  14  26
ATOM     26  C   UNL     1       6.237  15.178  22.576  0.00  0.00    +0.000 C 
ATOM     27  C   UNL     1       7.064  15.416  23.824  0.00  0.00    +0.000 C 
ATOM     28  C   UNL     1       5.568  15.343  23.908  0.00  0.00    +0.000 C 
ENDBRANCH  14  26
TORSDOF 1
ENDMDL
MODEL 7
REMARK VINA RESULT:      -6.0      2.355      3.716
REMARK  Name = 
REMARK  2 active torsions:
REMARK  status: ('A' for Active; 'I' for Inactive)
REMARK    1  A    between atoms: C_1  and  C_2
REMARK    2  A    between atoms: C_14  and  C_15
REMARK                            x       y       z     vdW  Elec       q    Type
REMARK                         _______ _______ _______ _____ _____    ______ ____
ROOT
ATOM      1  C   UNL     1      -1.989  12.081  19.211  0.00  0.00    +0.000 C 
ATOM      2  C   UNL     1      -1.659  12.520  20.670  0.00  0.00    +0.000 C 
ATOM      3  C   UNL     1      -1.917  11.552  22.044  0.00  0.00    +0.000 C 
ATOM      4  C   UNL     1      -2.701  12.256  23.306  0.00  0.00    +0.000 C 
ATOM      5  C   UNL     1      -4.121  12.664  22.871  0.00  0.00    +0.000 C 
ATOM      6  C   UNL     1      -5.277  13.590  23.461  0.00  0.00    +0.000 C 
ATOM      7  C   UNL     1      -4.985  15.078  23.742  0.00  0.00    +0.000 C 
ATOM      8  C   UNL     1      -6.241  15.971  23.825  0.00  0.00    +0.000 C 
ATOM      9  C   UNL     1      -7.111  15.848  22.594  0.00  0.00    +0.000 C 
ATOM     10  O   UNL     1      -7.708  16.794  22.062  0.00  0.00    +0.000 OA
ATOM     11  C   UNL     1      -7.284  14.492  22.074  0.00  0.00    +0.000 C 
ATOM     12  C   UNL     1      -6.469  13.501  22.462  0.00  0.00    +0.000 C 
ATOM     13  C   UNL     1      -6.525  12.250  21.647  0.00  0.00    +0.000 C 
ATOM     14  C   UNL     1      -5.319  12.327  20.684  0.00  0.00    +0.000 C 
ATOM     15  C   UNL     1      -4.021  12.925  21.378  0.00  0.00    +0.000 C 
ATOM     16  C   UNL     1      -2.643  13.729  20.921  0.00  0.00    +0.000 C 
ATOM     17  C   UNL     1      -1.752  14.533  21.924  0.00  0.00    +0.000 C 
ATOM     18  C   UNL     1      -0.532  15.388  21.615  0.00  0.00    +0.000 C 
ATOM     19  C   UNL     1      -0.309  13.941  21.904  0.00  0.00    +0.000 C 
ATOM     20  C   UNL     1      -0.175  12.957  20.768  0.00  0.00    +0.000 C 
ATOM     21  C   UNL     1       0.760  11.752  20.879  0.00  0.00    +0.000 C 
ATOM     22  C   UNL     1       1.135  11.474  19.441  0.00  0.00    +0.000 C 
ATOM     23  C   UNL     1       1.204  12.852  18.910  0.00  0.00    +0.000 C 
ATOM     24  O   UNL     1       1.855  13.221  17.947  0.00  0.00    +0.000 OA
ATOM     25  O   UNL     1       0.356  13.661  19.628  0.00  0.00    +0.000 OA
ENDROOT
BRANCH  14  26
ATOM     26  C   UNL     1      -5.537  12.825  19.302  0.00  0.00    +0.000 C 
ATOM     27  C   UNL     1      -5.493  11.779  18.206  0.00  0.00    +0.000 C 
ATOM     28  C   UNL     1      -6.742  12.572  18.445  0.00  0.00    +0.000 C 
ENDBRANCH  14  26
TORSDOF 1
ENDMDL
MODEL 8
REMARK VINA RESULT:      -6.0      2.533      6.462
REMARK  Name = 
REMARK  2 active torsions:
REMARK  status: ('A' for Active; 'I' for Inactive)
REMARK    1  A    between atoms: C_1  and  C_2
REMARK    2  A    between atoms: C_14  and  C_15
REMARK                            x       y       z     vdW  Elec       q    Type
REMARK                         _______ _______ _______ _____ _____    ______ ____
ROOT
ATOM      1  C   UNL     1      -4.792  14.128  20.571  0.00  0.00    +0.000 C 
ATOM      2  C   UNL     1      -3.782  14.238  21.755  0.00  0.00    +0.000 C 
ATOM      3  C   UNL     1      -2.286  15.042  21.667  0.00  0.00    +0.000 C 
ATOM      4  C   UNL     1      -0.974  14.221  22.221  0.00  0.00    +0.000 C 
ATOM      5  C   UNL     1      -0.760  12.952  21.375  0.00  0.00    +0.000 C 
ATOM      6  C   UNL     1       0.105  11.620  21.508  0.00  0.00    +0.000 C 
ATOM      7  C   UNL     1      -0.089  10.711  22.738  0.00  0.00    +0.000 C 
ATOM      8  C   UNL     1       0.394   9.259  22.543  0.00  0.00    +0.000 C 
ATOM      9  C   UNL     1      -0.228   8.608  21.328  0.00  0.00    +0.000 C 
ATOM     10  O   UNL     1      -0.594   7.425  21.278  0.00  0.00    +0.000 OA
ATOM     11  C   UNL     1      -0.321   9.451  20.136  0.00  0.00    +0.000 C 
ATOM     12  C   UNL     1      -0.174  10.780  20.225  0.00  0.00    +0.000 C 
ATOM     13  C   UNL     1      -0.597  11.568  19.029  0.00  0.00    +0.000 C 
ATOM     14  C   UNL     1      -2.007  12.104  19.361  0.00  0.00    +0.000 C 
ATOM     15  C   UNL     1      -2.142  12.570  20.873  0.00  0.00    +0.000 C 
ATOM     16  C   UNL     1      -3.346  12.741  22.003  0.00  0.00    +0.000 C 
ATOM     17  C   UNL     1      -3.064  12.847  23.538  0.00  0.00    +0.000 C 
ATOM     18  C   UNL     1      -4.076  12.904  24.674  0.00  0.00    +0.000 C 
ATOM     19  C   UNL     1      -3.643  14.196  24.065  0.00  0.00    +0.000 C 
ATOM     20  C   UNL     1      -4.485  14.846  22.994  0.00  0.00    +0.000 C 
ATOM     21  C   UNL     1      -4.589  16.368  22.893  0.00  0.00    +0.000 C 
ATOM     22  C   UNL     1      -5.945  16.579  22.259  0.00  0.00    +0.000 C 
ATOM     23  C   UNL     1      -6.709  15.482  22.889  0.00  0.00    +0.000 C 
ATOM     24  O   UNL     1      -7.917  15.449  23.053  0.00  0.00    +0.000 OA
ATOM     25  O   UNL     1      -5.855  14.452  23.204  0.00  0.00    +0.000 OA
ENDROOT
BRANCH  14  26
ATOM     26  C   UNL     1      -3.191  11.361  18.859  0.00  0.00    +0.000 C 
ATOM     27  C   UNL     1      -3.614  11.670  17.437  0.00  0.00    +0.000 C 
ATOM     28  C   UNL     1      -3.189  10.283  17.816  0.00  0.00    +0.000 C 
ENDBRANCH  14  26
TORSDOF 1
ENDMDL
MODEL 9
REMARK VINA RESULT:      -5.9      3.055      5.263
REMARK  Name = 
REMARK  2 active torsions:
REMARK  status: ('A' for Active; 'I' for Inactive)
REMARK    1  A    between atoms: C_1  and  C_2
REMARK    2  A    between atoms: C_14  and  C_15
REMARK                            x       y       z     vdW  Elec       q    Type
REMARK                         _______ _______ _______ _____ _____    ______ ____
ROOT
ATOM      1  C   UNL     1       0.315  15.158  18.604  0.00  0.00    +0.000 C 
ATOM      2  C   UNL     1       0.107  16.089  19.838  0.00  0.00    +0.000 C 
ATOM      3  C   UNL     1       1.110  16.099  21.212  0.00  0.00    +0.000 C 
ATOM      4  C   UNL     1       0.360  16.026  22.673  0.00  0.00    +0.000 C 
ATOM      5  C   UNL     1      -0.415  14.701  22.793  0.00  0.00    +0.000 C 
ATOM      6  C   UNL     1      -1.532  14.113  23.766  0.00  0.00    +0.000 C 
ATOM      7  C   UNL     1      -2.873  14.858  23.918  0.00  0.00    +0.000 C 
ATOM      8  C   UNL     1      -4.030  13.991  24.457  0.00  0.00    +0.000 C 
ATOM      9  C   UNL     1      -4.235  12.738  23.636  0.00  0.00    +0.000 C 
ATOM     10  O   UNL     1      -5.342  12.256  23.360  0.00  0.00    +0.000 OA
ATOM     11  C   UNL     1      -3.015  12.047  23.218  0.00  0.00    +0.000 C 
ATOM     12  C   UNL     1      -1.825  12.662  23.279  0.00  0.00    +0.000 C 
ATOM     13  C   UNL     1      -0.707  12.000  22.544  0.00  0.00    +0.000 C 
ATOM     14  C   UNL     1      -0.582  12.758  21.203  0.00  0.00    +0.000 C 
ATOM     15  C   UNL     1      -0.784  14.325  21.368  0.00  0.00    +0.000 C 
ATOM     16  C   UNL     1      -1.274  15.606  20.433  0.00  0.00    +0.000 C 
ATOM     17  C   UNL     1      -1.742  16.971  21.035  0.00  0.00    +0.000 C 
ATOM     18  C   UNL     1      -2.305  18.177  20.296  0.00  0.00    +0.000 C 
ATOM     19  C   UNL     1      -0.826  18.107  20.484  0.00  0.00    +0.000 C 
ATOM     20  C   UNL     1       0.050  17.568  19.380  0.00  0.00    +0.000 C 
ATOM     21  C   UNL     1       1.449  18.137  19.139  0.00  0.00    +0.000 C 
ATOM     22  C   UNL     1       1.672  17.889  17.665  0.00  0.00    +0.000 C 
ATOM     23  C   UNL     1       0.307  18.116  17.145  0.00  0.00    +0.000 C 
ATOM     24  O   UNL     1       0.017  18.451  16.009  0.00  0.00    +0.000 OA
ATOM     25  O   UNL     1      -0.610  17.819  18.124  0.00  0.00    +0.000 OA
ENDROOT
BRANCH  14  26
ATOM     26  C   UNL     1      -1.245  12.197  19.999  0.00  0.00    +0.000 C 
ATOM     27  C   UNL     1      -0.322  11.712  18.899  0.00  0.00    +0.000 C 
ATOM     28  C   UNL     1      -1.256  10.756  19.579  0.00  0.00    +0.000 C 
ENDBRANCH  14  26
TORSDOF 1
ENDMDL
