MODEL 1
REMARK VINA RESULT:      -8.8      0.000      0.000
REMARK  Name = 
REMARK  9 active torsions:
REMARK  status: ('A' for Active; 'I' for Inactive)
REMARK    1  A    between atoms: C_1  and  C_2
REMARK    2  A    between atoms: C_6  and  N_7
REMARK    3  A    between atoms: N_7  and  C_8
REMARK    4  A    between atoms: C_8  and  C_9
REMARK    5  A    between atoms: C_9  and  C_10
REMARK    6  A    between atoms: C_9  and  C_11
REMARK    7  A    between atoms: C_9  and  C_12
REMARK    8  A    between atoms: C_13  and  C_15
REMARK    9  A    between atoms: C_20  and  C_21
REMARK                            x       y       z     vdW  Elec       q    Type
REMARK                         _______ _______ _______ _____ _____    ______ ____
ROOT
ATOM      1  N   UNL     1       3.635   5.021  19.804  0.00  0.00    +0.000 N 
ATOM      2  C   UNL     1       4.754   4.485  19.191  0.00  0.00    +0.000 C 
ATOM      3  O   UNL     1       5.232   3.419  19.603  0.00  0.00    +0.000 OA
ENDROOT
BRANCH   2   4
ATOM      4  C   UNL     1       5.358   5.128  17.922  0.00  0.00    +0.000 C 
ATOM      5  C   UNL     1       6.830   5.579  18.019  0.00  0.00    +0.000 C 
ATOM      6  C   UNL     1       7.325   6.208  16.699  0.00  0.00    +0.000 C 
ATOM      7  C   UNL     1       6.979   5.363  15.531  0.00  0.00    +0.000 A 
ATOM      8  N   UNL     1       7.491   5.350  14.318  0.00  0.00    +0.000 NA
ATOM      9  C   UNL     1       6.762   4.372  13.682  0.00  0.00    +0.000 A 
ATOM     10  C   UNL     1       6.987   3.977  12.276  0.00  0.00    +0.000 C 
ATOM     11  N   UNL     1       5.820   3.793  14.438  0.00  0.00    +0.000 NA
ATOM     12  N   UNL     1       5.977   4.444  15.599  0.00  0.00    +0.000 N 
ATOM     13  C   UNL     1       5.243   4.080  16.786  0.00  0.00    +0.000 C 
ENDBRANCH   2   4
BRANCH   1  19
ATOM     14  C   UNL     1       1.036   8.767  21.107  0.00  0.00    +0.000 C 
ATOM     15  C   UNL     1       1.755   8.063  20.001  0.00  0.00    +0.000 A 
ATOM     16  C   UNL     1       1.765   8.549  18.702  0.00  0.00    +0.000 A 
ATOM     17  C   UNL     1       2.442   7.822  17.724  0.00  0.00    +0.000 A 
ATOM     18  C   UNL     1       3.081   6.633  18.077  0.00  0.00    +0.000 A 
ATOM     19  C   UNL     1       3.035   6.226  19.404  0.00  0.00    +0.000 A 
ATOM     20  N   UNL     1       2.384   6.919  20.354  0.00  0.00    +0.000 NA
ENDBRANCH   1  19
BRANCH   1  21
ATOM     21  C   UNL     1       2.958   4.276  20.879  0.00  0.00    +0.000 C 
BRANCH  21  22
ATOM     22  C   UNL     1       1.816   3.282  20.487  0.00  0.00    +0.000 C 
ATOM     23  C   UNL     1       2.248   2.347  19.343  0.00  0.00    +0.000 C 
ATOM     24  C   UNL     1       1.506   2.422  21.737  0.00  0.00    +0.000 C 
ATOM     25  C   UNL     1       0.510   3.981  20.077  0.00  0.00    +0.000 C 
ENDBRANCH  21  22
ENDBRANCH   1  21
TORSDOF 4
ENDMDL
MODEL 2
REMARK VINA RESULT:      -8.6      2.586      6.454
REMARK  Name = 
REMARK  9 active torsions:
REMARK  status: ('A' for Active; 'I' for Inactive)
REMARK    1  A    between atoms: C_1  and  C_2
REMARK    2  A    between atoms: C_6  and  N_7
REMARK    3  A    between atoms: N_7  and  C_8
REMARK    4  A    between atoms: C_8  and  C_9
REMARK    5  A    between atoms: C_9  and  C_10
REMARK    6  A    between atoms: C_9  and  C_11
REMARK    7  A    between atoms: C_9  and  C_12
REMARK    8  A    between atoms: C_13  and  C_15
REMARK    9  A    between atoms: C_20  and  C_21
REMARK                            x       y       z     vdW  Elec       q    Type
REMARK                         _______ _______ _______ _____ _____    ______ ____
ROOT
ATOM      1  N   UNL     1       3.361   5.046  19.266  0.00  0.00    +0.000 N 
ATOM      2  C   UNL     1       2.319   5.851  19.693  0.00  0.00    +0.000 C 
ATOM      3  O   UNL     1       1.390   5.360  20.349  0.00  0.00    +0.000 OA
ENDROOT
BRANCH   2   4
ATOM      4  C   UNL     1       2.345   7.380  19.472  0.00  0.00    +0.000 C 
ATOM      5  C   UNL     1       1.784   7.886  18.127  0.00  0.00    +0.000 C 
ATOM      6  C   UNL     1       1.862   9.422  18.013  0.00  0.00    +0.000 C 
ATOM      7  C   UNL     1       1.334  10.086  19.230  0.00  0.00    +0.000 A 
ATOM      8  N   UNL     1       0.912  11.321  19.402  0.00  0.00    +0.000 NA
ATOM      9  C   UNL     1       0.559  11.348  20.731  0.00  0.00    +0.000 A 
ATOM     10  C   UNL     1       0.006  12.544  21.399  0.00  0.00    +0.000 C 
ATOM     11  N   UNL     1       0.755  10.198  21.388  0.00  0.00    +0.000 NA
ATOM     12  N   UNL     1       1.251   9.421  20.415  0.00  0.00    +0.000 N 
ATOM     13  C   UNL     1       1.517   8.017  20.617  0.00  0.00    +0.000 C 
ENDBRANCH   2   4
BRANCH   1  19
ATOM     14  C   UNL     1       8.020   5.922  19.168  0.00  0.00    +0.000 C 
ATOM     15  C   UNL     1       6.718   5.975  18.433  0.00  0.00    +0.000 A 
ATOM     16  C   UNL     1       6.615   6.500  17.154  0.00  0.00    +0.000 A 
ATOM     17  C   UNL     1       5.360   6.532  16.547  0.00  0.00    +0.000 A 
ATOM     18  C   UNL     1       4.253   6.043  17.241  0.00  0.00    +0.000 A 
ATOM     19  C   UNL     1       4.447   5.520  18.513  0.00  0.00    +0.000 A 
ATOM     20  N   UNL     1       5.653   5.487  19.108  0.00  0.00    +0.000 NA
ENDBRANCH   1  19
BRANCH   1  21
ATOM     21  C   UNL     1       3.412   3.631  19.672  0.00  0.00    +0.000 C 
BRANCH  21  22
ATOM     22  C   UNL     1       2.754   2.566  18.734  0.00  0.00    +0.000 C 
ATOM     23  C   UNL     1       3.711   1.396  18.448  0.00  0.00    +0.000 C 
ATOM     24  C   UNL     1       1.507   2.016  19.469  0.00  0.00    +0.000 C 
ATOM     25  C   UNL     1       2.277   3.145  17.392  0.00  0.00    +0.000 C 
ENDBRANCH  21  22
ENDBRANCH   1  21
TORSDOF 4
ENDMDL
MODEL 3
REMARK VINA RESULT:      -8.4      2.121      6.384
REMARK  Name = 
REMARK  9 active torsions:
REMARK  status: ('A' for Active; 'I' for Inactive)
REMARK    1  A    between atoms: C_1  and  C_2
REMARK    2  A    between atoms: C_6  and  N_7
REMARK    3  A    between atoms: N_7  and  C_8
REMARK    4  A    between atoms: C_8  and  C_9
REMARK    5  A    between atoms: C_9  and  C_10
REMARK    6  A    between atoms: C_9  and  C_11
REMARK    7  A    between atoms: C_9  and  C_12
REMARK    8  A    between atoms: C_13  and  C_15
REMARK    9  A    between atoms: C_20  and  C_21
REMARK                            x       y       z     vdW  Elec       q    Type
REMARK                         _______ _______ _______ _____ _____    ______ ____
ROOT
ATOM      1  N   UNL     1       3.527   4.846  19.277  0.00  0.00    +0.000 N 
ATOM      2  C   UNL     1       2.459   5.657  19.621  0.00  0.00    +0.000 C 
ATOM      3  O   UNL     1       1.489   5.177  20.222  0.00  0.00    +0.000 OA
ENDROOT
BRANCH   2   4
ATOM      4  C   UNL     1       2.500   7.182  19.374  0.00  0.00    +0.000 C 
ATOM      5  C   UNL     1       2.024   7.663  17.989  0.00  0.00    +0.000 C 
ATOM      6  C   UNL     1       2.110   9.198  17.853  0.00  0.00    +0.000 C 
ATOM      7  C   UNL     1       1.506   9.882  19.022  0.00  0.00    +0.000 A 
ATOM      8  N   UNL     1       1.075  11.120  19.145  0.00  0.00    +0.000 NA
ATOM      9  C   UNL     1       0.639  11.170  20.449  0.00  0.00    +0.000 A 
ATOM     10  C   UNL     1       0.045  12.377  21.059  0.00  0.00    +0.000 C 
ATOM     11  N   UNL     1       0.793  10.031  21.137  0.00  0.00    +0.000 NA
ATOM     12  N   UNL     1       1.349   9.238  20.211  0.00  0.00    +0.000 N 
ATOM     13  C   UNL     1       1.601   7.838  20.454  0.00  0.00    +0.000 C 
ENDBRANCH   2   4
BRANCH   1  19
ATOM     14  C   UNL     1       5.431   5.930  15.072  0.00  0.00    +0.000 C 
ATOM     15  C   UNL     1       5.629   5.834  16.551  0.00  0.00    +0.000 A 
ATOM     16  C   UNL     1       6.844   6.126  17.152  0.00  0.00    +0.000 A 
ATOM     17  C   UNL     1       6.952   5.990  18.535  0.00  0.00    +0.000 A 
ATOM     18  C   UNL     1       5.845   5.564  19.268  0.00  0.00    +0.000 A 
ATOM     19  C   UNL     1       4.661   5.308  18.589  0.00  0.00    +0.000 A 
ATOM     20  N   UNL     1       4.547   5.434  17.256  0.00  0.00    +0.000 NA
ENDBRANCH   1  19
BRANCH   1  21
ATOM     21  C   UNL     1       3.551   3.438  19.711  0.00  0.00    +0.000 C 
BRANCH  21  22
ATOM     22  C   UNL     1       2.876   2.368  18.792  0.00  0.00    +0.000 C 
ATOM     23  C   UNL     1       3.809   1.171  18.538  0.00  0.00    +0.000 C 
ATOM     24  C   UNL     1       1.612   1.861  19.530  0.00  0.00    +0.000 C 
ATOM     25  C   UNL     1       2.421   2.927  17.434  0.00  0.00    +0.000 C 
ENDBRANCH  21  22
ENDBRANCH   1  21
TORSDOF 4
ENDMDL
MODEL 4
REMARK VINA RESULT:      -8.1      2.552      7.114
REMARK  Name = 
REMARK  9 active torsions:
REMARK  status: ('A' for Active; 'I' for Inactive)
REMARK    1  A    between atoms: C_1  and  C_2
REMARK    2  A    between atoms: C_6  and  N_7
REMARK    3  A    between atoms: N_7  and  C_8
REMARK    4  A    between atoms: C_8  and  C_9
REMARK    5  A    between atoms: C_9  and  C_10
REMARK    6  A    between atoms: C_9  and  C_11
REMARK    7  A    between atoms: C_9  and  C_12
REMARK    8  A    between atoms: C_13  and  C_15
REMARK    9  A    between atoms: C_20  and  C_21
REMARK                            x       y       z     vdW  Elec       q    Type
REMARK                         _______ _______ _______ _____ _____    ______ ____
ROOT
ATOM      1  N   UNL     1       3.306   5.994  17.930  0.00  0.00    +0.000 N 
ATOM      2  C   UNL     1       3.063   7.342  18.123  0.00  0.00    +0.000 C 
ATOM      3  O   UNL     1       3.807   8.184  17.600  0.00  0.00    +0.000 OA
ENDROOT
BRANCH   2   4
ATOM      4  C   UNL     1       1.809   7.830  18.883  0.00  0.00    +0.000 C 
ATOM      5  C   UNL     1       1.942   7.951  20.414  0.00  0.00    +0.000 C 
ATOM      6  C   UNL     1       0.633   8.441  21.068  0.00  0.00    +0.000 C 
ATOM      7  C   UNL     1       0.086   9.628  20.366  0.00  0.00    +0.000 A 
ATOM      8  N   UNL     1      -0.780  10.529  20.781  0.00  0.00    +0.000 NA
ATOM      9  C   UNL     1      -0.902  11.366  19.697  0.00  0.00    +0.000 A 
ATOM     10  C   UNL     1      -1.772  12.561  19.689  0.00  0.00    +0.000 C 
ATOM     11  N   UNL     1      -0.168  11.018  18.632  0.00  0.00    +0.000 NA
ATOM     12  N   UNL     1       0.441   9.913  19.083  0.00  0.00    +0.000 N 
ATOM     13  C   UNL     1       1.448   9.225  18.312  0.00  0.00    +0.000 C 
ENDBRANCH   2   4
BRANCH   1  19
ATOM     14  C   UNL     1       2.271   3.483  21.817  0.00  0.00    +0.000 C 
ATOM     15  C   UNL     1       1.995   3.720  20.366  0.00  0.00    +0.000 A 
ATOM     16  C   UNL     1       1.082   2.955  19.656  0.00  0.00    +0.000 A 
ATOM     17  C   UNL     1       0.898   3.226  18.301  0.00  0.00    +0.000 A 
ATOM     18  C   UNL     1       1.636   4.248  17.703  0.00  0.00    +0.000 A 
ATOM     19  C   UNL     1       2.517   4.976  18.491  0.00  0.00    +0.000 A 
ATOM     20  N   UNL     1       2.703   4.721  19.798  0.00  0.00    +0.000 NA
ENDBRANCH   1  19
BRANCH   1  21
ATOM     21  C   UNL     1       4.388   5.563  17.028  0.00  0.00    +0.000 C 
BRANCH  21  22
ATOM     22  C   UNL     1       5.849   5.530  17.585  0.00  0.00    +0.000 C 
ATOM     23  C   UNL     1       5.870   5.286  19.104  0.00  0.00    +0.000 C 
ATOM     24  C   UNL     1       6.580   4.357  16.887  0.00  0.00    +0.000 C 
ATOM     25  C   UNL     1       6.646   6.810  17.286  0.00  0.00    +0.000 C 
ENDBRANCH  21  22
ENDBRANCH   1  21
TORSDOF 4
ENDMDL
MODEL 5
REMARK VINA RESULT:      -7.6      2.592      7.237
REMARK  Name = 
REMARK  9 active torsions:
REMARK  status: ('A' for Active; 'I' for Inactive)
REMARK    1  A    between atoms: C_1  and  C_2
REMARK    2  A    between atoms: C_6  and  N_7
REMARK    3  A    between atoms: N_7  and  C_8
REMARK    4  A    between atoms: C_8  and  C_9
REMARK    5  A    between atoms: C_9  and  C_10
REMARK    6  A    between atoms: C_9  and  C_11
REMARK    7  A    between atoms: C_9  and  C_12
REMARK    8  A    between atoms: C_13  and  C_15
REMARK    9  A    between atoms: C_20  and  C_21
REMARK                            x       y       z     vdW  Elec       q    Type
REMARK                         _______ _______ _______ _____ _____    ______ ____
ROOT
ATOM      1  N   UNL     1       3.262   6.016  18.196  0.00  0.00    +0.000 N 
ATOM      2  C   UNL     1       2.890   7.348  18.132  0.00  0.00    +0.000 C 
ATOM      3  O   UNL     1       3.463   8.111  17.343  0.00  0.00    +0.000 OA
ENDROOT
BRANCH   2   4
ATOM      4  C   UNL     1       1.689   7.884  18.943  0.00  0.00    +0.000 C 
ATOM      5  C   UNL     1       1.943   8.161  20.439  0.00  0.00    +0.000 C 
ATOM      6  C   UNL     1       0.678   8.687  21.148  0.00  0.00    +0.000 C 
ATOM      7  C   UNL     1       0.042   9.786  20.381  0.00  0.00    +0.000 A 
ATOM      8  N   UNL     1      -0.812  10.708  20.777  0.00  0.00    +0.000 NA
ATOM      9  C   UNL     1      -1.046  11.429  19.630  0.00  0.00    +0.000 A 
ATOM     10  C   UNL     1      -1.946  12.600  19.578  0.00  0.00    +0.000 C 
ATOM     11  N   UNL     1      -0.390  10.992  18.547  0.00  0.00    +0.000 NA
ATOM     12  N   UNL     1       0.284   9.949  19.052  0.00  0.00    +0.000 N 
ATOM     13  C   UNL     1       1.244   9.207  18.270  0.00  0.00    +0.000 C 
ENDBRANCH   2   4
BRANCH   1  19
ATOM     14  C   UNL     1       0.491   2.190  18.602  0.00  0.00    +0.000 C 
ATOM     15  C   UNL     1       1.308   3.227  19.305  0.00  0.00    +0.000 A 
ATOM     16  C   UNL     1       1.407   3.276  20.687  0.00  0.00    +0.000 A 
ATOM     17  C   UNL     1       2.171   4.288  21.265  0.00  0.00    +0.000 A 
ATOM     18  C   UNL     1       2.807   5.218  20.441  0.00  0.00    +0.000 A 
ATOM     19  C   UNL     1       2.669   5.087  19.066  0.00  0.00    +0.000 A 
ATOM     20  N   UNL     1       1.932   4.116  18.499  0.00  0.00    +0.000 NA
ENDBRANCH   1  19
BRANCH   1  21
ATOM     21  C   UNL     1       4.270   5.489  17.260  0.00  0.00    +0.000 C 
BRANCH  21  22
ATOM     22  C   UNL     1       5.777   5.561  17.675  0.00  0.00    +0.000 C 
ATOM     23  C   UNL     1       5.959   5.326  19.184  0.00  0.00    +0.000 C 
ATOM     24  C   UNL     1       6.518   4.439  16.907  0.00  0.00    +0.000 C 
ATOM     25  C   UNL     1       6.449   6.892  17.304  0.00  0.00    +0.000 C 
ENDBRANCH  21  22
ENDBRANCH   1  21
TORSDOF 4
ENDMDL
MODEL 6
REMARK VINA RESULT:      -7.4      2.527      6.384
REMARK  Name = 
REMARK  9 active torsions:
REMARK  status: ('A' for Active; 'I' for Inactive)
REMARK    1  A    between atoms: C_1  and  C_2
REMARK    2  A    between atoms: C_6  and  N_7
REMARK    3  A    between atoms: N_7  and  C_8
REMARK    4  A    between atoms: C_8  and  C_9
REMARK    5  A    between atoms: C_9  and  C_10
REMARK    6  A    between atoms: C_9  and  C_11
REMARK    7  A    between atoms: C_9  and  C_12
REMARK    8  A    between atoms: C_13  and  C_15
REMARK    9  A    between atoms: C_20  and  C_21
REMARK                            x       y       z     vdW  Elec       q    Type
REMARK                         _______ _______ _______ _____ _____    ______ ____
ROOT
ATOM      1  N   UNL     1       3.702   4.770  17.765  0.00  0.00    +0.000 N 
ATOM      2  C   UNL     1       2.519   5.399  18.112  0.00  0.00    +0.000 C 
ATOM      3  O   UNL     1       1.461   4.755  18.131  0.00  0.00    +0.000 OA
ENDROOT
BRANCH   2   4
ATOM      4  C   UNL     1       2.504   6.867  18.594  0.00  0.00    +0.000 C 
ATOM      5  C   UNL     1       1.975   7.911  17.590  0.00  0.00    +0.000 C 
ATOM      6  C   UNL     1       2.009   9.339  18.174  0.00  0.00    +0.000 C 
ATOM      7  C   UNL     1       1.416   9.384  19.533  0.00  0.00    +0.000 A 
ATOM      8  N   UNL     1       0.949  10.409  20.216  0.00  0.00    +0.000 NA
ATOM      9  C   UNL     1       0.548   9.837  21.400  0.00  0.00    +0.000 A 
ATOM     10  C   UNL     1      -0.068  10.603  22.504  0.00  0.00    +0.000 C 
ATOM     11  N   UNL     1       0.756   8.516  21.486  0.00  0.00    +0.000 NA
ATOM     12  N   UNL     1       1.312   8.260  20.294  0.00  0.00    +0.000 N 
ATOM     13  C   UNL     1       1.615   6.917  19.863  0.00  0.00    +0.000 C 
ENDBRANCH   2   4
BRANCH   1  19
ATOM     14  C   UNL     1       7.890   5.486  19.871  0.00  0.00    +0.000 C 
ATOM     15  C   UNL     1       6.993   5.813  18.719  0.00  0.00    +0.000 A 
ATOM     16  C   UNL     1       7.355   6.723  17.739  0.00  0.00    +0.000 A 
ATOM     17  C   UNL     1       6.452   6.988  16.710  0.00  0.00    +0.000 A 
ATOM     18  C   UNL     1       5.219   6.337  16.700  0.00  0.00    +0.000 A 
ATOM     19  C   UNL     1       4.942   5.427  17.712  0.00  0.00    +0.000 A 
ATOM     20  N   UNL     1       5.805   5.167  18.709  0.00  0.00    +0.000 NA
ENDBRANCH   1  19
BRANCH   1  21
ATOM     21  C   UNL     1       3.717   3.319  17.512  0.00  0.00    +0.000 C 
BRANCH  21  22
ATOM     22  C   UNL     1       3.382   2.357  18.700  0.00  0.00    +0.000 C 
ATOM     23  C   UNL     1       1.891   1.979  18.718  0.00  0.00    +0.000 C 
ATOM     24  C   UNL     1       4.216   1.068  18.494  0.00  0.00    +0.000 C 
ATOM     25  C   UNL     1       3.757   2.931  20.076  0.00  0.00    +0.000 C 
ENDBRANCH  21  22
ENDBRANCH   1  21
TORSDOF 4
ENDMDL
MODEL 7
REMARK VINA RESULT:      -7.2      2.308      7.070
REMARK  Name = 
REMARK  9 active torsions:
REMARK  status: ('A' for Active; 'I' for Inactive)
REMARK    1  A    between atoms: C_1  and  C_2
REMARK    2  A    between atoms: C_6  and  N_7
REMARK    3  A    between atoms: N_7  and  C_8
REMARK    4  A    between atoms: C_8  and  C_9
REMARK    5  A    between atoms: C_9  and  C_10
REMARK    6  A    between atoms: C_9  and  C_11
REMARK    7  A    between atoms: C_9  and  C_12
REMARK    8  A    between atoms: C_13  and  C_15
REMARK    9  A    between atoms: C_20  and  C_21
REMARK                            x       y       z     vdW  Elec       q    Type
REMARK                         _______ _______ _______ _____ _____    ______ ____
ROOT
ATOM      1  N   UNL     1       3.977   5.510  17.414  0.00  0.00    +0.000 N 
ATOM      2  C   UNL     1       3.618   6.811  17.717  0.00  0.00    +0.000 C 
ATOM      3  O   UNL     1       4.197   7.756  17.162  0.00  0.00    +0.000 OA
ENDROOT
BRANCH   2   4
ATOM      4  C   UNL     1       2.424   7.117  18.650  0.00  0.00    +0.000 C 
ATOM      5  C   UNL     1       2.654   6.876  20.156  0.00  0.00    +0.000 C 
ATOM      6  C   UNL     1       1.399   7.209  20.989  0.00  0.00    +0.000 C 
ATOM      7  C   UNL     1       0.836   8.531  20.620  0.00  0.00    +0.000 A 
ATOM      8  N   UNL     1       0.019   9.316  21.289  0.00  0.00    +0.000 NA
ATOM      9  C   UNL     1      -0.151  10.385  20.440  0.00  0.00    +0.000 A 
ATOM     10  C   UNL     1      -0.992  11.555  20.767  0.00  0.00    +0.000 C 
ATOM     11  N   UNL     1       0.509  10.290  19.279  0.00  0.00    +0.000 NA
ATOM     12  N   UNL     1       1.119   9.105  19.419  0.00  0.00    +0.000 N 
ATOM     13  C   UNL     1       2.061   8.609  18.444  0.00  0.00    +0.000 C 
ENDBRANCH   2   4
BRANCH   1  19
ATOM     14  C   UNL     1       4.371   2.045  20.629  0.00  0.00    +0.000 C 
ATOM     15  C   UNL     1       3.541   2.669  19.552  0.00  0.00    +0.000 A 
ATOM     16  C   UNL     1       2.326   2.133  19.154  0.00  0.00    +0.000 A 
ATOM     17  C   UNL     1       1.624   2.763  18.128  0.00  0.00    +0.000 A 
ATOM     18  C   UNL     1       2.162   3.903  17.533  0.00  0.00    +0.000 A 
ATOM     19  C   UNL     1       3.378   4.384  18.002  0.00  0.00    +0.000 A 
ATOM     20  N   UNL     1       4.063   3.783  18.989  0.00  0.00    +0.000 NA
ENDBRANCH   1  19
BRANCH   1  21
ATOM     21  C   UNL     1       4.977   5.248  16.365  0.00  0.00    +0.000 C 
BRANCH  21  22
ATOM     22  C   UNL     1       6.491   5.301  16.754  0.00  0.00    +0.000 C 
ATOM     23  C   UNL     1       6.752   4.616  18.106  0.00  0.00    +0.000 C 
ATOM     24  C   UNL     1       7.274   4.540  15.655  0.00  0.00    +0.000 C 
ATOM     25  C   UNL     1       7.057   6.729  16.814  0.00  0.00    +0.000 C 
ENDBRANCH  21  22
ENDBRANCH   1  21
TORSDOF 4
ENDMDL
MODEL 8
REMARK VINA RESULT:      -7.2      0.655      1.390
REMARK  Name = 
REMARK  9 active torsions:
REMARK  status: ('A' for Active; 'I' for Inactive)
REMARK    1  A    between atoms: C_1  and  C_2
REMARK    2  A    between atoms: C_6  and  N_7
REMARK    3  A    between atoms: N_7  and  C_8
REMARK    4  A    between atoms: C_8  and  C_9
REMARK    5  A    between atoms: C_9  and  C_10
REMARK    6  A    between atoms: C_9  and  C_11
REMARK    7  A    between atoms: C_9  and  C_12
REMARK    8  A    between atoms: C_13  and  C_15
REMARK    9  A    between atoms: C_20  and  C_21
REMARK                            x       y       z     vdW  Elec       q    Type
REMARK                         _______ _______ _______ _____ _____    ______ ____
ROOT
ATOM      1  N   UNL     1       3.557   4.691  20.049  0.00  0.00    +0.000 N 
ATOM      2  C   UNL     1       4.659   4.201  19.369  0.00  0.00    +0.000 C 
ATOM      3  O   UNL     1       5.137   3.102  19.682  0.00  0.00    +0.000 OA
ENDROOT
BRANCH   2   4
ATOM      4  C   UNL     1       5.239   4.943  18.145  0.00  0.00    +0.000 C 
ATOM      5  C   UNL     1       6.681   5.473  18.287  0.00  0.00    +0.000 C 
ATOM      6  C   UNL     1       7.155   6.197  17.009  0.00  0.00    +0.000 C 
ATOM      7  C   UNL     1       6.873   5.396  15.794  0.00  0.00    +0.000 A 
ATOM      8  N   UNL     1       7.400   5.476  14.589  0.00  0.00    +0.000 NA
ATOM      9  C   UNL     1       6.737   4.492  13.894  0.00  0.00    +0.000 A 
ATOM     10  C   UNL     1       7.002   4.185  12.473  0.00  0.00    +0.000 C 
ATOM     11  N   UNL     1       5.822   3.821  14.604  0.00  0.00    +0.000 NA
ATOM     12  N   UNL     1       5.926   4.419  15.799  0.00  0.00    +0.000 N 
ATOM     13  C   UNL     1       5.199   3.951  16.955  0.00  0.00    +0.000 C 
ENDBRANCH   2   4
BRANCH   1  19
ATOM     14  C   UNL     1       3.071   8.219  16.918  0.00  0.00    +0.000 C 
ATOM     15  C   UNL     1       2.708   7.678  18.264  0.00  0.00    +0.000 A 
ATOM     16  C   UNL     1       1.901   8.379  19.147  0.00  0.00    +0.000 A 
ATOM     17  C   UNL     1       1.627   7.814  20.392  0.00  0.00    +0.000 A 
ATOM     18  C   UNL     1       2.173   6.571  20.712  0.00  0.00    +0.000 A 
ATOM     19  C   UNL     1       2.958   5.929  19.764  0.00  0.00    +0.000 A 
ATOM     20  N   UNL     1       3.229   6.466  18.562  0.00  0.00    +0.000 NA
ENDBRANCH   1  19
BRANCH   1  21
ATOM     21  C   UNL     1       2.898   3.864  21.074  0.00  0.00    +0.000 C 
BRANCH  21  22
ATOM     22  C   UNL     1       1.705   2.951  20.636  0.00  0.00    +0.000 C 
ATOM     23  C   UNL     1       2.153   1.884  19.623  0.00  0.00    +0.000 C 
ATOM     24  C   UNL     1       1.183   2.237  21.908  0.00  0.00    +0.000 C 
ATOM     25  C   UNL     1       0.527   3.732  20.032  0.00  0.00    +0.000 C 
ENDBRANCH  21  22
ENDBRANCH   1  21
TORSDOF 4
ENDMDL
MODEL 9
REMARK VINA RESULT:      -7.0      2.182      6.934
REMARK  Name = 
REMARK  9 active torsions:
REMARK  status: ('A' for Active; 'I' for Inactive)
REMARK    1  A    between atoms: C_1  and  C_2
REMARK    2  A    between atoms: C_6  and  N_7
REMARK    3  A    between atoms: N_7  and  C_8
REMARK    4  A    between atoms: C_8  and  C_9
REMARK    5  A    between atoms: C_9  and  C_10
REMARK    6  A    between atoms: C_9  and  C_11
REMARK    7  A    between atoms: C_9  and  C_12
REMARK    8  A    between atoms: C_13  and  C_15
REMARK    9  A    between atoms: C_20  and  C_21
REMARK                            x       y       z     vdW  Elec       q    Type
REMARK                         _______ _______ _______ _____ _____    ______ ____
ROOT
ATOM      1  N   UNL     1       4.227   5.302  17.361  0.00  0.00    +0.000 N 
ATOM      2  C   UNL     1       3.738   6.597  17.399  0.00  0.00    +0.000 C 
ATOM      3  O   UNL     1       4.157   7.438  16.592  0.00  0.00    +0.000 OA
ENDROOT
BRANCH   2   4
ATOM      4  C   UNL     1       2.589   6.991  18.354  0.00  0.00    +0.000 C 
ATOM      5  C   UNL     1       2.876   6.852  19.863  0.00  0.00    +0.000 C 
ATOM      6  C   UNL     1       1.662   7.269  20.720  0.00  0.00    +0.000 C 
ATOM      7  C   UNL     1       1.109   8.573  20.280  0.00  0.00    +0.000 A 
ATOM      8  N   UNL     1       0.333   9.420  20.924  0.00  0.00    +0.000 NA
ATOM      9  C   UNL     1       0.147  10.430  20.008  0.00  0.00    +0.000 A 
ATOM     10  C   UNL     1      -0.659  11.637  20.285  0.00  0.00    +0.000 C 
ATOM     11  N   UNL     1       0.757  10.240  18.831  0.00  0.00    +0.000 NA
ATOM     12  N   UNL     1       1.351   9.055  19.031  0.00  0.00    +0.000 N 
ATOM     13  C   UNL     1       2.244   8.473  18.058  0.00  0.00    +0.000 C 
ENDBRANCH   2   4
BRANCH   1  19
ATOM     14  C   UNL     1       0.700   2.430  18.702  0.00  0.00    +0.000 C 
ATOM     15  C   UNL     1       2.107   2.883  18.935  0.00  0.00    +0.000 A 
ATOM     16  C   UNL     1       2.883   2.376  19.965  0.00  0.00    +0.000 A 
ATOM     17  C   UNL     1       4.177   2.866  20.128  0.00  0.00    +0.000 A 
ATOM     18  C   UNL     1       4.649   3.850  19.258  0.00  0.00    +0.000 A 
ATOM     19  C   UNL     1       3.811   4.291  18.242  0.00  0.00    +0.000 A 
ATOM     20  N   UNL     1       2.561   3.826  18.079  0.00  0.00    +0.000 NA
ENDBRANCH   1  19
BRANCH   1  21
ATOM     21  C   UNL     1       5.170   4.903  16.302  0.00  0.00    +0.000 C 
BRANCH  21  22
ATOM     22  C   UNL     1       6.681   5.265  16.480  0.00  0.00    +0.000 C 
ATOM     23  C   UNL     1       7.387   4.289  17.437  0.00  0.00    +0.000 C 
ATOM     24  C   UNL     1       7.346   5.158  15.086  0.00  0.00    +0.000 C 
ATOM     25  C   UNL     1       6.911   6.697  16.989  0.00  0.00    +0.000 C 
ENDBRANCH  21  22
ENDBRANCH   1  21
TORSDOF 4
ENDMDL
