MODEL 1
REMARK VINA RESULT:      -9.0      0.000      0.000
REMARK  Name = 
REMARK  7 active torsions:
REMARK  status: ('A' for Active; 'I' for Inactive)
REMARK    1  A    between atoms: C_1  and  O_2
REMARK    2  A    between atoms: O_2  and  C_3
REMARK    3  A    between atoms: C_3  and  C_5
REMARK    4  A    between atoms: C_5  and  C_6
REMARK    5  A    between atoms: C_14  and  C_15
REMARK    6  A    between atoms: C_15  and  N_16
REMARK    7  A    between atoms: C_19  and  C_20
REMARK                            x       y       z     vdW  Elec       q    Type
REMARK                         _______ _______ _______ _____ _____    ______ ____
ROOT
ATOM      1  C   UNL     1       4.821   5.042  17.634  0.00  0.00    +0.000 C 
ATOM      2  C   UNL     1       4.081   3.698  17.680  0.00  0.00    +0.000 C 
ATOM      3  C   UNL     1       3.032   3.688  18.751  0.00  0.00    +0.000 A 
ATOM      4  C   UNL     1       2.530   2.458  19.200  0.00  0.00    +0.000 A 
ATOM      5  C   UNL     1       1.562   2.416  20.197  0.00  0.00    +0.000 A 
ATOM      6  C   UNL     1       1.095   3.605  20.747  0.00  0.00    +0.000 A 
ATOM      7  C   UNL     1       1.580   4.837  20.289  0.00  0.00    +0.000 A 
ATOM      8  C   UNL     1       2.529   4.902  19.254  0.00  0.00    +0.000 A 
ATOM      9  C   UNL     1       3.051   6.242  18.702  0.00  0.00    +0.000 C 
ATOM     10  O   UNL     1       3.812   6.046  17.476  0.00  0.00    +0.000 OA
ENDROOT
BRANCH   1  11
ATOM     11  C   UNL     1       5.778   4.965  16.443  0.00  0.00    +0.000 C 
BRANCH  11  12
ATOM     12  C   UNL     1       7.244   5.246  16.625  0.00  0.00    +0.000 C 
ATOM     13  O   UNL     1       8.010   4.363  17.005  0.00  0.00    +0.000 OA
BRANCH  12  15
ATOM     14  C   UNL     1       7.594   7.372  17.527  0.00  0.00    +0.000 C 
ATOM     15  O   UNL     1       7.613   6.522  16.372  0.00  0.00    +0.000 OA
ENDBRANCH  12  15
ENDBRANCH  11  12
ENDBRANCH   1  11
BRANCH   9  16
ATOM     16  C   UNL     1       1.879   7.253  18.448  0.00  0.00    +0.000 C 
BRANCH  16  17
ATOM     17  N   UNL     1       1.981   8.641  18.996  0.00  0.00    +0.000 NA
ATOM     18  C   UNL     1       1.771   9.625  17.922  0.00  0.00    +0.000 C 
ATOM     19  C   UNL     1       1.590  11.058  18.426  0.00  0.00    +0.000 C 
ATOM     20  C   UNL     1       0.430  11.174  19.431  0.00  0.00    +0.000 C 
ATOM     21  C   UNL     1       0.799  10.219  20.580  0.00  0.00    +0.000 C 
ATOM     22  C   UNL     1       0.995   8.782  20.089  0.00  0.00    +0.000 C 
BRANCH  20  23
ATOM     23  C   UNL     1      -0.974  11.004  18.830  0.00  0.00    +0.000 A 
ATOM     24  C   UNL     1      -2.066  11.774  19.259  0.00  0.00    +0.000 A 
ATOM     25  C   UNL     1      -3.325  11.652  18.660  0.00  0.00    +0.000 A 
ATOM     26  C   UNL     1      -3.517  10.772  17.600  0.00  0.00    +0.000 A 
ATOM     27  C   UNL     1      -2.446  10.014  17.145  0.00  0.00    +0.000 A 
ATOM     28  C   UNL     1      -1.190  10.141  17.741  0.00  0.00    +0.000 A 
ENDBRANCH  20  23
ENDBRANCH  16  17
ENDBRANCH   9  16
TORSDOF 6
ENDMDL
MODEL 2
REMARK VINA RESULT:      -8.8      0.461      1.017
REMARK  Name = 
REMARK  7 active torsions:
REMARK  status: ('A' for Active; 'I' for Inactive)
REMARK    1  A    between atoms: C_1  and  O_2
REMARK    2  A    between atoms: O_2  and  C_3
REMARK    3  A    between atoms: C_3  and  C_5
REMARK    4  A    between atoms: C_5  and  C_6
REMARK    5  A    between atoms: C_14  and  C_15
REMARK    6  A    between atoms: C_15  and  N_16
REMARK    7  A    between atoms: C_19  and  C_20
REMARK                            x       y       z     vdW  Elec       q    Type
REMARK                         _______ _______ _______ _____ _____    ______ ____
ROOT
ATOM      1  C   UNL     1       4.765   5.131  17.300  0.00  0.00    +0.000 C 
ATOM      2  C   UNL     1       4.045   3.797  17.062  0.00  0.00    +0.000 C 
ATOM      3  C   UNL     1       2.973   3.563  18.085  0.00  0.00    +0.000 A 
ATOM      4  C   UNL     1       2.481   2.263  18.270  0.00  0.00    +0.000 A 
ATOM      5  C   UNL     1       1.493   2.015  19.215  0.00  0.00    +0.000 A 
ATOM      6  C   UNL     1       0.996   3.067  19.977  0.00  0.00    +0.000 A 
ATOM      7  C   UNL     1       1.471   4.370  19.783  0.00  0.00    +0.000 A 
ATOM      8  C   UNL     1       2.441   4.649  18.805  0.00  0.00    +0.000 A 
ATOM      9  C   UNL     1       2.954   6.077  18.540  0.00  0.00    +0.000 C 
ATOM     10  O   UNL     1       3.744   6.136  17.319  0.00  0.00    +0.000 OA
ENDROOT
BRANCH   1  11
ATOM     11  C   UNL     1       5.749   5.303  16.141  0.00  0.00    +0.000 C 
BRANCH  11  12
ATOM     12  C   UNL     1       7.213   5.511  16.410  0.00  0.00    +0.000 C 
ATOM     13  O   UNL     1       7.966   4.552  16.561  0.00  0.00    +0.000 OA
BRANCH  12  15
ATOM     14  C   UNL     1       7.750   7.274  17.844  0.00  0.00    +0.000 C 
ATOM     15  O   UNL     1       7.595   6.805  16.499  0.00  0.00    +0.000 OA
ENDBRANCH  12  15
ENDBRANCH  11  12
ENDBRANCH   1  11
BRANCH   9  16
ATOM     16  C   UNL     1       1.772   7.105  18.462  0.00  0.00    +0.000 C 
BRANCH  16  17
ATOM     17  N   UNL     1       1.985   8.502  18.955  0.00  0.00    +0.000 NA
ATOM     18  C   UNL     1       1.819   9.458  17.850  0.00  0.00    +0.000 C 
ATOM     19  C   UNL     1       1.752  10.918  18.302  0.00  0.00    +0.000 C 
ATOM     20  C   UNL     1       0.628  11.153  19.328  0.00  0.00    +0.000 C 
ATOM     21  C   UNL     1       0.958  10.217  20.504  0.00  0.00    +0.000 C 
ATOM     22  C   UNL     1       1.039   8.753  20.064  0.00  0.00    +0.000 C 
BRANCH  20  23
ATOM     23  C   UNL     1      -0.799  11.063  18.765  0.00  0.00    +0.000 A 
ATOM     24  C   UNL     1      -1.145  10.150  17.756  0.00  0.00    +0.000 A 
ATOM     25  C   UNL     1      -2.462  10.037  17.296  0.00  0.00    +0.000 A 
ATOM     26  C   UNL     1      -3.470  10.817  17.852  0.00  0.00    +0.000 A 
ATOM     27  C   UNL     1      -3.156  11.713  18.866  0.00  0.00    +0.000 A 
ATOM     28  C   UNL     1      -1.842  11.822  19.326  0.00  0.00    +0.000 A 
ENDBRANCH  20  23
ENDBRANCH  16  17
ENDBRANCH   9  16
TORSDOF 6
ENDMDL
MODEL 3
REMARK VINA RESULT:      -8.8      0.857      1.075
REMARK  Name = 
REMARK  7 active torsions:
REMARK  status: ('A' for Active; 'I' for Inactive)
REMARK    1  A    between atoms: C_1  and  O_2
REMARK    2  A    between atoms: O_2  and  C_3
REMARK    3  A    between atoms: C_3  and  C_5
REMARK    4  A    between atoms: C_5  and  C_6
REMARK    5  A    between atoms: C_14  and  C_15
REMARK    6  A    between atoms: C_15  and  N_16
REMARK    7  A    between atoms: C_19  and  C_20
REMARK                            x       y       z     vdW  Elec       q    Type
REMARK                         _______ _______ _______ _____ _____    ______ ____
ROOT
ATOM      1  C   UNL     1       4.919   5.279  18.310  0.00  0.00    +0.000 C 
ATOM      2  C   UNL     1       4.319   4.016  17.677  0.00  0.00    +0.000 C 
ATOM      3  C   UNL     1       3.090   3.567  18.407  0.00  0.00    +0.000 A 
ATOM      4  C   UNL     1       2.635   2.252  18.230  0.00  0.00    +0.000 A 
ATOM      5  C   UNL     1       1.502   1.806  18.900  0.00  0.00    +0.000 A 
ATOM      6  C   UNL     1       0.822   2.673  19.749  0.00  0.00    +0.000 A 
ATOM      7  C   UNL     1       1.262   3.993  19.914  0.00  0.00    +0.000 A 
ATOM      8  C   UNL     1       2.382   4.476  19.216  0.00  0.00    +0.000 A 
ATOM      9  C   UNL     1       2.866   5.933  19.346  0.00  0.00    +0.000 C 
ATOM     10  O   UNL     1       3.864   6.249  18.334  0.00  0.00    +0.000 OA
ENDROOT
BRANCH   1  11
ATOM     11  C   UNL     1       6.090   5.694  17.418  0.00  0.00    +0.000 C 
BRANCH  11  12
ATOM     12  C   UNL     1       7.345   4.866  17.377  0.00  0.00    +0.000 C 
ATOM     13  O   UNL     1       7.887   4.496  18.415  0.00  0.00    +0.000 OA
BRANCH  12  15
ATOM     14  C   UNL     1       6.828   4.737  15.103  0.00  0.00    +0.000 C 
ATOM     15  O   UNL     1       7.815   4.610  16.135  0.00  0.00    +0.000 OA
ENDBRANCH  12  15
ENDBRANCH  11  12
ENDBRANCH   1  11
BRANCH   9  16
ATOM     16  C   UNL     1       1.671   6.944  19.251  0.00  0.00    +0.000 C 
BRANCH  16  17
ATOM     17  N   UNL     1       1.947   8.411  19.345  0.00  0.00    +0.000 NA
ATOM     18  C   UNL     1       1.757   9.046  18.032  0.00  0.00    +0.000 C 
ATOM     19  C   UNL     1       1.754  10.576  18.080  0.00  0.00    +0.000 C 
ATOM     20  C   UNL     1       0.687  11.120  19.047  0.00  0.00    +0.000 C 
ATOM     21  C   UNL     1       1.044  10.517  20.417  0.00  0.00    +0.000 C 
ATOM     22  C   UNL     1       1.062   8.986  20.381  0.00  0.00    +0.000 C 
BRANCH  20  23
ATOM     23  C   UNL     1      -0.767  10.941  18.582  0.00  0.00    +0.000 A 
ATOM     24  C   UNL     1      -1.807  11.752  19.062  0.00  0.00    +0.000 A 
ATOM     25  C   UNL     1      -3.116  11.618  18.584  0.00  0.00    +0.000 A 
ATOM     26  C   UNL     1      -3.411  10.684  17.597  0.00  0.00    +0.000 A 
ATOM     27  C   UNL     1      -2.395   9.883  17.092  0.00  0.00    +0.000 A 
ATOM     28  C   UNL     1      -1.089  10.022  17.567  0.00  0.00    +0.000 A 
ENDBRANCH  20  23
ENDBRANCH  16  17
ENDBRANCH   9  16
TORSDOF 6
ENDMDL
MODEL 4
REMARK VINA RESULT:      -8.7      0.822      1.464
REMARK  Name = 
REMARK  7 active torsions:
REMARK  status: ('A' for Active; 'I' for Inactive)
REMARK    1  A    between atoms: C_1  and  O_2
REMARK    2  A    between atoms: O_2  and  C_3
REMARK    3  A    between atoms: C_3  and  C_5
REMARK    4  A    between atoms: C_5  and  C_6
REMARK    5  A    between atoms: C_14  and  C_15
REMARK    6  A    between atoms: C_15  and  N_16
REMARK    7  A    between atoms: C_19  and  C_20
REMARK                            x       y       z     vdW  Elec       q    Type
REMARK                         _______ _______ _______ _____ _____    ______ ____
ROOT
ATOM      1  C   UNL     1       4.832   5.527  17.420  0.00  0.00    +0.000 C 
ATOM      2  C   UNL     1       4.191   4.180  17.057  0.00  0.00    +0.000 C 
ATOM      3  C   UNL     1       3.126   3.798  18.041  0.00  0.00    +0.000 A 
ATOM      4  C   UNL     1       2.707   2.461  18.105  0.00  0.00    +0.000 A 
ATOM      5  C   UNL     1       1.727   2.076  19.012  0.00  0.00    +0.000 A 
ATOM      6  C   UNL     1       1.165   3.026  19.857  0.00  0.00    +0.000 A 
ATOM      7  C   UNL     1       1.567   4.366  19.784  0.00  0.00    +0.000 A 
ATOM      8  C   UNL     1       2.527   4.784  18.847  0.00  0.00    +0.000 A 
ATOM      9  C   UNL     1       2.960   6.256  18.715  0.00  0.00    +0.000 C 
ATOM     10  O   UNL     1       3.755   6.467  17.514  0.00  0.00    +0.000 OA
ENDROOT
BRANCH   1  11
ATOM     11  C   UNL     1       5.814   5.854  16.293  0.00  0.00    +0.000 C 
BRANCH  11  12
ATOM     12  C   UNL     1       7.066   5.042  16.115  0.00  0.00    +0.000 C 
ATOM     13  O   UNL     1       7.699   4.641  17.090  0.00  0.00    +0.000 OA
BRANCH  12  15
ATOM     14  C   UNL     1       6.444   4.137  14.054  0.00  0.00    +0.000 C 
ATOM     15  O   UNL     1       7.429   4.833  14.829  0.00  0.00    +0.000 OA
ENDBRANCH  12  15
ENDBRANCH  11  12
ENDBRANCH   1  11
BRANCH   9  16
ATOM     16  C   UNL     1       1.722   7.220  18.712  0.00  0.00    +0.000 C 
BRANCH  16  17
ATOM     17  N   UNL     1       1.906   8.645  19.127  0.00  0.00    +0.000 NA
ATOM     18  C   UNL     1       1.735   9.534  17.967  0.00  0.00    +0.000 C 
ATOM     19  C   UNL     1       1.638  11.016  18.335  0.00  0.00    +0.000 C 
ATOM     20  C   UNL     1       0.499  11.289  19.334  0.00  0.00    +0.000 C 
ATOM     21  C   UNL     1       0.832  10.428  20.565  0.00  0.00    +0.000 C 
ATOM     22  C   UNL     1       0.944   8.942  20.210  0.00  0.00    +0.000 C 
BRANCH  20  23
ATOM     23  C   UNL     1      -0.920  11.141  18.764  0.00  0.00    +0.000 A 
ATOM     24  C   UNL     1      -1.247  10.147  17.828  0.00  0.00    +0.000 A 
ATOM     25  C   UNL     1      -2.557   9.985  17.364  0.00  0.00    +0.000 A 
ATOM     26  C   UNL     1      -3.578  10.799  17.842  0.00  0.00    +0.000 A 
ATOM     27  C   UNL     1      -3.283  11.777  18.784  0.00  0.00    +0.000 A 
ATOM     28  C   UNL     1      -1.976  11.934  19.249  0.00  0.00    +0.000 A 
ENDBRANCH  20  23
ENDBRANCH  16  17
ENDBRANCH   9  16
TORSDOF 6
ENDMDL
MODEL 5
REMARK VINA RESULT:      -8.7      0.985      1.166
REMARK  Name = 
REMARK  7 active torsions:
REMARK  status: ('A' for Active; 'I' for Inactive)
REMARK    1  A    between atoms: C_1  and  O_2
REMARK    2  A    between atoms: O_2  and  C_3
REMARK    3  A    between atoms: C_3  and  C_5
REMARK    4  A    between atoms: C_5  and  C_6
REMARK    5  A    between atoms: C_14  and  C_15
REMARK    6  A    between atoms: C_15  and  N_16
REMARK    7  A    between atoms: C_19  and  C_20
REMARK                            x       y       z     vdW  Elec       q    Type
REMARK                         _______ _______ _______ _____ _____    ______ ____
ROOT
ATOM      1  C   UNL     1       5.366   5.560  17.991  0.00  0.00    +0.000 C 
ATOM      2  C   UNL     1       4.861   4.262  17.345  0.00  0.00    +0.000 C 
ATOM      3  C   UNL     1       3.547   3.837  17.928  0.00  0.00    +0.000 A 
ATOM      4  C   UNL     1       3.124   2.511  17.756  0.00  0.00    +0.000 A 
ATOM      5  C   UNL     1       1.913   2.086  18.291  0.00  0.00    +0.000 A 
ATOM      6  C   UNL     1       1.124   2.986  18.999  0.00  0.00    +0.000 A 
ATOM      7  C   UNL     1       1.534   4.316  19.157  0.00  0.00    +0.000 A 
ATOM      8  C   UNL     1       2.735   4.776  18.590  0.00  0.00    +0.000 A 
ATOM      9  C   UNL     1       3.192   6.242  18.712  0.00  0.00    +0.000 C 
ATOM     10  O   UNL     1       4.315   6.520  17.828  0.00  0.00    +0.000 OA
ENDROOT
BRANCH   1  11
ATOM     11  C   UNL     1       6.645   5.944  17.243  0.00  0.00    +0.000 C 
BRANCH  11  12
ATOM     12  C   UNL     1       7.607   6.932  17.839  0.00  0.00    +0.000 C 
ATOM     13  O   UNL     1       8.220   6.667  18.871  0.00  0.00    +0.000 OA
BRANCH  12  15
ATOM     14  C   UNL     1       8.218   9.182  17.966  0.00  0.00    +0.000 C 
ATOM     15  O   UNL     1       7.702   8.105  17.173  0.00  0.00    +0.000 OA
ENDBRANCH  12  15
ENDBRANCH  11  12
ENDBRANCH   1  11
BRANCH   9  16
ATOM     16  C   UNL     1       2.017   7.236  18.412  0.00  0.00    +0.000 C 
BRANCH  16  17
ATOM     17  N   UNL     1       2.071   8.622  18.973  0.00  0.00    +0.000 NA
ATOM     18  C   UNL     1       1.873   9.609  17.901  0.00  0.00    +0.000 C 
ATOM     19  C   UNL     1       1.645  11.034  18.410  0.00  0.00    +0.000 C 
ATOM     20  C   UNL     1       0.451  11.117  19.379  0.00  0.00    +0.000 C 
ATOM     21  C   UNL     1       0.806  10.161  20.531  0.00  0.00    +0.000 C 
ATOM     22  C   UNL     1       1.049   8.733  20.036  0.00  0.00    +0.000 C 
BRANCH  20  23
ATOM     23  C   UNL     1      -0.929  10.921  18.732  0.00  0.00    +0.000 A 
ATOM     24  C   UNL     1      -2.039  11.701  19.096  0.00  0.00    +0.000 A 
ATOM     25  C   UNL     1      -3.274  11.553  18.456  0.00  0.00    +0.000 A 
ATOM     26  C   UNL     1      -3.424  10.638  17.419  0.00  0.00    +0.000 A 
ATOM     27  C   UNL     1      -2.335   9.870  17.028  0.00  0.00    +0.000 A 
ATOM     28  C   UNL     1      -1.102  10.022  17.665  0.00  0.00    +0.000 A 
ENDBRANCH  20  23
ENDBRANCH  16  17
ENDBRANCH   9  16
TORSDOF 6
ENDMDL
MODEL 6
REMARK VINA RESULT:      -8.6      0.993      1.496
REMARK  Name = 
REMARK  7 active torsions:
REMARK  status: ('A' for Active; 'I' for Inactive)
REMARK    1  A    between atoms: C_1  and  O_2
REMARK    2  A    between atoms: O_2  and  C_3
REMARK    3  A    between atoms: C_3  and  C_5
REMARK    4  A    between atoms: C_5  and  C_6
REMARK    5  A    between atoms: C_14  and  C_15
REMARK    6  A    between atoms: C_15  and  N_16
REMARK    7  A    between atoms: C_19  and  C_20
REMARK                            x       y       z     vdW  Elec       q    Type
REMARK                         _______ _______ _______ _____ _____    ______ ____
ROOT
ATOM      1  C   UNL     1       4.487   5.784  17.944  0.00  0.00    +0.000 C 
ATOM      2  C   UNL     1       3.739   4.619  17.282  0.00  0.00    +0.000 C 
ATOM      3  C   UNL     1       2.687   4.055  18.190  0.00  0.00    +0.000 A 
ATOM      4  C   UNL     1       2.178   2.775  17.930  0.00  0.00    +0.000 A 
ATOM      5  C   UNL     1       1.208   2.224  18.759  0.00  0.00    +0.000 A 
ATOM      6  C   UNL     1       0.746   2.952  19.850  0.00  0.00    +0.000 A 
ATOM      7  C   UNL     1       1.239   4.239  20.103  0.00  0.00    +0.000 A 
ATOM      8  C   UNL     1       2.190   4.830  19.255  0.00  0.00    +0.000 A 
ATOM      9  C   UNL     1       2.721   6.258  19.484  0.00  0.00    +0.000 C 
ATOM     10  O   UNL     1       3.483   6.728  18.336  0.00  0.00    +0.000 OA
ENDROOT
BRANCH   1  11
ATOM     11  C   UNL     1       5.446   6.336  16.888  0.00  0.00    +0.000 C 
BRANCH  11  12
ATOM     12  C   UNL     1       6.878   6.627  17.240  0.00  0.00    +0.000 C 
ATOM     13  O   UNL     1       7.375   7.724  16.994  0.00  0.00    +0.000 OA
BRANCH  12  15
ATOM     14  C   UNL     1       7.915   5.813  19.167  0.00  0.00    +0.000 C 
ATOM     15  O   UNL     1       7.546   5.593  17.799  0.00  0.00    +0.000 OA
ENDBRANCH  12  15
ENDBRANCH  11  12
ENDBRANCH   1  11
BRANCH   9  16
ATOM     16  C   UNL     1       1.554   7.259  19.797  0.00  0.00    +0.000 C 
BRANCH  16  17
ATOM     17  N   UNL     1       1.812   8.730  19.711  0.00  0.00    +0.000 NA
ATOM     18  C   UNL     1       1.675   9.187  18.319  0.00  0.00    +0.000 C 
ATOM     19  C   UNL     1       1.656  10.709  18.168  0.00  0.00    +0.000 C 
ATOM     20  C   UNL     1       0.541  11.357  19.009  0.00  0.00    +0.000 C 
ATOM     21  C   UNL     1       0.841  10.943  20.460  0.00  0.00    +0.000 C 
ATOM     22  C   UNL     1       0.876   9.421  20.624  0.00  0.00    +0.000 C 
BRANCH  20  23
ATOM     23  C   UNL     1      -0.889  11.097  18.508  0.00  0.00    +0.000 A 
ATOM     24  C   UNL     1      -1.190  10.048  17.626  0.00  0.00    +0.000 A 
ATOM     25  C   UNL     1      -2.506   9.786  17.228  0.00  0.00    +0.000 A 
ATOM     26  C   UNL     1      -3.556  10.552  17.721  0.00  0.00    +0.000 A 
ATOM     27  C   UNL     1      -3.285  11.584  18.611  0.00  0.00    +0.000 A 
ATOM     28  C   UNL     1      -1.972  11.841  19.011  0.00  0.00    +0.000 A 
ENDBRANCH  20  23
ENDBRANCH  16  17
ENDBRANCH   9  16
TORSDOF 6
ENDMDL
MODEL 7
REMARK VINA RESULT:      -8.6      0.899      1.114
REMARK  Name = 
REMARK  7 active torsions:
REMARK  status: ('A' for Active; 'I' for Inactive)
REMARK    1  A    between atoms: C_1  and  O_2
REMARK    2  A    between atoms: O_2  and  C_3
REMARK    3  A    between atoms: C_3  and  C_5
REMARK    4  A    between atoms: C_5  and  C_6
REMARK    5  A    between atoms: C_14  and  C_15
REMARK    6  A    between atoms: C_15  and  N_16
REMARK    7  A    between atoms: C_19  and  C_20
REMARK                            x       y       z     vdW  Elec       q    Type
REMARK                         _______ _______ _______ _____ _____    ______ ____
ROOT
ATOM      1  C   UNL     1       4.816   4.694  17.409  0.00  0.00    +0.000 C 
ATOM      2  C   UNL     1       4.148   3.400  17.893  0.00  0.00    +0.000 C 
ATOM      3  C   UNL     1       3.368   3.625  19.154  0.00  0.00    +0.000 A 
ATOM      4  C   UNL     1       3.019   2.521  19.944  0.00  0.00    +0.000 A 
ATOM      5  C   UNL     1       2.302   2.700  21.122  0.00  0.00    +0.000 A 
ATOM      6  C   UNL     1       1.934   3.983  21.511  0.00  0.00    +0.000 A 
ATOM      7  C   UNL     1       2.264   5.087  20.715  0.00  0.00    +0.000 A 
ATOM      8  C   UNL     1       2.953   4.925  19.500  0.00  0.00    +0.000 A 
ATOM      9  C   UNL     1       3.294   6.114  18.584  0.00  0.00    +0.000 C 
ATOM     10  O   UNL     1       3.765   5.660  17.283  0.00  0.00    +0.000 OA
ENDROOT
BRANCH   1  11
ATOM     11  C   UNL     1       5.482   4.361  16.073  0.00  0.00    +0.000 C 
BRANCH  11  12
ATOM     12  C   UNL     1       6.888   4.812  15.790  0.00  0.00    +0.000 C 
ATOM     13  O   UNL     1       7.810   4.501  16.541  0.00  0.00    +0.000 OA
BRANCH  12  15
ATOM     14  C   UNL     1       7.473   4.877  13.530  0.00  0.00    +0.000 C 
ATOM     15  O   UNL     1       7.025   5.589  14.692  0.00  0.00    +0.000 OA
ENDBRANCH  12  15
ENDBRANCH  11  12
ENDBRANCH   1  11
BRANCH   9  16
ATOM     16  C   UNL     1       2.064   7.070  18.402  0.00  0.00    +0.000 C 
BRANCH  16  17
ATOM     17  N   UNL     1       2.132   8.460  18.950  0.00  0.00    +0.000 NA
ATOM     18  C   UNL     1       1.945   9.439  17.868  0.00  0.00    +0.000 C 
ATOM     19  C   UNL     1       1.732  10.872  18.362  0.00  0.00    +0.000 C 
ATOM     20  C   UNL     1       0.539  10.977  19.329  0.00  0.00    +0.000 C 
ATOM     21  C   UNL     1       0.883  10.029  20.492  0.00  0.00    +0.000 C 
ATOM     22  C   UNL     1       1.111   8.593  20.011  0.00  0.00    +0.000 C 
BRANCH  20  23
ATOM     23  C   UNL     1      -0.843  10.789  18.684  0.00  0.00    +0.000 A 
ATOM     24  C   UNL     1      -1.961  11.535  19.089  0.00  0.00    +0.000 A 
ATOM     25  C   UNL     1      -3.199  11.398  18.451  0.00  0.00    +0.000 A 
ATOM     26  C   UNL     1      -3.343  10.527  17.376  0.00  0.00    +0.000 A 
ATOM     27  C   UNL     1      -2.246   9.793  16.944  0.00  0.00    +0.000 A 
ATOM     28  C   UNL     1      -1.010   9.935  17.579  0.00  0.00    +0.000 A 
ENDBRANCH  20  23
ENDBRANCH  16  17
ENDBRANCH   9  16
TORSDOF 6
ENDMDL
MODEL 8
REMARK VINA RESULT:      -8.5      0.962      1.535
REMARK  Name = 
REMARK  7 active torsions:
REMARK  status: ('A' for Active; 'I' for Inactive)
REMARK    1  A    between atoms: C_1  and  O_2
REMARK    2  A    between atoms: O_2  and  C_3
REMARK    3  A    between atoms: C_3  and  C_5
REMARK    4  A    between atoms: C_5  and  C_6
REMARK    5  A    between atoms: C_14  and  C_15
REMARK    6  A    between atoms: C_15  and  N_16
REMARK    7  A    between atoms: C_19  and  C_20
REMARK                            x       y       z     vdW  Elec       q    Type
REMARK                         _______ _______ _______ _____ _____    ______ ____
ROOT
ATOM      1  C   UNL     1       5.301   5.300  18.778  0.00  0.00    +0.000 C 
ATOM      2  C   UNL     1       4.826   3.981  18.153  0.00  0.00    +0.000 C 
ATOM      3  C   UNL     1       3.453   3.613  18.630  0.00  0.00    +0.000 A 
ATOM      4  C   UNL     1       3.015   2.289  18.485  0.00  0.00    +0.000 A 
ATOM      5  C   UNL     1       1.749   1.917  18.924  0.00  0.00    +0.000 A 
ATOM      6  C   UNL     1       0.921   2.868  19.509  0.00  0.00    +0.000 A 
ATOM      7  C   UNL     1       1.347   4.196  19.639  0.00  0.00    +0.000 A 
ATOM      8  C   UNL     1       2.607   4.602  19.165  0.00  0.00    +0.000 A 
ATOM      9  C   UNL     1       3.087   6.063  19.256  0.00  0.00    +0.000 C 
ATOM     10  O   UNL     1       4.294   6.271  18.469  0.00  0.00    +0.000 OA
ENDROOT
BRANCH   1  11
ATOM     11  C   UNL     1       6.653   5.618  18.135  0.00  0.00    +0.000 C 
BRANCH  11  12
ATOM     12  C   UNL     1       6.737   6.568  16.973  0.00  0.00    +0.000 C 
ATOM     13  O   UNL     1       7.201   7.697  17.116  0.00  0.00    +0.000 OA
BRANCH  12  15
ATOM     14  C   UNL     1       6.962   4.957  15.297  0.00  0.00    +0.000 C 
ATOM     15  O   UNL     1       6.243   6.086  15.809  0.00  0.00    +0.000 OA
ENDBRANCH  12  15
ENDBRANCH  11  12
ENDBRANCH   1  11
BRANCH   9  16
ATOM     16  C   UNL     1       1.970   7.064  18.797  0.00  0.00    +0.000 C 
BRANCH  16  17
ATOM     17  N   UNL     1       2.108   8.515  19.131  0.00  0.00    +0.000 NA
ATOM     18  C   UNL     1       1.952   9.330  17.916  0.00  0.00    +0.000 C 
ATOM     19  C   UNL     1       1.810  10.828  18.193  0.00  0.00    +0.000 C 
ATOM     20  C   UNL     1       0.635  11.131  19.140  0.00  0.00    +0.000 C 
ATOM     21  C   UNL     1       0.951  10.352  20.429  0.00  0.00    +0.000 C 
ATOM     22  C   UNL     1       1.107   8.851  20.166  0.00  0.00    +0.000 C 
BRANCH  20  23
ATOM     23  C   UNL     1      -0.762  10.915  18.538  0.00  0.00    +0.000 A 
ATOM     24  C   UNL     1      -1.007   9.944  17.554  0.00  0.00    +0.000 A 
ATOM     25  C   UNL     1      -2.296   9.717  17.060  0.00  0.00    +0.000 A 
ATOM     26  C   UNL     1      -3.376  10.439  17.555  0.00  0.00    +0.000 A 
ATOM     27  C   UNL     1      -3.162  11.391  18.543  0.00  0.00    +0.000 A 
ATOM     28  C   UNL     1      -1.875  11.613  19.038  0.00  0.00    +0.000 A 
ENDBRANCH  20  23
ENDBRANCH  16  17
ENDBRANCH   9  16
TORSDOF 6
ENDMDL
MODEL 9
REMARK VINA RESULT:      -8.3      0.882      1.153
REMARK  Name = 
REMARK  7 active torsions:
REMARK  status: ('A' for Active; 'I' for Inactive)
REMARK    1  A    between atoms: C_1  and  O_2
REMARK    2  A    between atoms: O_2  and  C_3
REMARK    3  A    between atoms: C_3  and  C_5
REMARK    4  A    between atoms: C_5  and  C_6
REMARK    5  A    between atoms: C_14  and  C_15
REMARK    6  A    between atoms: C_15  and  N_16
REMARK    7  A    between atoms: C_19  and  C_20
REMARK                            x       y       z     vdW  Elec       q    Type
REMARK                         _______ _______ _______ _____ _____    ______ ____
ROOT
ATOM      1  C   UNL     1       4.763   5.991  17.895  0.00  0.00    +0.000 C 
ATOM      2  C   UNL     1       4.291   4.531  17.872  0.00  0.00    +0.000 C 
ATOM      3  C   UNL     1       3.416   4.220  19.049  0.00  0.00    +0.000 A 
ATOM      4  C   UNL     1       3.211   2.880  19.409  0.00  0.00    +0.000 A 
ATOM      5  C   UNL     1       2.410   2.562  20.499  0.00  0.00    +0.000 A 
ATOM      6  C   UNL     1       1.814   3.582  21.232  0.00  0.00    +0.000 A 
ATOM      7  C   UNL     1       2.002   4.921  20.865  0.00  0.00    +0.000 A 
ATOM      8  C   UNL     1       2.775   5.263  19.742  0.00  0.00    +0.000 A 
ATOM      9  C   UNL     1       2.966   6.723  19.290  0.00  0.00    +0.000 C 
ATOM     10  O   UNL     1       3.576   6.791  17.970  0.00  0.00    +0.000 OA
ENDROOT
BRANCH   1  11
ATOM     11  C   UNL     1       5.548   6.210  16.600  0.00  0.00    +0.000 C 
BRANCH  11  12
ATOM     12  C   UNL     1       7.028   5.948  16.554  0.00  0.00    +0.000 C 
ATOM     13  O   UNL     1       7.761   6.325  17.466  0.00  0.00    +0.000 OA
BRANCH  12  15
ATOM     14  C   UNL     1       6.440   4.551  14.778  0.00  0.00    +0.000 C 
ATOM     15  O   UNL     1       7.458   5.313  15.440  0.00  0.00    +0.000 OA
ENDBRANCH  12  15
ENDBRANCH  11  12
ENDBRANCH   1  11
BRANCH   9  16
ATOM     16  C   UNL     1       1.606   7.506  19.290  0.00  0.00    +0.000 C 
BRANCH  16  17
ATOM     17  N   UNL     1       1.604   8.963  19.627  0.00  0.00    +0.000 NA
ATOM     18  C   UNL     1       1.466   9.765  18.401  0.00  0.00    +0.000 C 
ATOM     19  C   UNL     1       1.185  11.246  18.661  0.00  0.00    +0.000 C 
ATOM     20  C   UNL     1      -0.072  11.452  19.525  0.00  0.00    +0.000 C 
ATOM     21  C   UNL     1       0.215  10.698  20.835  0.00  0.00    +0.000 C 
ATOM     22  C   UNL     1       0.510   9.216  20.590  0.00  0.00    +0.000 C 
BRANCH  20  23
ATOM     23  C   UNL     1      -1.403  11.124  18.829  0.00  0.00    +0.000 A 
ATOM     24  C   UNL     1      -2.564  11.881  19.049  0.00  0.00    +0.000 A 
ATOM     25  C   UNL     1      -3.753  11.609  18.362  0.00  0.00    +0.000 A 
ATOM     26  C   UNL     1      -3.802  10.587  17.420  0.00  0.00    +0.000 A 
ATOM     27  C   UNL     1      -2.660   9.837  17.170  0.00  0.00    +0.000 A 
ATOM     28  C   UNL     1      -1.474  10.113  17.854  0.00  0.00    +0.000 A 
ENDBRANCH  20  23
ENDBRANCH  16  17
ENDBRANCH   9  16
TORSDOF 6
ENDMDL
