MODEL 1
REMARK VINA RESULT:      -7.6      0.000      0.000
REMARK  Name = 
REMARK  8 active torsions:
REMARK  status: ('A' for Active; 'I' for Inactive)
REMARK    1  A    between atoms: O5*_1  and  C5*_2
REMARK    2  A    between atoms: C5*_2  and  C4*_3
REMARK    3  A    between atoms: C1*_5  and  N_6
REMARK    4  A    between atoms: N_11  and  N_12
REMARK    5  A    between atoms: C_15  and  S_16
REMARK    6  A    between atoms: S_16  and  C_17
REMARK    7  A    between atoms: C2*_30  and  O2*_31
REMARK    8  A    between atoms: C3*_32  and  O3*_33
REMARK                            x       y       z     vdW  Elec       q    Type
REMARK                         _______ _______ _______ _____ _____    ______ ____
ROOT
ATOM      1  N   UNL     1       1.124   9.426  19.173  0.00  0.00    +0.000 N 
ATOM      2  C   UNL     1       1.679   9.996  18.056  0.00  0.00    +0.000 A 
ATOM      3  N   UNL     1       2.621   9.230  17.530  0.00  0.00    +0.000 NA
ATOM      4  C   UNL     1       2.659   8.107  18.337  0.00  0.00    +0.000 A 
ATOM      5  C   UNL     1       3.442   6.938  18.310  0.00  0.00    +0.000 A 
ATOM      6  N   UNL     1       4.482   6.767  17.374  0.00  0.00    +0.000 N 
ATOM      7  N   UNL     1       3.202   6.008  19.278  0.00  0.00    +0.000 NA
ATOM      8  C   UNL     1       2.281   6.263  20.215  0.00  0.00    +0.000 A 
ATOM      9 CL   UNL     1       2.124   5.088  21.448  0.00  0.00    +0.000 Cl
ATOM     10  N   UNL     1       1.501   7.344  20.348  0.00  0.00    +0.000 NA
ATOM     11  C   UNL     1       1.739   8.225  19.369  0.00  0.00    +0.000 A 
ATOM     12  H   UNL     1       4.427   7.422  16.594  0.00  0.00    +0.000 HD
ENDROOT
BRANCH   6  13
ATOM     13  N   UNL     1       5.197   5.538  17.246  0.00  0.00    +0.000 NA
ATOM     14  C   UNL     1       4.551   4.735  16.187  0.00  0.00    +0.000 C 
ATOM     15  C   UNL     1       5.359   3.485  15.827  0.00  0.00    +0.000 C 
ATOM     16  C   UNL     1       6.789   3.822  15.397  0.00  0.00    +0.000 C 
ATOM     17  C   UNL     1       7.432   4.620  16.529  0.00  0.00    +0.000 C 
ATOM     18  C   UNL     1       6.604   5.850  16.908  0.00  0.00    +0.000 C 
BRANCH  16  19
ATOM     19  S   UNL     1       6.915   4.815  13.840  0.00  0.00    +0.000 S 
BRANCH  19  20
ATOM     20  C   UNL     1       6.169   3.734  12.643  0.00  0.00    +0.000 A 
ATOM     21  C   UNL     1       6.941   2.707  12.089  0.00  0.00    +0.000 A 
ATOM     22  C   UNL     1       6.376   1.814  11.176  0.00  0.00    +0.000 A 
ATOM     23  C   UNL     1       5.032   1.934  10.829  0.00  0.00    +0.000 A 
ATOM     24  C   UNL     1       4.255   2.947  11.392  0.00  0.00    +0.000 A 
ATOM     25  C   UNL     1       4.821   3.845  12.296  0.00  0.00    +0.000 A 
ENDBRANCH  19  20
ENDBRANCH  16  19
ENDBRANCH   6  13
BRANCH   1  28
ATOM     26  C4* UNL     1      -1.397  11.815  19.689  0.00  0.00    +0.000 C 
ATOM     27  O4* UNL     1      -0.942  10.580  19.086  0.00  0.00    +0.000 OA
ATOM     28  C1* UNL     1       0.036   9.975  19.960  0.00  0.00    +0.000 C 
ATOM     29  C2* UNL     1       0.471  11.033  20.972  0.00  0.00    +0.000 C 
ATOM     30  C3* UNL     1      -0.784  11.882  21.089  0.00  0.00    +0.000 C 
BRANCH  29  31
ATOM     31  O2* UNL     1       0.834  10.451  22.226  0.00  0.00    +0.000 OA
ATOM     32  H2* UNL     1       1.301  11.158  22.722  0.00  0.00    +0.000 HD
ENDBRANCH  29  31
BRANCH  30  33
ATOM     33  O3* UNL     1      -1.627  11.244  22.078  0.00  0.00    +0.000 OA
ATOM     34  H3* UNL     1      -1.950  11.920  22.700  0.00  0.00    +0.000 HD
ENDBRANCH  30  33
BRANCH  26  35
ATOM     35  C5* UNL     1      -1.039  13.005  18.793  0.00  0.00    +0.000 C 
BRANCH  35  36
ATOM     36  O5* UNL     1      -1.192  12.651  17.424  0.00  0.00    +0.000 OA
ATOM     37  H5* UNL     1      -0.344  12.843  16.981  0.00  0.00    +0.000 HD
ENDBRANCH  35  36
ENDBRANCH  26  35
ENDBRANCH   1  28
TORSDOF 8
ENDMDL
MODEL 2
REMARK VINA RESULT:      -7.5      4.854     10.699
REMARK  Name = 
REMARK  8 active torsions:
REMARK  status: ('A' for Active; 'I' for Inactive)
REMARK    1  A    between atoms: O5*_1  and  C5*_2
REMARK    2  A    between atoms: C5*_2  and  C4*_3
REMARK    3  A    between atoms: C1*_5  and  N_6
REMARK    4  A    between atoms: N_11  and  N_12
REMARK    5  A    between atoms: C_15  and  S_16
REMARK    6  A    between atoms: S_16  and  C_17
REMARK    7  A    between atoms: C2*_30  and  O2*_31
REMARK    8  A    between atoms: C3*_32  and  O3*_33
REMARK                            x       y       z     vdW  Elec       q    Type
REMARK                         _______ _______ _______ _____ _____    ______ ____
ROOT
ATOM      1  N   UNL     1       2.612   6.555  19.307  0.00  0.00    +0.000 N 
ATOM      2  C   UNL     1       3.035   6.931  18.058  0.00  0.00    +0.000 A 
ATOM      3  N   UNL     1       2.597   8.135  17.732  0.00  0.00    +0.000 NA
ATOM      4  C   UNL     1       1.874   8.561  18.832  0.00  0.00    +0.000 A 
ATOM      5  C   UNL     1       1.161   9.742  19.108  0.00  0.00    +0.000 A 
ATOM      6  N   UNL     1       1.008  10.755  18.140  0.00  0.00    +0.000 N 
ATOM      7  N   UNL     1       0.559   9.833  20.329  0.00  0.00    +0.000 NA
ATOM      8  C   UNL     1       0.636   8.799  21.174  0.00  0.00    +0.000 A 
ATOM      9 CL   UNL     1      -0.238   8.962  22.635  0.00  0.00    +0.000 Cl
ATOM     10  N   UNL     1       1.264   7.628  21.006  0.00  0.00    +0.000 NA
ATOM     11  C   UNL     1       1.868   7.579  19.812  0.00  0.00    +0.000 A 
ATOM     12  H   UNL     1       1.661  10.664  17.362  0.00  0.00    +0.000 HD
ENDROOT
BRANCH   6  13
ATOM     13  N   UNL     1       0.404  12.013  18.442  0.00  0.00    +0.000 NA
ATOM     14  C   UNL     1      -0.892  11.757  19.105  0.00  0.00    +0.000 C 
ATOM     15  C   UNL     1      -1.530  13.037  19.654  0.00  0.00    +0.000 C 
ATOM     16  C   UNL     1      -0.606  13.775  20.627  0.00  0.00    +0.000 C 
ATOM     17  C   UNL     1       0.705  14.050  19.895  0.00  0.00    +0.000 C 
ATOM     18  C   UNL     1       1.322  12.774  19.320  0.00  0.00    +0.000 C 
BRANCH  16  19
ATOM     19  S   UNL     1      -0.221  12.848  22.182  0.00  0.00    +0.000 S 
BRANCH  19  20
ATOM     20  C   UNL     1      -1.692  13.103  23.147  0.00  0.00    +0.000 A 
ATOM     21  C   UNL     1      -1.872  14.332  23.790  0.00  0.00    +0.000 A 
ATOM     22  C   UNL     1      -3.034  14.581  24.523  0.00  0.00    +0.000 A 
ATOM     23  C   UNL     1      -4.029  13.609  24.598  0.00  0.00    +0.000 A 
ATOM     24  C   UNL     1      -3.861  12.388  23.944  0.00  0.00    +0.000 A 
ATOM     25  C   UNL     1      -2.696  12.135  23.220  0.00  0.00    +0.000 A 
ENDBRANCH  19  20
ENDBRANCH  16  19
ENDBRANCH   6  13
BRANCH   1  28
ATOM     26  C4* UNL     1       4.143   3.395  19.361  0.00  0.00    +0.000 C 
ATOM     27  O4* UNL     1       4.225   4.833  19.508  0.00  0.00    +0.000 OA
ATOM     28  C1* UNL     1       2.952   5.320  19.987  0.00  0.00    +0.000 C 
ATOM     29  C2* UNL     1       1.928   4.202  19.799  0.00  0.00    +0.000 C 
ATOM     30  C3* UNL     1       2.795   2.962  19.942  0.00  0.00    +0.000 C 
BRANCH  29  31
ATOM     31  O2* UNL     1       0.903   4.248  20.795  0.00  0.00    +0.000 OA
ATOM     32  H2* UNL     1       1.252   4.826  21.508  0.00  0.00    +0.000 HD
ENDBRANCH  29  31
BRANCH  30  33
ATOM     33  O3* UNL     1       2.885   2.677  21.358  0.00  0.00    +0.000 OA
ATOM     34  H3* UNL     1       3.296   3.437  21.807  0.00  0.00    +0.000 HD
ENDBRANCH  30  33
BRANCH  26  35
ATOM     35  C5* UNL     1       4.345   3.000  17.894  0.00  0.00    +0.000 C 
BRANCH  35  36
ATOM     36  O5* UNL     1       4.095   1.610  17.723  0.00  0.00    +0.000 OA
ATOM     37  H5* UNL     1       4.460   1.155  18.505  0.00  0.00    +0.000 HD
ENDBRANCH  35  36
ENDBRANCH  26  35
ENDBRANCH   1  28
TORSDOF 8
ENDMDL
MODEL 3
REMARK VINA RESULT:      -7.4      4.841     10.787
REMARK  Name = 
REMARK  8 active torsions:
REMARK  status: ('A' for Active; 'I' for Inactive)
REMARK    1  A    between atoms: O5*_1  and  C5*_2
REMARK    2  A    between atoms: C5*_2  and  C4*_3
REMARK    3  A    between atoms: C1*_5  and  N_6
REMARK    4  A    between atoms: N_11  and  N_12
REMARK    5  A    between atoms: C_15  and  S_16
REMARK    6  A    between atoms: S_16  and  C_17
REMARK    7  A    between atoms: C2*_30  and  O2*_31
REMARK    8  A    between atoms: C3*_32  and  O3*_33
REMARK                            x       y       z     vdW  Elec       q    Type
REMARK                         _______ _______ _______ _____ _____    ______ ____
ROOT
ATOM      1  N   UNL     1       2.591   6.946  19.073  0.00  0.00    +0.000 N 
ATOM      2  C   UNL     1       2.911   7.345  17.801  0.00  0.00    +0.000 A 
ATOM      3  N   UNL     1       2.430   8.546  17.526  0.00  0.00    +0.000 NA
ATOM      4  C   UNL     1       1.786   8.945  18.683  0.00  0.00    +0.000 A 
ATOM      5  C   UNL     1       1.076  10.110  19.029  0.00  0.00    +0.000 A 
ATOM      6  N   UNL     1       0.833  11.133  18.090  0.00  0.00    +0.000 N 
ATOM      7  N   UNL     1       0.567  10.175  20.293  0.00  0.00    +0.000 NA
ATOM      8  C   UNL     1       0.726   9.132  21.116  0.00  0.00    +0.000 A 
ATOM      9 CL   UNL     1      -0.037   9.261  22.641  0.00  0.00    +0.000 Cl
ATOM     10  N   UNL     1       1.358   7.974  20.884  0.00  0.00    +0.000 NA
ATOM     11  C   UNL     1       1.870   7.951  19.647  0.00  0.00    +0.000 A 
ATOM     12  H   UNL     1       1.427  11.062  17.263  0.00  0.00    +0.000 HD
ENDROOT
BRANCH   6  13
ATOM     13  N   UNL     1       0.234  12.376  18.454  0.00  0.00    +0.000 NA
ATOM     14  C   UNL     1      -1.071  12.092  19.088  0.00  0.00    +0.000 C 
ATOM     15  C   UNL     1      -1.707  13.344  19.699  0.00  0.00    +0.000 C 
ATOM     16  C   UNL     1      -0.791  14.021  20.722  0.00  0.00    +0.000 C 
ATOM     17  C   UNL     1       0.531  14.327  20.020  0.00  0.00    +0.000 C 
ATOM     18  C   UNL     1       1.146  13.081  19.382  0.00  0.00    +0.000 C 
BRANCH  16  19
ATOM     19  S   UNL     1      -0.428  13.007  22.228  0.00  0.00    +0.000 S 
BRANCH  19  20
ATOM     20  C   UNL     1      -1.902  13.231  23.196  0.00  0.00    +0.000 A 
ATOM     21  C   UNL     1      -2.769  12.147  23.366  0.00  0.00    +0.000 A 
ATOM     22  C   UNL     1      -3.914  12.276  24.154  0.00  0.00    +0.000 A 
ATOM     23  C   UNL     1      -4.187  13.486  24.788  0.00  0.00    +0.000 A 
ATOM     24  C   UNL     1      -3.317  14.565  24.634  0.00  0.00    +0.000 A 
ATOM     25  C   UNL     1      -2.177  14.439  23.840  0.00  0.00    +0.000 A 
ENDBRANCH  19  20
ENDBRANCH  16  19
ENDBRANCH   6  13
BRANCH   1  28
ATOM     26  C4* UNL     1       4.744   4.184  19.319  0.00  0.00    +0.000 C 
ATOM     27  O4* UNL     1       4.436   5.566  19.618  0.00  0.00    +0.000 OA
ATOM     28  C1* UNL     1       3.002   5.709  19.708  0.00  0.00    +0.000 C 
ATOM     29  C2* UNL     1       2.372   4.456  19.100  0.00  0.00    +0.000 C 
ATOM     30  C3* UNL     1       3.429   3.405  19.396  0.00  0.00    +0.000 C 
BRANCH  29  31
ATOM     31  O2* UNL     1       1.122   4.138  19.716  0.00  0.00    +0.000 OA
ATOM     32  H2* UNL     1       0.596   4.966  19.692  0.00  0.00    +0.000 HD
ENDBRANCH  29  31
BRANCH  30  33
ATOM     33  O3* UNL     1       3.168   2.918  20.734  0.00  0.00    +0.000 OA
ATOM     34  H3* UNL     1       2.816   2.013  20.676  0.00  0.00    +0.000 HD
ENDBRANCH  30  33
BRANCH  26  35
ATOM     35  C5* UNL     1       5.452   4.080  17.964  0.00  0.00    +0.000 C 
BRANCH  35  36
ATOM     36  O5* UNL     1       6.862   4.127  18.143  0.00  0.00    +0.000 OA
ATOM     37  H5* UNL     1       7.025   4.372  19.073  0.00  0.00    +0.000 HD
ENDBRANCH  35  36
ENDBRANCH  26  35
ENDBRANCH   1  28
TORSDOF 8
ENDMDL
MODEL 4
REMARK VINA RESULT:      -7.2      4.769     10.709
REMARK  Name = 
REMARK  8 active torsions:
REMARK  status: ('A' for Active; 'I' for Inactive)
REMARK    1  A    between atoms: O5*_1  and  C5*_2
REMARK    2  A    between atoms: C5*_2  and  C4*_3
REMARK    3  A    between atoms: C1*_5  and  N_6
REMARK    4  A    between atoms: N_11  and  N_12
REMARK    5  A    between atoms: C_15  and  S_16
REMARK    6  A    between atoms: S_16  and  C_17
REMARK    7  A    between atoms: C2*_30  and  O2*_31
REMARK    8  A    between atoms: C3*_32  and  O3*_33
REMARK                            x       y       z     vdW  Elec       q    Type
REMARK                         _______ _______ _______ _____ _____    ______ ____
ROOT
ATOM      1  N   UNL     1       2.660   6.728  19.195  0.00  0.00    +0.000 N 
ATOM      2  C   UNL     1       3.063   7.199  17.972  0.00  0.00    +0.000 A 
ATOM      3  N   UNL     1       2.575   8.402  17.722  0.00  0.00    +0.000 NA
ATOM      4  C   UNL     1       1.837   8.727  18.846  0.00  0.00    +0.000 A 
ATOM      5  C   UNL     1       1.075   9.858  19.195  0.00  0.00    +0.000 A 
ATOM      6  N   UNL     1       0.877  10.922  18.292  0.00  0.00    +0.000 N 
ATOM      7  N   UNL     1       0.473   9.848  20.418  0.00  0.00    +0.000 NA
ATOM      8  C   UNL     1       0.596   8.767  21.198  0.00  0.00    +0.000 A 
ATOM      9 CL   UNL     1      -0.280   8.802  22.666  0.00  0.00    +0.000 Cl
ATOM     10  N   UNL     1       1.272   7.636  20.957  0.00  0.00    +0.000 NA
ATOM     11  C   UNL     1       1.875   7.687  19.763  0.00  0.00    +0.000 A 
ATOM     12  H   UNL     1       1.532  10.907  17.509  0.00  0.00    +0.000 HD
ENDROOT
BRANCH   6  13
ATOM     13  N   UNL     1       0.222  12.132  18.671  0.00  0.00    +0.000 NA
ATOM     14  C   UNL     1      -1.221  11.849  18.823  0.00  0.00    +0.000 C 
ATOM     15  C   UNL     1      -1.987  13.031  19.424  0.00  0.00    +0.000 C 
ATOM     16  C   UNL     1      -1.417  13.464  20.778  0.00  0.00    +0.000 C 
ATOM     17  C   UNL     1       0.063  13.779  20.571  0.00  0.00    +0.000 C 
ATOM     18  C   UNL     1       0.818  12.609  19.940  0.00  0.00    +0.000 C 
BRANCH  16  19
ATOM     19  S   UNL     1      -1.561  12.197  22.120  0.00  0.00    +0.000 S 
BRANCH  19  20
ATOM     20  C   UNL     1      -3.223  12.448  22.697  0.00  0.00    +0.000 A 
ATOM     21  C   UNL     1      -3.486  12.337  24.067  0.00  0.00    +0.000 A 
ATOM     22  C   UNL     1      -4.771  12.567  24.560  0.00  0.00    +0.000 A 
ATOM     23  C   UNL     1      -5.795  12.928  23.687  0.00  0.00    +0.000 A 
ATOM     24  C   UNL     1      -5.534  13.056  22.322  0.00  0.00    +0.000 A 
ATOM     25  C   UNL     1      -4.252  12.817  21.828  0.00  0.00    +0.000 A 
ENDBRANCH  19  20
ENDBRANCH  16  19
ENDBRANCH   6  13
BRANCH   1  28
ATOM     26  C4* UNL     1       4.089   3.529  18.974  0.00  0.00    +0.000 C 
ATOM     27  O4* UNL     1       4.234   4.960  19.138  0.00  0.00    +0.000 OA
ATOM     28  C1* UNL     1       3.054   5.469  19.797  0.00  0.00    +0.000 C 
ATOM     29  C2* UNL     1       1.980   4.384  19.730  0.00  0.00    +0.000 C 
ATOM     30  C3* UNL     1       2.821   3.118  19.727  0.00  0.00    +0.000 C 
BRANCH  29  31
ATOM     31  O2* UNL     1       1.104   4.433  20.858  0.00  0.00    +0.000 OA
ATOM     32  H2* UNL     1       0.237   4.732  20.507  0.00  0.00    +0.000 HD
ENDBRANCH  29  31
BRANCH  30  33
ATOM     33  O3* UNL     1       3.097   2.798  21.111  0.00  0.00    +0.000 OA
ATOM     34  H3* UNL     1       3.782   3.403  21.445  0.00  0.00    +0.000 HD
ENDBRANCH  30  33
BRANCH  26  35
ATOM     35  C5* UNL     1       4.076   3.164  17.486  0.00  0.00    +0.000 C 
BRANCH  35  36
ATOM     36  O5* UNL     1       3.060   2.203  17.227  0.00  0.00    +0.000 OA
ATOM     37  H5* UNL     1       2.658   1.971  18.085  0.00  0.00    +0.000 HD
ENDBRANCH  35  36
ENDBRANCH  26  35
ENDBRANCH   1  28
TORSDOF 8
ENDMDL
MODEL 5
REMARK VINA RESULT:      -7.2      4.979     10.903
REMARK  Name = 
REMARK  8 active torsions:
REMARK  status: ('A' for Active; 'I' for Inactive)
REMARK    1  A    between atoms: O5*_1  and  C5*_2
REMARK    2  A    between atoms: C5*_2  and  C4*_3
REMARK    3  A    between atoms: C1*_5  and  N_6
REMARK    4  A    between atoms: N_11  and  N_12
REMARK    5  A    between atoms: C_15  and  S_16
REMARK    6  A    between atoms: S_16  and  C_17
REMARK    7  A    between atoms: C2*_30  and  O2*_31
REMARK    8  A    between atoms: C3*_32  and  O3*_33
REMARK                            x       y       z     vdW  Elec       q    Type
REMARK                         _______ _______ _______ _____ _____    ______ ____
ROOT
ATOM      1  N   UNL     1       2.442   7.191  18.706  0.00  0.00    +0.000 N 
ATOM      2  C   UNL     1       2.736   7.810  17.519  0.00  0.00    +0.000 A 
ATOM      3  N   UNL     1       2.303   9.060  17.494  0.00  0.00    +0.000 NA
ATOM      4  C   UNL     1       1.719   9.258  18.732  0.00  0.00    +0.000 A 
ATOM      5  C   UNL     1       1.077  10.364  19.320  0.00  0.00    +0.000 A 
ATOM      6  N   UNL     1       0.850  11.554  18.600  0.00  0.00    +0.000 N 
ATOM      7  N   UNL     1       0.616  10.210  20.594  0.00  0.00    +0.000 NA
ATOM      8  C   UNL     1       0.754   9.024  21.200  0.00  0.00    +0.000 A 
ATOM      9 CL   UNL     1       0.052   8.893  22.753  0.00  0.00    +0.000 Cl
ATOM     10  N   UNL     1       1.323   7.907  20.728  0.00  0.00    +0.000 NA
ATOM     11  C   UNL     1       1.790   8.097  19.489  0.00  0.00    +0.000 A 
ATOM     12  H   UNL     1       1.411  11.618  17.750  0.00  0.00    +0.000 HD
ENDROOT
BRANCH   6  13
ATOM     13  N   UNL     1       0.323  12.729  19.216  0.00  0.00    +0.000 NA
ATOM     14  C   UNL     1      -1.150  12.610  19.253  0.00  0.00    +0.000 C 
ATOM     15  C   UNL     1      -1.805  13.724  20.076  0.00  0.00    +0.000 C 
ATOM     16  C   UNL     1      -1.270  13.779  21.509  0.00  0.00    +0.000 C 
ATOM     17  C   UNL     1       0.247  13.935  21.427  0.00  0.00    +0.000 C 
ATOM     18  C   UNL     1       0.893  12.840  20.577  0.00  0.00    +0.000 C 
BRANCH  16  19
ATOM     19  S   UNL     1      -1.646  12.282  22.533  0.00  0.00    +0.000 S 
BRANCH  19  20
ATOM     20  C   UNL     1      -3.345  12.550  22.980  0.00  0.00    +0.000 A 
ATOM     21  C   UNL     1      -4.279  12.792  21.968  0.00  0.00    +0.000 A 
ATOM     22  C   UNL     1      -5.628  12.966  22.280  0.00  0.00    +0.000 A 
ATOM     23  C   UNL     1      -6.051  12.880  23.605  0.00  0.00    +0.000 A 
ATOM     24  C   UNL     1      -5.125  12.623  24.616  0.00  0.00    +0.000 A 
ATOM     25  C   UNL     1      -3.775  12.458  24.306  0.00  0.00    +0.000 A 
ENDBRANCH  19  20
ENDBRANCH  16  19
ENDBRANCH   6  13
BRANCH   1  28
ATOM     26  C4* UNL     1       4.850   4.668  19.108  0.00  0.00    +0.000 C 
ATOM     27  O4* UNL     1       4.159   5.836  19.613  0.00  0.00    +0.000 OA
ATOM     28  C1* UNL     1       2.816   5.841  19.080  0.00  0.00    +0.000 C 
ATOM     29  C2* UNL     1       2.771   4.839  17.927  0.00  0.00    +0.000 C 
ATOM     30  C3* UNL     1       3.816   3.824  18.359  0.00  0.00    +0.000 C 
BRANCH  29  31
ATOM     31  O2* UNL     1       1.479   4.243  17.792  0.00  0.00    +0.000 OA
ATOM     32  H2* UNL     1       1.636   3.274  17.761  0.00  0.00    +0.000 HD
ENDBRANCH  29  31
BRANCH  30  33
ATOM     33  O3* UNL     1       3.148   2.886  19.235  0.00  0.00    +0.000 OA
ATOM     34  H3* UNL     1       2.643   2.254  18.694  0.00  0.00    +0.000 HD
ENDBRANCH  30  33
BRANCH  26  35
ATOM     35  C5* UNL     1       6.049   5.090  18.252  0.00  0.00    +0.000 C 
BRANCH  35  36
ATOM     36  O5* UNL     1       7.077   4.109  18.332  0.00  0.00    +0.000 OA
ATOM     37  H5* UNL     1       6.828   3.490  19.044  0.00  0.00    +0.000 HD
ENDBRANCH  35  36
ENDBRANCH  26  35
ENDBRANCH   1  28
TORSDOF 8
ENDMDL
MODEL 6
REMARK VINA RESULT:      -7.2      0.656      1.077
REMARK  Name = 
REMARK  8 active torsions:
REMARK  status: ('A' for Active; 'I' for Inactive)
REMARK    1  A    between atoms: O5*_1  and  C5*_2
REMARK    2  A    between atoms: C5*_2  and  C4*_3
REMARK    3  A    between atoms: C1*_5  and  N_6
REMARK    4  A    between atoms: N_11  and  N_12
REMARK    5  A    between atoms: C_15  and  S_16
REMARK    6  A    between atoms: S_16  and  C_17
REMARK    7  A    between atoms: C2*_30  and  O2*_31
REMARK    8  A    between atoms: C3*_32  and  O3*_33
REMARK                            x       y       z     vdW  Elec       q    Type
REMARK                         _______ _______ _______ _____ _____    ______ ____
ROOT
ATOM      1  N   UNL     1       1.125   9.592  19.097  0.00  0.00    +0.000 N 
ATOM      2  C   UNL     1       1.742  10.158  18.012  0.00  0.00    +0.000 A 
ATOM      3  N   UNL     1       2.690   9.378  17.522  0.00  0.00    +0.000 NA
ATOM      4  C   UNL     1       2.668   8.248  18.319  0.00  0.00    +0.000 A 
ATOM      5  C   UNL     1       3.427   7.062  18.318  0.00  0.00    +0.000 A 
ATOM      6  N   UNL     1       4.505   6.876  17.429  0.00  0.00    +0.000 N 
ATOM      7  N   UNL     1       3.123   6.130  19.266  0.00  0.00    +0.000 NA
ATOM      8  C   UNL     1       2.167   6.396  20.162  0.00  0.00    +0.000 A 
ATOM      9 CL   UNL     1       1.929   5.215  21.376  0.00  0.00    +0.000 Cl
ATOM     10  N   UNL     1       1.404   7.493  20.269  0.00  0.00    +0.000 NA
ATOM     11  C   UNL     1       1.705   8.377  19.310  0.00  0.00    +0.000 A 
ATOM     12  H   UNL     1       4.499   7.539  16.653  0.00  0.00    +0.000 HD
ENDROOT
BRANCH   6  13
ATOM     13  N   UNL     1       5.199   5.634  17.322  0.00  0.00    +0.000 NA
ATOM     14  C   UNL     1       4.533   4.819  16.284  0.00  0.00    +0.000 C 
ATOM     15  C   UNL     1       5.319   3.549  15.945  0.00  0.00    +0.000 C 
ATOM     16  C   UNL     1       6.752   3.854  15.500  0.00  0.00    +0.000 C 
ATOM     17  C   UNL     1       7.414   4.665  16.611  0.00  0.00    +0.000 C 
ATOM     18  C   UNL     1       6.609   5.915  16.969  0.00  0.00    +0.000 C 
BRANCH  16  19
ATOM     19  S   UNL     1       6.885   4.812  13.922  0.00  0.00    +0.000 S 
BRANCH  19  20
ATOM     20  C   UNL     1       6.156   3.699  12.743  0.00  0.00    +0.000 A 
ATOM     21  C   UNL     1       4.818   3.883  12.380  0.00  0.00    +0.000 A 
ATOM     22  C   UNL     1       4.225   3.052  11.427  0.00  0.00    +0.000 A 
ATOM     23  C   UNL     1       4.974   2.047  10.821  0.00  0.00    +0.000 A 
ATOM     24  C   UNL     1       6.314   1.870  11.168  0.00  0.00    +0.000 A 
ATOM     25  C   UNL     1       6.904   2.694  12.127  0.00  0.00    +0.000 A 
ENDBRANCH  19  20
ENDBRANCH  16  19
ENDBRANCH   6  13
BRANCH   1  28
ATOM     26  C4* UNL     1      -2.015  11.159  19.212  0.00  0.00    +0.000 C 
ATOM     27  O4* UNL     1      -1.215   9.957  19.106  0.00  0.00    +0.000 OA
ATOM     28  C1* UNL     1       0.014  10.157  19.839  0.00  0.00    +0.000 C 
ATOM     29  C2* UNL     1       0.148  11.653  20.120  0.00  0.00    +0.000 C 
ATOM     30  C3* UNL     1      -1.307  12.083  20.206  0.00  0.00    +0.000 C 
BRANCH  29  31
ATOM     31  O2* UNL     1       0.847  11.903  21.342  0.00  0.00    +0.000 OA
ATOM     32  H2* UNL     1       0.368  12.643  21.774  0.00  0.00    +0.000 HD
ENDBRANCH  29  31
BRANCH  30  33
ATOM     33  O3* UNL     1      -1.733  11.839  21.567  0.00  0.00    +0.000 OA
ATOM     34  H3* UNL     1      -1.186  11.129  21.946  0.00  0.00    +0.000 HD
ENDBRANCH  30  33
BRANCH  26  35
ATOM     35  C5* UNL     1      -2.227  11.779  17.827  0.00  0.00    +0.000 C 
BRANCH  35  36
ATOM     36  O5* UNL     1      -1.587  10.987  16.833  0.00  0.00    +0.000 OA
ATOM     37  H5* UNL     1      -1.213  11.601  16.174  0.00  0.00    +0.000 HD
ENDBRANCH  35  36
ENDBRANCH  26  35
ENDBRANCH   1  28
TORSDOF 8
ENDMDL
MODEL 7
REMARK VINA RESULT:      -7.2      4.971     10.039
REMARK  Name = 
REMARK  8 active torsions:
REMARK  status: ('A' for Active; 'I' for Inactive)
REMARK    1  A    between atoms: O5*_1  and  C5*_2
REMARK    2  A    between atoms: C5*_2  and  C4*_3
REMARK    3  A    between atoms: C1*_5  and  N_6
REMARK    4  A    between atoms: N_11  and  N_12
REMARK    5  A    between atoms: C_15  and  S_16
REMARK    6  A    between atoms: S_16  and  C_17
REMARK    7  A    between atoms: C2*_30  and  O2*_31
REMARK    8  A    between atoms: C3*_32  and  O3*_33
REMARK                            x       y       z     vdW  Elec       q    Type
REMARK                         _______ _______ _______ _____ _____    ______ ____
ROOT
ATOM      1  N   UNL     1       2.238   7.183  18.734  0.00  0.00    +0.000 N 
ATOM      2  C   UNL     1       2.555   7.791  17.547  0.00  0.00    +0.000 A 
ATOM      3  N   UNL     1       2.239   9.076  17.552  0.00  0.00    +0.000 NA
ATOM      4  C   UNL     1       1.711   9.307  18.810  0.00  0.00    +0.000 A 
ATOM      5  C   UNL     1       1.191  10.458  19.432  0.00  0.00    +0.000 A 
ATOM      6  N   UNL     1       1.056  11.676  18.735  0.00  0.00    +0.000 N 
ATOM      7  N   UNL     1       0.754  10.326  20.716  0.00  0.00    +0.000 NA
ATOM      8  C   UNL     1       0.797   9.123  21.301  0.00  0.00    +0.000 A 
ATOM      9 CL   UNL     1       0.129   9.032  22.873  0.00  0.00    +0.000 Cl
ATOM     10  N   UNL     1       1.246   7.966  20.798  0.00  0.00    +0.000 NA
ATOM     11  C   UNL     1       1.695   8.132  19.548  0.00  0.00    +0.000 A 
ATOM     12  H   UNL     1       1.596  11.701  17.870  0.00  0.00    +0.000 HD
ENDROOT
BRANCH   6  13
ATOM     13  N   UNL     1       0.657  12.884  19.382  0.00  0.00    +0.000 NA
ATOM     14  C   UNL     1       1.834  13.447  20.077  0.00  0.00    +0.000 C 
ATOM     15  C   UNL     1       1.568  14.848  20.635  0.00  0.00    +0.000 C 
ATOM     16  C   UNL     1       1.111  15.828  19.551  0.00  0.00    +0.000 C 
ATOM     17  C   UNL     1      -0.124  15.227  18.882  0.00  0.00    +0.000 C 
ATOM     18  C   UNL     1       0.137  13.814  18.355  0.00  0.00    +0.000 C 
BRANCH  16  19
ATOM     19  S   UNL     1       2.371  16.175  18.240  0.00  0.00    +0.000 S 
BRANCH  19  20
ATOM     20  C   UNL     1       3.879  16.251  19.179  0.00  0.00    +0.000 A 
ATOM     21  C   UNL     1       4.886  15.317  18.913  0.00  0.00    +0.000 A 
ATOM     22  C   UNL     1       6.098  15.372  19.603  0.00  0.00    +0.000 A 
ATOM     23  C   UNL     1       6.315  16.373  20.548  0.00  0.00    +0.000 A 
ATOM     24  C   UNL     1       5.319  17.316  20.804  0.00  0.00    +0.000 A 
ATOM     25  C   UNL     1       4.104  17.256  20.122  0.00  0.00    +0.000 A 
ENDBRANCH  19  20
ENDBRANCH  16  19
ENDBRANCH   6  13
BRANCH   1  28
ATOM     26  C4* UNL     1       4.452   4.531  19.361  0.00  0.00    +0.000 C 
ATOM     27  O4* UNL     1       3.731   5.700  19.819  0.00  0.00    +0.000 OA
ATOM     28  C1* UNL     1       2.495   5.798  19.078  0.00  0.00    +0.000 C 
ATOM     29  C2* UNL     1       2.602   4.865  17.873  0.00  0.00    +0.000 C 
ATOM     30  C3* UNL     1       3.523   3.780  18.403  0.00  0.00    +0.000 C 
BRANCH  29  31
ATOM     31  O2* UNL     1       1.327   4.338  17.495  0.00  0.00    +0.000 OA
ATOM     32  H2* UNL     1       0.716   4.572  18.227  0.00  0.00    +0.000 HD
ENDBRANCH  29  31
BRANCH  30  33
ATOM     33  O3* UNL     1       2.687   2.826  19.100  0.00  0.00    +0.000 OA
ATOM     34  H3* UNL     1       2.775   2.971  20.058  0.00  0.00    +0.000 HD
ENDBRANCH  30  33
BRANCH  26  35
ATOM     35  C5* UNL     1       5.789   4.943  18.738  0.00  0.00    +0.000 C 
BRANCH  35  36
ATOM     36  O5* UNL     1       6.709   5.318  19.757  0.00  0.00    +0.000 OA
ATOM     37  H5* UNL     1       6.742   4.584  20.398  0.00  0.00    +0.000 HD
ENDBRANCH  35  36
ENDBRANCH  26  35
ENDBRANCH   1  28
TORSDOF 8
ENDMDL
MODEL 8
REMARK VINA RESULT:      -7.0      5.028     10.814
REMARK  Name = 
REMARK  8 active torsions:
REMARK  status: ('A' for Active; 'I' for Inactive)
REMARK    1  A    between atoms: O5*_1  and  C5*_2
REMARK    2  A    between atoms: C5*_2  and  C4*_3
REMARK    3  A    between atoms: C1*_5  and  N_6
REMARK    4  A    between atoms: N_11  and  N_12
REMARK    5  A    between atoms: C_15  and  S_16
REMARK    6  A    between atoms: S_16  and  C_17
REMARK    7  A    between atoms: C2*_30  and  O2*_31
REMARK    8  A    between atoms: C3*_32  and  O3*_33
REMARK                            x       y       z     vdW  Elec       q    Type
REMARK                         _______ _______ _______ _____ _____    ______ ____
ROOT
ATOM      1  N   UNL     1       2.430   7.018  18.640  0.00  0.00    +0.000 N 
ATOM      2  C   UNL     1       2.844   7.585  17.463  0.00  0.00    +0.000 A 
ATOM      3  N   UNL     1       2.542   8.872  17.402  0.00  0.00    +0.000 NA
ATOM      4  C   UNL     1       1.920   9.148  18.607  0.00  0.00    +0.000 A 
ATOM      5  C   UNL     1       1.366  10.322  19.149  0.00  0.00    +0.000 A 
ATOM      6  N   UNL     1       1.296  11.517  18.405  0.00  0.00    +0.000 N 
ATOM      7  N   UNL     1       0.829  10.236  20.399  0.00  0.00    +0.000 NA
ATOM      8  C   UNL     1       0.816   9.053  21.025  0.00  0.00    +0.000 A 
ATOM      9 CL   UNL     1       0.028   9.019  22.542  0.00  0.00    +0.000 Cl
ATOM     10  N   UNL     1       1.291   7.876  20.595  0.00  0.00    +0.000 NA
ATOM     11  C   UNL     1       1.836   7.998  19.379  0.00  0.00    +0.000 A 
ATOM     12  H   UNL     1       1.902  11.511  17.583  0.00  0.00    +0.000 HD
ENDROOT
BRANCH   6  13
ATOM     13  N   UNL     1       0.861  12.749  18.980  0.00  0.00    +0.000 NA
ATOM     14  C   UNL     1      -0.615  12.730  19.051  0.00  0.00    +0.000 C 
ATOM     15  C   UNL     1      -1.177  13.918  19.838  0.00  0.00    +0.000 C 
ATOM     16  C   UNL     1      -0.607  13.997  21.257  0.00  0.00    +0.000 C 
ATOM     17  C   UNL     1       0.914  14.049  21.138  0.00  0.00    +0.000 C 
ATOM     18  C   UNL     1       1.468  12.878  20.324  0.00  0.00    +0.000 C 
BRANCH  16  19
ATOM     19  S   UNL     1      -1.057  12.573  22.351  0.00  0.00    +0.000 S 
BRANCH  19  20
ATOM     20  C   UNL     1      -2.696  13.009  22.882  0.00  0.00    +0.000 A 
ATOM     21  C   UNL     1      -3.301  12.255  23.893  0.00  0.00    +0.000 A 
ATOM     22  C   UNL     1      -4.571  12.594  24.362  0.00  0.00    +0.000 A 
ATOM     23  C   UNL     1      -5.232  13.701  23.836  0.00  0.00    +0.000 A 
ATOM     24  C   UNL     1      -4.626  14.466  22.839  0.00  0.00    +0.000 A 
ATOM     25  C   UNL     1      -3.361  14.122  22.363  0.00  0.00    +0.000 A 
ENDBRANCH  19  20
ENDBRANCH  16  19
ENDBRANCH   6  13
BRANCH   1  28
ATOM     26  C4* UNL     1       4.566   4.339  19.407  0.00  0.00    +0.000 C 
ATOM     27  O4* UNL     1       3.873   5.546  19.805  0.00  0.00    +0.000 OA
ATOM     28  C1* UNL     1       2.647   5.644  19.048  0.00  0.00    +0.000 C 
ATOM     29  C2* UNL     1       2.739   4.656  17.886  0.00  0.00    +0.000 C 
ATOM     30  C3* UNL     1       3.626   3.571  18.474  0.00  0.00    +0.000 C 
BRANCH  29  31
ATOM     31  O2* UNL     1       1.455   4.147  17.519  0.00  0.00    +0.000 OA
ATOM     32  H2* UNL     1       1.629   3.426  16.875  0.00  0.00    +0.000 HD
ENDBRANCH  29  31
BRANCH  30  33
ATOM     33  O3* UNL     1       2.758   2.672  19.203  0.00  0.00    +0.000 OA
ATOM     34  H3* UNL     1       3.301   1.990  19.634  0.00  0.00    +0.000 HD
ENDBRANCH  30  33
BRANCH  26  35
ATOM     35  C5* UNL     1       5.920   4.687  18.780  0.00  0.00    +0.000 C 
BRANCH  35  36
ATOM     36  O5* UNL     1       6.768   5.289  19.751  0.00  0.00    +0.000 OA
ATOM     37  H5* UNL     1       7.439   5.804  19.265  0.00  0.00    +0.000 HD
ENDBRANCH  35  36
ENDBRANCH  26  35
ENDBRANCH   1  28
TORSDOF 8
ENDMDL
MODEL 9
REMARK VINA RESULT:      -7.0      4.935     10.788
REMARK  Name = 
REMARK  8 active torsions:
REMARK  status: ('A' for Active; 'I' for Inactive)
REMARK    1  A    between atoms: O5*_1  and  C5*_2
REMARK    2  A    between atoms: C5*_2  and  C4*_3
REMARK    3  A    between atoms: C1*_5  and  N_6
REMARK    4  A    between atoms: N_11  and  N_12
REMARK    5  A    between atoms: C_15  and  S_16
REMARK    6  A    between atoms: S_16  and  C_17
REMARK    7  A    between atoms: C2*_30  and  O2*_31
REMARK    8  A    between atoms: C3*_32  and  O3*_33
REMARK                            x       y       z     vdW  Elec       q    Type
REMARK                         _______ _______ _______ _____ _____    ______ ____
ROOT
ATOM      1  N   UNL     1       2.961   6.787  18.645  0.00  0.00    +0.000 N 
ATOM      2  C   UNL     1       3.383   7.298  17.445  0.00  0.00    +0.000 A 
ATOM      3  N   UNL     1       2.947   8.532  17.254  0.00  0.00    +0.000 NA
ATOM      4  C   UNL     1       2.226   8.835  18.396  0.00  0.00    +0.000 A 
ATOM      5  C   UNL     1       1.516   9.980  18.802  0.00  0.00    +0.000 A 
ATOM      6  N   UNL     1       1.364  11.094  17.952  0.00  0.00    +0.000 N 
ATOM      7  N   UNL     1       0.916   9.937  20.025  0.00  0.00    +0.000 NA
ATOM      8  C   UNL     1       0.992   8.816  20.752  0.00  0.00    +0.000 A 
ATOM      9 CL   UNL     1       0.120   8.817  22.223  0.00  0.00    +0.000 Cl
ATOM     10  N   UNL     1       1.617   7.669  20.454  0.00  0.00    +0.000 NA
ATOM     11  C   UNL     1       2.220   7.751  19.261  0.00  0.00    +0.000 A 
ATOM     12  H   UNL     1       2.016  11.088  17.167  0.00  0.00    +0.000 HD
ENDROOT
BRANCH   6  13
ATOM     13  N   UNL     1       0.763  12.312  18.392  0.00  0.00    +0.000 NA
ATOM     14  C   UNL     1      -0.635  12.025  18.777  0.00  0.00    +0.000 C 
ATOM     15  C   UNL     1      -1.310  13.221  19.455  0.00  0.00    +0.000 C 
ATOM     16  C   UNL     1      -0.539  13.702  20.687  0.00  0.00    +0.000 C 
ATOM     17  C   UNL     1       0.886  14.019  20.240  0.00  0.00    +0.000 C 
ATOM     18  C   UNL     1       1.545  12.833  19.535  0.00  0.00    +0.000 C 
BRANCH  16  19
ATOM     19  S   UNL     1      -0.456  12.479  22.074  0.00  0.00    +0.000 S 
BRANCH  19  20
ATOM     20  C   UNL     1      -1.688  13.098  23.196  0.00  0.00    +0.000 A 
ATOM     21  C   UNL     1      -1.412  14.259  23.927  0.00  0.00    +0.000 A 
ATOM     22  C   UNL     1      -2.372  14.796  24.786  0.00  0.00    +0.000 A 
ATOM     23  C   UNL     1      -3.618  14.184  24.904  0.00  0.00    +0.000 A 
ATOM     24  C   UNL     1      -3.903  13.036  24.165  0.00  0.00    +0.000 A 
ATOM     25  C   UNL     1      -2.941  12.494  23.313  0.00  0.00    +0.000 A 
ENDBRANCH  19  20
ENDBRANCH  16  19
ENDBRANCH   6  13
BRANCH   1  28
ATOM     26  C4* UNL     1       5.252   4.179  19.175  0.00  0.00    +0.000 C 
ATOM     27  O4* UNL     1       4.694   5.458  19.561  0.00  0.00    +0.000 OA
ATOM     28  C1* UNL     1       3.300   5.484  19.184  0.00  0.00    +0.000 C 
ATOM     29  C2* UNL     1       3.060   4.327  18.215  0.00  0.00    +0.000 C 
ATOM     30  C3* UNL     1       4.090   3.313  18.685  0.00  0.00    +0.000 C 
BRANCH  29  31
ATOM     31  O2* UNL     1       1.729   3.815  18.318  0.00  0.00    +0.000 OA
ATOM     32  H2* UNL     1       1.827   2.860  18.520  0.00  0.00    +0.000 HD
ENDBRANCH  29  31
BRANCH  30  33
ATOM     33  O3* UNL     1       3.479   2.569  19.766  0.00  0.00    +0.000 OA
ATOM     34  H3* UNL     1       3.218   1.692  19.437  0.00  0.00    +0.000 HD
ENDBRANCH  30  33
BRANCH  26  35
ATOM     35  C5* UNL     1       6.362   4.377  18.138  0.00  0.00    +0.000 C 
BRANCH  35  36
ATOM     36  O5* UNL     1       7.532   4.891  18.765  0.00  0.00    +0.000 OA
ATOM     37  H5* UNL     1       7.458   5.863  18.757  0.00  0.00    +0.000 HD
ENDBRANCH  35  36
ENDBRANCH  26  35
ENDBRANCH   1  28
TORSDOF 8
ENDMDL
