MODEL 1
REMARK VINA RESULT:      -6.3      0.000      0.000
REMARK  Name = 
REMARK  6 active torsions:
REMARK  status: ('A' for Active; 'I' for Inactive)
REMARK    1  A    between atoms: C_1  and  O_2
REMARK    2  A    between atoms: O_2  and  C_3
REMARK    3  A    between atoms: C_3  and  C_4
REMARK    4  A    between atoms: C_4  and  S_5
REMARK    5  A    between atoms: S_5  and  C_6
REMARK    6  A    between atoms: C_11  and  C_13
REMARK                            x       y       z     vdW  Elec       q    Type
REMARK                         _______ _______ _______ _____ _____    ______ ____
ROOT
ATOM      1  C   UNL     1       6.833   4.589  15.680  0.00  0.00    +0.000 A 
ATOM      2  N   UNL     1       7.693   4.537  16.672  0.00  0.00    +0.000 NA
ATOM      3  N   UNL     1       7.054   4.432  17.900  0.00  0.00    +0.000 NA
ATOM      4  C   UNL     1       5.744   4.430  17.777  0.00  0.00    +0.000 A 
ATOM      5  N   UNL     1       4.894   4.327  18.850  0.00  0.00    +0.000 N 
ATOM      6  C   UNL     1       3.525   4.471  18.837  0.00  0.00    +0.000 C 
ATOM      7  O   UNL     1       2.819   4.747  17.875  0.00  0.00    +0.000 OA
ATOM      8  S   UNL     1       5.194   4.511  16.167  0.00  0.00    +0.000 S 
ATOM      9  H   UNL     1       5.342   4.239  19.759  0.00  0.00    +0.000 HD
ENDROOT
BRANCH   6  10
ATOM     10  C   UNL     1       2.908   4.166  20.212  0.00  0.00    +0.000 C 
ATOM     11  C   UNL     1       3.302   2.796  20.737  0.00  0.00    +0.000 C 
ATOM     12  C   UNL     1       2.190   2.502  21.709  0.00  0.00    +0.000 C 
ATOM     13  C   UNL     1       0.990   3.118  21.023  0.00  0.00    +0.000 C 
ATOM     14  O   UNL     1       1.471   4.201  20.210  0.00  0.00    +0.000 OA
ENDBRANCH   6  10
BRANCH   1  15
ATOM     15  S   UNL     1       7.295   4.747  14.002  0.00  0.00    +0.000 S 
BRANCH  15  16
ATOM     16  C   UNL     1       5.896   3.955  13.158  0.00  0.00    +0.000 C 
BRANCH  16  17
ATOM     17  C   UNL     1       6.421   2.992  12.096  0.00  0.00    +0.000 C 
BRANCH  17  19
ATOM     18  C   UNL     1       4.200   3.160  11.316  0.00  0.00    +0.000 C 
ATOM     19  O   UNL     1       5.318   2.299  11.502  0.00  0.00    +0.000 OA
ENDBRANCH  17  19
ENDBRANCH  16  17
ENDBRANCH  15  16
ENDBRANCH   1  15
TORSDOF 5
ENDMDL
MODEL 2
REMARK VINA RESULT:      -5.8      1.102      1.307
REMARK  Name = 
REMARK  6 active torsions:
REMARK  status: ('A' for Active; 'I' for Inactive)
REMARK    1  A    between atoms: C_1  and  O_2
REMARK    2  A    between atoms: O_2  and  C_3
REMARK    3  A    between atoms: C_3  and  C_4
REMARK    4  A    between atoms: C_4  and  S_5
REMARK    5  A    between atoms: S_5  and  C_6
REMARK    6  A    between atoms: C_11  and  C_13
REMARK                            x       y       z     vdW  Elec       q    Type
REMARK                         _______ _______ _______ _____ _____    ______ ____
ROOT
ATOM      1  C   UNL     1       6.798   4.571  15.561  0.00  0.00    +0.000 A 
ATOM      2  N   UNL     1       7.475   5.006  16.601  0.00  0.00    +0.000 NA
ATOM      3  N   UNL     1       6.829   4.711  17.794  0.00  0.00    +0.000 NA
ATOM      4  C   UNL     1       5.688   4.086  17.597  0.00  0.00    +0.000 A 
ATOM      5  N   UNL     1       4.872   3.681  18.623  0.00  0.00    +0.000 N 
ATOM      6  C   UNL     1       3.600   3.165  18.515  0.00  0.00    +0.000 C 
ATOM      7  O   UNL     1       2.953   3.002  17.487  0.00  0.00    +0.000 OA
ATOM      8  S   UNL     1       5.337   3.773  15.959  0.00  0.00    +0.000 S 
ATOM      9  H   UNL     1       5.210   3.885  19.560  0.00  0.00    +0.000 HD
ENDROOT
BRANCH   6  10
ATOM     10  C   UNL     1       3.050   2.716  19.878  0.00  0.00    +0.000 C 
ATOM     11  C   UNL     1       1.543   2.524  19.864  0.00  0.00    +0.000 C 
ATOM     12  C   UNL     1       1.196   2.672  21.322  0.00  0.00    +0.000 C 
ATOM     13  C   UNL     1       2.168   3.738  21.779  0.00  0.00    +0.000 C 
ATOM     14  O   UNL     1       3.330   3.645  20.937  0.00  0.00    +0.000 OA
ENDBRANCH   6  10
BRANCH   1  15
ATOM     15  S   UNL     1       7.311   4.795  13.906  0.00  0.00    +0.000 S 
BRANCH  15  16
ATOM     16  C   UNL     1       5.982   3.962  12.992  0.00  0.00    +0.000 C 
BRANCH  16  17
ATOM     17  C   UNL     1       6.586   3.104  11.882  0.00  0.00    +0.000 C 
BRANCH  17  19
ATOM     18  C   UNL     1       6.348   0.904  11.065  0.00  0.00    +0.000 C 
ATOM     19  O   UNL     1       5.669   2.060  11.542  0.00  0.00    +0.000 OA
ENDBRANCH  17  19
ENDBRANCH  16  17
ENDBRANCH  15  16
ENDBRANCH   1  15
TORSDOF 5
ENDMDL
MODEL 3
REMARK VINA RESULT:      -5.7      1.618      1.698
REMARK  Name = 
REMARK  6 active torsions:
REMARK  status: ('A' for Active; 'I' for Inactive)
REMARK    1  A    between atoms: C_1  and  O_2
REMARK    2  A    between atoms: O_2  and  C_3
REMARK    3  A    between atoms: C_3  and  C_4
REMARK    4  A    between atoms: C_4  and  S_5
REMARK    5  A    between atoms: S_5  and  C_6
REMARK    6  A    between atoms: C_11  and  C_13
REMARK                            x       y       z     vdW  Elec       q    Type
REMARK                         _______ _______ _______ _____ _____    ______ ____
ROOT
ATOM      1  C   UNL     1       6.166   5.063  14.839  0.00  0.00    +0.000 A 
ATOM      2  N   UNL     1       5.713   6.242  15.201  0.00  0.00    +0.000 NA
ATOM      3  N   UNL     1       4.933   6.163  16.347  0.00  0.00    +0.000 NA
ATOM      4  C   UNL     1       4.819   4.927  16.783  0.00  0.00    +0.000 A 
ATOM      5  N   UNL     1       4.104   4.595  17.907  0.00  0.00    +0.000 N 
ATOM      6  C   UNL     1       3.800   3.327  18.350  0.00  0.00    +0.000 C 
ATOM      7  O   UNL     1       4.085   2.267  17.807  0.00  0.00    +0.000 OA
ATOM      8  S   UNL     1       5.681   3.780  15.864  0.00  0.00    +0.000 S 
ATOM      9  H   UNL     1       3.670   5.373  18.397  0.00  0.00    +0.000 HD
ENDROOT
BRANCH   6  10
ATOM     10  C   UNL     1       3.086   3.356  19.710  0.00  0.00    +0.000 C 
ATOM     11  C   UNL     1       1.817   2.520  19.720  0.00  0.00    +0.000 C 
ATOM     12  C   UNL     1       1.042   3.141  20.852  0.00  0.00    +0.000 C 
ATOM     13  C   UNL     1       1.397   4.606  20.720  0.00  0.00    +0.000 C 
ATOM     14  O   UNL     1       2.702   4.678  20.123  0.00  0.00    +0.000 OA
ENDBRANCH   6  10
BRANCH   1  15
ATOM     15  S   UNL     1       7.159   4.796  13.427  0.00  0.00    +0.000 S 
BRANCH  15  16
ATOM     16  C   UNL     1       6.317   3.390  12.644  0.00  0.00    +0.000 C 
BRANCH  16  17
ATOM     17  C   UNL     1       4.899   3.800  12.253  0.00  0.00    +0.000 C 
BRANCH  17  19
ATOM     18  C   UNL     1       3.400   3.443  10.467  0.00  0.00    +0.000 C 
ATOM     19  O   UNL     1       4.376   2.852  11.317  0.00  0.00    +0.000 OA
ENDBRANCH  17  19
ENDBRANCH  16  17
ENDBRANCH  15  16
ENDBRANCH   1  15
TORSDOF 5
ENDMDL
MODEL 4
REMARK VINA RESULT:      -5.5      5.371      8.285
REMARK  Name = 
REMARK  6 active torsions:
REMARK  status: ('A' for Active; 'I' for Inactive)
REMARK    1  A    between atoms: C_1  and  O_2
REMARK    2  A    between atoms: O_2  and  C_3
REMARK    3  A    between atoms: C_3  and  C_4
REMARK    4  A    between atoms: C_4  and  S_5
REMARK    5  A    between atoms: S_5  and  C_6
REMARK    6  A    between atoms: C_11  and  C_13
REMARK                            x       y       z     vdW  Elec       q    Type
REMARK                         _______ _______ _______ _____ _____    ______ ____
ROOT
ATOM      1  C   UNL     1       1.320  10.136  18.734  0.00  0.00    +0.000 A 
ATOM      2  N   UNL     1       1.972  10.005  17.600  0.00  0.00    +0.000 NA
ATOM      3  N   UNL     1       2.432   8.708  17.420  0.00  0.00    +0.000 NA
ATOM      4  C   UNL     1       2.122   7.928  18.434  0.00  0.00    +0.000 A 
ATOM      5  N   UNL     1       2.460   6.599  18.483  0.00  0.00    +0.000 N 
ATOM      6  C   UNL     1       2.319   5.749  19.557  0.00  0.00    +0.000 C 
ATOM      7  O   UNL     1       1.895   6.029  20.672  0.00  0.00    +0.000 OA
ATOM      8  S   UNL     1       1.217   8.698  19.655  0.00  0.00    +0.000 S 
ATOM      9  H   UNL     1       2.962   6.243  17.674  0.00  0.00    +0.000 HD
ENDROOT
BRANCH   6  10
ATOM     10  C   UNL     1       2.698   4.304  19.193  0.00  0.00    +0.000 C 
ATOM     11  C   UNL     1       2.728   4.070  17.692  0.00  0.00    +0.000 C 
ATOM     12  C   UNL     1       2.534   2.579  17.605  0.00  0.00    +0.000 C 
ATOM     13  C   UNL     1       1.575   2.311  18.744  0.00  0.00    +0.000 C 
ATOM     14  O   UNL     1       1.797   3.326  19.737  0.00  0.00    +0.000 OA
ENDBRANCH   6  10
BRANCH   1  15
ATOM     15  S   UNL     1       0.628  11.643  19.287  0.00  0.00    +0.000 S 
BRANCH  15  16
ATOM     16  C   UNL     1       0.828  11.502  21.086  0.00  0.00    +0.000 C 
BRANCH  16  17
ATOM     17  C   UNL     1      -0.540  11.587  21.759  0.00  0.00    +0.000 C 
BRANCH  17  19
ATOM     18  C   UNL     1      -0.255   9.696  23.140  0.00  0.00    +0.000 C 
ATOM     19  O   UNL     1      -0.434  11.106  23.103  0.00  0.00    +0.000 OA
ENDBRANCH  17  19
ENDBRANCH  16  17
ENDBRANCH  15  16
ENDBRANCH   1  15
TORSDOF 5
ENDMDL
MODEL 5
REMARK VINA RESULT:      -5.5      5.039      7.262
REMARK  Name = 
REMARK  6 active torsions:
REMARK  status: ('A' for Active; 'I' for Inactive)
REMARK    1  A    between atoms: C_1  and  O_2
REMARK    2  A    between atoms: O_2  and  C_3
REMARK    3  A    between atoms: C_3  and  C_4
REMARK    4  A    between atoms: C_4  and  S_5
REMARK    5  A    between atoms: S_5  and  C_6
REMARK    6  A    between atoms: C_11  and  C_13
REMARK                            x       y       z     vdW  Elec       q    Type
REMARK                         _______ _______ _______ _____ _____    ______ ____
ROOT
ATOM      1  C   UNL     1       6.008   5.021  17.957  0.00  0.00    +0.000 A 
ATOM      2  N   UNL     1       6.986   4.444  18.619  0.00  0.00    +0.000 NA
ATOM      3  N   UNL     1       7.970   5.355  18.979  0.00  0.00    +0.000 NA
ATOM      4  C   UNL     1       7.696   6.571  18.555  0.00  0.00    +0.000 A 
ATOM      5  N   UNL     1       8.514   7.646  18.795  0.00  0.00    +0.000 N 
ATOM      6  C   UNL     1       8.393   8.912  18.266  0.00  0.00    +0.000 C 
ATOM      7  O   UNL     1       7.555   9.300  17.462  0.00  0.00    +0.000 OA
ATOM      8  S   UNL     1       6.211   6.705  17.730  0.00  0.00    +0.000 S 
ATOM      9  H   UNL     1       9.351   7.449  19.337  0.00  0.00    +0.000 HD
ENDROOT
BRANCH   6  10
ATOM     10  C   UNL     1       9.428   9.879  18.862  0.00  0.00    +0.000 C 
ATOM     11  C   UNL     1       9.034  10.374  20.244  0.00  0.00    +0.000 C 
ATOM     12  C   UNL     1       9.815  11.658  20.349  0.00  0.00    +0.000 C 
ATOM     13  C   UNL     1       9.762  12.185  18.931  0.00  0.00    +0.000 C 
ATOM     14  O   UNL     1       9.641  11.050  18.058  0.00  0.00    +0.000 OA
ENDBRANCH   6  10
BRANCH   1  15
ATOM     15  S   UNL     1       4.619   4.162  17.333  0.00  0.00    +0.000 S 
BRANCH  15  16
ATOM     16  C   UNL     1       3.256   5.249  17.839  0.00  0.00    +0.000 C 
BRANCH  16  17
ATOM     17  C   UNL     1       1.941   4.473  17.791  0.00  0.00    +0.000 C 
BRANCH  17  19
ATOM     18  C   UNL     1       1.519   2.329  18.680  0.00  0.00    +0.000 C 
ATOM     19  O   UNL     1       2.224   3.073  17.693  0.00  0.00    +0.000 OA
ENDBRANCH  17  19
ENDBRANCH  16  17
ENDBRANCH  15  16
ENDBRANCH   1  15
TORSDOF 5
ENDMDL
MODEL 6
REMARK VINA RESULT:      -5.5      3.282      6.697
REMARK  Name = 
REMARK  6 active torsions:
REMARK  status: ('A' for Active; 'I' for Inactive)
REMARK    1  A    between atoms: C_1  and  O_2
REMARK    2  A    between atoms: O_2  and  C_3
REMARK    3  A    between atoms: C_3  and  C_4
REMARK    4  A    between atoms: C_4  and  S_5
REMARK    5  A    between atoms: S_5  and  C_6
REMARK    6  A    between atoms: C_11  and  C_13
REMARK                            x       y       z     vdW  Elec       q    Type
REMARK                         _______ _______ _______ _____ _____    ______ ____
ROOT
ATOM      1  C   UNL     1       3.370   2.503  18.867  0.00  0.00    +0.000 A 
ATOM      2  N   UNL     1       4.142   2.443  19.928  0.00  0.00    +0.000 NA
ATOM      3  N   UNL     1       5.214   3.321  19.834  0.00  0.00    +0.000 NA
ATOM      4  C   UNL     1       5.209   3.986  18.699  0.00  0.00    +0.000 A 
ATOM      5  N   UNL     1       6.162   4.921  18.378  0.00  0.00    +0.000 N 
ATOM      6  C   UNL     1       6.329   5.549  17.164  0.00  0.00    +0.000 C 
ATOM      7  O   UNL     1       5.679   5.367  16.142  0.00  0.00    +0.000 OA
ATOM      8  S   UNL     1       3.887   3.629  17.686  0.00  0.00    +0.000 S 
ATOM      9  H   UNL     1       6.877   5.080  19.083  0.00  0.00    +0.000 HD
ENDROOT
BRANCH   6  10
ATOM     10  C   UNL     1       7.430   6.620  17.224  0.00  0.00    +0.000 C 
ATOM     11  C   UNL     1       8.013   6.779  18.618  0.00  0.00    +0.000 C 
ATOM     12  C   UNL     1       8.577   8.174  18.563  0.00  0.00    +0.000 C 
ATOM     13  C   UNL     1       7.565   8.898  17.701  0.00  0.00    +0.000 C 
ATOM     14  O   UNL     1       6.977   7.923  16.823  0.00  0.00    +0.000 OA
ENDBRANCH   6  10
BRANCH   1  15
ATOM     15  S   UNL     1       1.946   1.515  18.645  0.00  0.00    +0.000 S 
BRANCH  15  16
ATOM     16  C   UNL     1       0.615   2.728  18.878  0.00  0.00    +0.000 C 
BRANCH  16  17
ATOM     17  C   UNL     1       0.892   3.552  20.134  0.00  0.00    +0.000 C 
BRANCH  17  19
ATOM     18  C   UNL     1       2.016   5.531  20.757  0.00  0.00    +0.000 C 
ATOM     19  O   UNL     1       1.239   4.888  19.753  0.00  0.00    +0.000 OA
ENDBRANCH  17  19
ENDBRANCH  16  17
ENDBRANCH  15  16
ENDBRANCH   1  15
TORSDOF 5
ENDMDL
MODEL 7
REMARK VINA RESULT:      -5.5      1.302      1.502
REMARK  Name = 
REMARK  6 active torsions:
REMARK  status: ('A' for Active; 'I' for Inactive)
REMARK    1  A    between atoms: C_1  and  O_2
REMARK    2  A    between atoms: O_2  and  C_3
REMARK    3  A    between atoms: C_3  and  C_4
REMARK    4  A    between atoms: C_4  and  S_5
REMARK    5  A    between atoms: S_5  and  C_6
REMARK    6  A    between atoms: C_11  and  C_13
REMARK                            x       y       z     vdW  Elec       q    Type
REMARK                         _______ _______ _______ _____ _____    ______ ____
ROOT
ATOM      1  C   UNL     1       6.751   4.666  14.159  0.00  0.00    +0.000 A 
ATOM      2  N   UNL     1       7.706   5.118  14.940  0.00  0.00    +0.000 NA
ATOM      3  N   UNL     1       7.357   5.029  16.282  0.00  0.00    +0.000 NA
ATOM      4  C   UNL     1       6.149   4.532  16.446  0.00  0.00    +0.000 A 
ATOM      5  N   UNL     1       5.584   4.338  17.681  0.00  0.00    +0.000 N 
ATOM      6  C   UNL     1       4.283   3.975  17.948  0.00  0.00    +0.000 C 
ATOM      7  O   UNL     1       3.386   3.789  17.136  0.00  0.00    +0.000 OA
ATOM      8  S   UNL     1       5.369   4.099  14.994  0.00  0.00    +0.000 S 
ATOM      9  H   UNL     1       6.166   4.594  18.476  0.00  0.00    +0.000 HD
ENDROOT
BRANCH   6  10
ATOM     10  C   UNL     1       4.055   3.740  19.450  0.00  0.00    +0.000 C 
ATOM     11  C   UNL     1       3.295   2.454  19.729  0.00  0.00    +0.000 C 
ATOM     12  C   UNL     1       2.709   2.726  21.090  0.00  0.00    +0.000 C 
ATOM     13  C   UNL     1       2.387   4.203  21.012  0.00  0.00    +0.000 C 
ATOM     14  O   UNL     1       3.313   4.794  20.084  0.00  0.00    +0.000 OA
ENDBRANCH   6  10
BRANCH   1  15
ATOM     15  S   UNL     1       6.849   4.654  12.414  0.00  0.00    +0.000 S 
BRANCH  15  16
ATOM     16  C   UNL     1       6.558   2.901  12.041  0.00  0.00    +0.000 C 
BRANCH  16  17
ATOM     17  C   UNL     1       5.063   2.664  11.840  0.00  0.00    +0.000 C 
BRANCH  17  19
ATOM     18  C   UNL     1       3.407   3.522  10.396  0.00  0.00    +0.000 C 
ATOM     19  O   UNL     1       4.469   3.843  11.286  0.00  0.00    +0.000 OA
ENDBRANCH  17  19
ENDBRANCH  16  17
ENDBRANCH  15  16
ENDBRANCH   1  15
TORSDOF 5
ENDMDL
MODEL 8
REMARK VINA RESULT:      -5.4      1.631      1.728
REMARK  Name = 
REMARK  6 active torsions:
REMARK  status: ('A' for Active; 'I' for Inactive)
REMARK    1  A    between atoms: C_1  and  O_2
REMARK    2  A    between atoms: O_2  and  C_3
REMARK    3  A    between atoms: C_3  and  C_4
REMARK    4  A    between atoms: C_4  and  S_5
REMARK    5  A    between atoms: S_5  and  C_6
REMARK    6  A    between atoms: C_11  and  C_13
REMARK                            x       y       z     vdW  Elec       q    Type
REMARK                         _______ _______ _______ _____ _____    ______ ____
ROOT
ATOM      1  C   UNL     1       6.246   5.105  14.975  0.00  0.00    +0.000 A 
ATOM      2  N   UNL     1       5.846   6.305  15.332  0.00  0.00    +0.000 NA
ATOM      3  N   UNL     1       5.064   6.265  16.478  0.00  0.00    +0.000 NA
ATOM      4  C   UNL     1       4.896   5.037  16.919  0.00  0.00    +0.000 A 
ATOM      5  N   UNL     1       4.168   4.741  18.045  0.00  0.00    +0.000 N 
ATOM      6  C   UNL     1       3.808   3.490  18.493  0.00  0.00    +0.000 C 
ATOM      7  O   UNL     1       4.045   2.416  17.954  0.00  0.00    +0.000 OA
ATOM      8  S   UNL     1       5.705   3.849  16.004  0.00  0.00    +0.000 S 
ATOM      9  H   UNL     1       3.769   5.540  18.532  0.00  0.00    +0.000 HD
ENDROOT
BRANCH   6  10
ATOM     10  C   UNL     1       3.096   3.556  19.853  0.00  0.00    +0.000 C 
ATOM     11  C   UNL     1       2.097   2.427  20.043  0.00  0.00    +0.000 C 
ATOM     12  C   UNL     1       1.172   3.001  21.084  0.00  0.00    +0.000 C 
ATOM     13  C   UNL     1       1.123   4.464  20.701  0.00  0.00    +0.000 C 
ATOM     14  O   UNL     1       2.368   4.778  20.055  0.00  0.00    +0.000 OA
ENDBRANCH   6  10
BRANCH   1  15
ATOM     15  S   UNL     1       7.226   4.788  13.563  0.00  0.00    +0.000 S 
BRANCH  15  16
ATOM     16  C   UNL     1       6.270   3.486  12.734  0.00  0.00    +0.000 C 
BRANCH  16  17
ATOM     17  C   UNL     1       6.871   3.210  11.358  0.00  0.00    +0.000 C 
BRANCH  17  19
ATOM     18  C   UNL     1       6.343   0.935  11.026  0.00  0.00    +0.000 C 
ATOM     19  O   UNL     1       7.373   1.870  11.323  0.00  0.00    +0.000 OA
ENDBRANCH  17  19
ENDBRANCH  16  17
ENDBRANCH  15  16
ENDBRANCH   1  15
TORSDOF 5
ENDMDL
MODEL 9
REMARK VINA RESULT:      -5.4      4.823      5.633
REMARK  Name = 
REMARK  6 active torsions:
REMARK  status: ('A' for Active; 'I' for Inactive)
REMARK    1  A    between atoms: C_1  and  O_2
REMARK    2  A    between atoms: O_2  and  C_3
REMARK    3  A    between atoms: C_3  and  C_4
REMARK    4  A    between atoms: C_4  and  S_5
REMARK    5  A    between atoms: S_5  and  C_6
REMARK    6  A    between atoms: C_11  and  C_13
REMARK                            x       y       z     vdW  Elec       q    Type
REMARK                         _______ _______ _______ _____ _____    ______ ____
ROOT
ATOM      1  C   UNL     1       3.891   6.662  17.717  0.00  0.00    +0.000 A 
ATOM      2  N   UNL     1       3.813   5.835  18.735  0.00  0.00    +0.000 NA
ATOM      3  N   UNL     1       2.910   6.280  19.691  0.00  0.00    +0.000 NA
ATOM      4  C   UNL     1       2.366   7.431  19.358  0.00  0.00    +0.000 A 
ATOM      5  N   UNL     1       1.435   8.069  20.138  0.00  0.00    +0.000 N 
ATOM      6  C   UNL     1       0.929   9.337  19.953  0.00  0.00    +0.000 C 
ATOM      7  O   UNL     1       1.238  10.136  19.078  0.00  0.00    +0.000 OA
ATOM      8  S   UNL     1       2.874   8.033  17.847  0.00  0.00    +0.000 S 
ATOM      9  H   UNL     1       1.178   7.589  20.997  0.00  0.00    +0.000 HD
ENDROOT
BRANCH   6  10
ATOM     10  C   UNL     1      -0.183   9.659  20.964  0.00  0.00    +0.000 C 
ATOM     11  C   UNL     1      -0.133  11.099  21.447  0.00  0.00    +0.000 C 
ATOM     12  C   UNL     1      -0.860  11.013  22.762  0.00  0.00    +0.000 C 
ATOM     13  C   UNL     1      -0.428   9.659  23.283  0.00  0.00    +0.000 C 
ATOM     14  O   UNL     1      -0.136   8.836  22.141  0.00  0.00    +0.000 OA
ENDBRANCH   6  10
BRANCH   1  15
ATOM     15  S   UNL     1       4.949   6.420  16.347  0.00  0.00    +0.000 S 
BRANCH  15  16
ATOM     16  C   UNL     1       5.592   4.752  16.669  0.00  0.00    +0.000 C 
BRANCH  16  17
ATOM     17  C   UNL     1       7.103   4.737  16.444  0.00  0.00    +0.000 C 
BRANCH  17  19
ATOM     18  C   UNL     1       6.756   4.450  14.128  0.00  0.00    +0.000 C 
ATOM     19  O   UNL     1       7.389   5.235  15.133  0.00  0.00    +0.000 OA
ENDBRANCH  17  19
ENDBRANCH  16  17
ENDBRANCH  15  16
ENDBRANCH   1  15
TORSDOF 5
ENDMDL
