MODEL 1
REMARK VINA RESULT:      -7.8      0.000      0.000
REMARK  Name = 
REMARK  11 active torsions:
REMARK  status: ('A' for Active; 'I' for Inactive)
REMARK    1  A    between atoms: C_4  and  C_5
REMARK    2  A    between atoms: C_8  and  O_9
REMARK    3  A    between atoms: C_10  and  O_11
REMARK    4  A    between atoms: C_16  and  O_17
REMARK    5  A    between atoms: O_17  and  C_18
REMARK    6  A    between atoms: C_20  and  C_21
REMARK    7  A    between atoms: C_21  and  O_22
REMARK    8  A    between atoms: C_23  and  O_24
REMARK    9  A    between atoms: C_25  and  O_26
REMARK   10  A    between atoms: C_27  and  O_28
REMARK   11  A    between atoms: C_30  and  O_31
REMARK                            x       y       z     vdW  Elec       q    Type
REMARK                         _______ _______ _______ _____ _____    ______ ____
ROOT
ATOM      1  O   UNL     1       2.209  10.206  17.444  0.00  0.00    +0.000 OA
ATOM      2  C   UNL     1       1.779   9.581  18.410  0.00  0.00    +0.000 A 
ATOM      3  C   UNL     1       2.217   8.195  18.621  0.00  0.00    +0.000 A 
ATOM      4  C   UNL     1       1.927   7.608  19.784  0.00  0.00    +0.000 A 
ATOM      5  O   UNL     1       1.279   8.210  20.849  0.00  0.00    +0.000 OA
ATOM      6  C   UNL     1       0.664   9.422  20.613  0.00  0.00    +0.000 A 
ATOM      7  C   UNL     1      -0.163   9.935  21.631  0.00  0.00    +0.000 A 
ATOM      8  C   UNL     1      -0.894  11.103  21.401  0.00  0.00    +0.000 A 
ATOM      9  C   UNL     1      -0.807  11.732  20.156  0.00  0.00    +0.000 A 
ATOM     10  C   UNL     1       0.084  11.270  19.189  0.00  0.00    +0.000 A 
ATOM     11  C   UNL     1       0.828  10.115  19.409  0.00  0.00    +0.000 A 
ENDROOT
BRANCH   4  12
ATOM     12  C   UNL     1       2.274   6.198  19.972  0.00  0.00    +0.000 A 
ATOM     13  C   UNL     1       1.525   5.381  20.831  0.00  0.00    +0.000 A 
ATOM     14  C   UNL     1       1.902   4.053  21.051  0.00  0.00    +0.000 A 
ATOM     15  C   UNL     1       3.032   3.554  20.412  0.00  0.00    +0.000 A 
ATOM     16  C   UNL     1       3.785   4.370  19.571  0.00  0.00    +0.000 A 
ATOM     17  C   UNL     1       3.419   5.687  19.346  0.00  0.00    +0.000 A 
BRANCH  15  18
ATOM     18  O   UNL     1       3.448   2.264  20.584  0.00  0.00    +0.000 OA
ATOM     19  H   UNL     1       2.937   1.876  21.315  0.00  0.00    +0.000 HD
ENDBRANCH  15  18
BRANCH  16  20
ATOM     20  O   UNL     1       4.904   3.877  18.964  0.00  0.00    +0.000 OA
ATOM     21  H   UNL     1       5.019   2.984  19.345  0.00  0.00    +0.000 HD
ENDBRANCH  16  20
ENDBRANCH   4  12
BRANCH  10  22
ATOM     22  O   UNL     1       0.186  11.958  18.016  0.00  0.00    +0.000 OA
ATOM     23  H   UNL     1       0.665  11.433  17.357  0.00  0.00    +0.000 HD
ENDBRANCH  10  22
BRANCH   8  24
ATOM     24  O   UNL     1      -1.713  11.753  22.287  0.00  0.00    +0.000 OA
BRANCH  24  25
ATOM     25  C   UNL     1      -2.147  13.090  21.968  0.00  0.00    +0.000 C 
ATOM     26  O   UNL     1      -3.454  13.156  21.392  0.00  0.00    +0.000 OA
ATOM     27  C   UNL     1      -4.479  12.619  22.247  0.00  0.00    +0.000 C 
ATOM     28  C   UNL     1      -4.574  13.377  23.581  0.00  0.00    +0.000 C 
ATOM     29  C   UNL     1      -3.191  13.486  24.250  0.00  0.00    +0.000 C 
ATOM     30  C   UNL     1      -2.113  13.956  23.255  0.00  0.00    +0.000 C 
BRANCH  28  31
ATOM     31  O   UNL     1      -5.486  12.714  24.474  0.00  0.00    +0.000 OA
ATOM     32  H   UNL     1      -6.394  13.024  24.314  0.00  0.00    +0.000 HD
ENDBRANCH  28  31
BRANCH  29  33
ATOM     33  O   UNL     1      -3.270  14.388  25.368  0.00  0.00    +0.000 OA
ATOM     34  H   UNL     1      -2.619  14.111  26.040  0.00  0.00    +0.000 HD
ENDBRANCH  29  33
BRANCH  30  35
ATOM     35  O   UNL     1      -0.810  13.938  23.856  0.00  0.00    +0.000 OA
ATOM     36  H   UNL     1      -0.159  13.752  23.156  0.00  0.00    +0.000 HD
ENDBRANCH  30  35
BRANCH  27  37
ATOM     37  C   UNL     1      -5.778  12.627  21.433  0.00  0.00    +0.000 C 
BRANCH  37  38
ATOM     38  O   UNL     1      -6.762  11.774  22.013  0.00  0.00    +0.000 OA
ATOM     39  H   UNL     1      -6.907  12.110  22.918  0.00  0.00    +0.000 HD
ENDBRANCH  37  38
ENDBRANCH  27  37
ENDBRANCH  24  25
ENDBRANCH   8  24
TORSDOF 11
ENDMDL
MODEL 2
REMARK VINA RESULT:      -7.8      4.220     11.639
REMARK  Name = 
REMARK  11 active torsions:
REMARK  status: ('A' for Active; 'I' for Inactive)
REMARK    1  A    between atoms: C_4  and  C_5
REMARK    2  A    between atoms: C_8  and  O_9
REMARK    3  A    between atoms: C_10  and  O_11
REMARK    4  A    between atoms: C_16  and  O_17
REMARK    5  A    between atoms: O_17  and  C_18
REMARK    6  A    between atoms: C_20  and  C_21
REMARK    7  A    between atoms: C_21  and  O_22
REMARK    8  A    between atoms: C_23  and  O_24
REMARK    9  A    between atoms: C_25  and  O_26
REMARK   10  A    between atoms: C_27  and  O_28
REMARK   11  A    between atoms: C_30  and  O_31
REMARK                            x       y       z     vdW  Elec       q    Type
REMARK                         _______ _______ _______ _____ _____    ______ ____
ROOT
ATOM      1  O   UNL     1       2.292   4.172  21.050  0.00  0.00    +0.000 OA
ATOM      2  C   UNL     1       2.346   5.129  20.283  0.00  0.00    +0.000 A 
ATOM      3  C   UNL     1       1.690   6.388  20.660  0.00  0.00    +0.000 A 
ATOM      4  C   UNL     1       1.946   7.479  19.934  0.00  0.00    +0.000 A 
ATOM      5  O   UNL     1       2.823   7.546  18.865  0.00  0.00    +0.000 OA
ATOM      6  C   UNL     1       3.283   6.352  18.348  0.00  0.00    +0.000 A 
ATOM      7  C   UNL     1       4.008   6.409  17.141  0.00  0.00    +0.000 A 
ATOM      8  C   UNL     1       4.402   5.222  16.519  0.00  0.00    +0.000 A 
ATOM      9  C   UNL     1       4.053   3.998  17.094  0.00  0.00    +0.000 A 
ATOM     10  C   UNL     1       3.419   3.952  18.334  0.00  0.00    +0.000 A 
ATOM     11  C   UNL     1       3.030   5.127  18.972  0.00  0.00    +0.000 A 
ENDROOT
BRANCH   4  12
ATOM     12  C   UNL     1       1.228   8.718  20.239  0.00  0.00    +0.000 A 
ATOM     13  C   UNL     1       0.931   9.645  19.229  0.00  0.00    +0.000 A 
ATOM     14  C   UNL     1       0.299  10.853  19.542  0.00  0.00    +0.000 A 
ATOM     15  C   UNL     1      -0.024  11.125  20.867  0.00  0.00    +0.000 A 
ATOM     16  C   UNL     1       0.284  10.212  21.872  0.00  0.00    +0.000 A 
ATOM     17  C   UNL     1       0.909   9.011  21.572  0.00  0.00    +0.000 A 
BRANCH  15  18
ATOM     18  O   UNL     1      -0.645  12.286  21.234  0.00  0.00    +0.000 OA
ATOM     19  H   UNL     1      -0.222  13.019  20.754  0.00  0.00    +0.000 HD
ENDBRANCH  15  18
BRANCH  16  20
ATOM     20  O   UNL     1      -0.020  10.496  23.172  0.00  0.00    +0.000 OA
ATOM     21  H   UNL     1       0.562   9.909  23.696  0.00  0.00    +0.000 HD
ENDBRANCH  16  20
ENDBRANCH   4  12
BRANCH  10  22
ATOM     22  O   UNL     1       3.161   2.734  18.890  0.00  0.00    +0.000 OA
ATOM     23  H   UNL     1       3.599   2.656  19.751  0.00  0.00    +0.000 HD
ENDBRANCH  10  22
BRANCH   8  24
ATOM     24  O   UNL     1       5.138   5.097  15.370  0.00  0.00    +0.000 OA
BRANCH  24  25
ATOM     25  C   UNL     1       6.223   4.149  15.348  0.00  0.00    +0.000 C 
ATOM     26  O   UNL     1       6.104   3.151  14.329  0.00  0.00    +0.000 OA
ATOM     27  C   UNL     1       6.056   3.701  13.000  0.00  0.00    +0.000 C 
ATOM     28  C   UNL     1       7.325   4.497  12.657  0.00  0.00    +0.000 C 
ATOM     29  C   UNL     1       7.637   5.532  13.754  0.00  0.00    +0.000 C 
ATOM     30  C   UNL     1       7.562   4.911  15.161  0.00  0.00    +0.000 C 
BRANCH  28  31
ATOM     31  O   UNL     1       7.173   5.169  11.395  0.00  0.00    +0.000 OA
ATOM     32  H   UNL     1       6.393   4.824  10.925  0.00  0.00    +0.000 HD
ENDBRANCH  28  31
BRANCH  29  33
ATOM     33  O   UNL     1       8.940   6.097  13.523  0.00  0.00    +0.000 OA
ATOM     34  H   UNL     1       9.149   6.020  12.573  0.00  0.00    +0.000 HD
ENDBRANCH  29  33
BRANCH  30  35
ATOM     35  O   UNL     1       7.734   5.908  16.179  0.00  0.00    +0.000 OA
ATOM     36  H   UNL     1       8.670   5.908  16.444  0.00  0.00    +0.000 HD
ENDBRANCH  30  35
BRANCH  27  37
ATOM     37  C   UNL     1       5.781   2.529  12.051  0.00  0.00    +0.000 C 
BRANCH  37  38
ATOM     38  O   UNL     1       6.992   1.982  11.533  0.00  0.00    +0.000 OA
ATOM     39  H   UNL     1       6.915   1.015  11.639  0.00  0.00    +0.000 HD
ENDBRANCH  37  38
ENDBRANCH  27  37
ENDBRANCH  24  25
ENDBRANCH   8  24
TORSDOF 11
ENDMDL
MODEL 3
REMARK VINA RESULT:      -7.7      0.677      1.162
REMARK  Name = 
REMARK  11 active torsions:
REMARK  status: ('A' for Active; 'I' for Inactive)
REMARK    1  A    between atoms: C_4  and  C_5
REMARK    2  A    between atoms: C_8  and  O_9
REMARK    3  A    between atoms: C_10  and  O_11
REMARK    4  A    between atoms: C_16  and  O_17
REMARK    5  A    between atoms: O_17  and  C_18
REMARK    6  A    between atoms: C_20  and  C_21
REMARK    7  A    between atoms: C_21  and  O_22
REMARK    8  A    between atoms: C_23  and  O_24
REMARK    9  A    between atoms: C_25  and  O_26
REMARK   10  A    between atoms: C_27  and  O_28
REMARK   11  A    between atoms: C_30  and  O_31
REMARK                            x       y       z     vdW  Elec       q    Type
REMARK                         _______ _______ _______ _____ _____    ______ ____
ROOT
ATOM      1  O   UNL     1       2.352  10.665  17.423  0.00  0.00    +0.000 OA
ATOM      2  C   UNL     1       1.869   9.955  18.301  0.00  0.00    +0.000 A 
ATOM      3  C   UNL     1       2.270   8.544  18.383  0.00  0.00    +0.000 A 
ATOM      4  C   UNL     1       1.921   7.848  19.468  0.00  0.00    +0.000 A 
ATOM      5  O   UNL     1       1.242   8.353  20.563  0.00  0.00    +0.000 OA
ATOM      6  C   UNL     1       0.662   9.597  20.430  0.00  0.00    +0.000 A 
ATOM      7  C   UNL     1      -0.197  10.023  21.463  0.00  0.00    +0.000 A 
ATOM      8  C   UNL     1      -0.894  11.225  21.326  0.00  0.00    +0.000 A 
ATOM      9  C   UNL     1      -0.743  11.976  20.158  0.00  0.00    +0.000 A 
ATOM     10  C   UNL     1       0.178  11.596  19.184  0.00  0.00    +0.000 A 
ATOM     11  C   UNL     1       0.889  10.406  19.312  0.00  0.00    +0.000 A 
ENDROOT
BRANCH   4  12
ATOM     12  C   UNL     1       2.232   6.418  19.522  0.00  0.00    +0.000 A 
ATOM     13  C   UNL     1       2.624   5.723  18.369  0.00  0.00    +0.000 A 
ATOM     14  C   UNL     1       2.858   4.345  18.420  0.00  0.00    +0.000 A 
ATOM     15  C   UNL     1       2.692   3.673  19.625  0.00  0.00    +0.000 A 
ATOM     16  C   UNL     1       2.287   4.361  20.767  0.00  0.00    +0.000 A 
ATOM     17  C   UNL     1       2.054   5.726  20.728  0.00  0.00    +0.000 A 
BRANCH  15  18
ATOM     18  O   UNL     1       2.909   2.329  19.739  0.00  0.00    +0.000 OA
ATOM     19  H   UNL     1       2.300   1.980  20.412  0.00  0.00    +0.000 HD
ENDBRANCH  15  18
BRANCH  16  20
ATOM     20  O   UNL     1       2.108   3.689  21.942  0.00  0.00    +0.000 OA
ATOM     21  H   UNL     1       3.003   3.634  22.334  0.00  0.00    +0.000 HD
ENDBRANCH  16  20
ENDBRANCH   4  12
BRANCH  10  22
ATOM     22  O   UNL     1       0.343  12.398  18.094  0.00  0.00    +0.000 OA
ATOM     23  H   UNL     1       0.548  13.304  18.369  0.00  0.00    +0.000 HD
ENDBRANCH  10  22
BRANCH   8  24
ATOM     24  O   UNL     1      -1.735  11.801  22.243  0.00  0.00    +0.000 OA
BRANCH  24  25
ATOM     25  C   UNL     1      -2.221  13.133  21.988  0.00  0.00    +0.000 C 
ATOM     26  O   UNL     1      -3.529  13.177  21.412  0.00  0.00    +0.000 OA
ATOM     27  C   UNL     1      -4.533  12.560  22.237  0.00  0.00    +0.000 C 
ATOM     28  C   UNL     1      -4.659  13.247  23.606  0.00  0.00    +0.000 C 
ATOM     29  C   UNL     1      -3.282  13.377  24.284  0.00  0.00    +0.000 C 
ATOM     30  C   UNL     1      -2.222  13.936  23.316  0.00  0.00    +0.000 C 
BRANCH  28  31
ATOM     31  O   UNL     1      -5.545  12.506  24.463  0.00  0.00    +0.000 OA
ATOM     32  H   UNL     1      -6.390  12.343  24.007  0.00  0.00    +0.000 HD
ENDBRANCH  28  31
BRANCH  29  33
ATOM     33  O   UNL     1      -3.397  14.219  25.444  0.00  0.00    +0.000 OA
ATOM     34  H   UNL     1      -2.638  14.047  26.032  0.00  0.00    +0.000 HD
ENDBRANCH  29  33
BRANCH  30  35
ATOM     35  O   UNL     1      -0.920  13.940  23.919  0.00  0.00    +0.000 OA
ATOM     36  H   UNL     1      -1.035  13.994  24.884  0.00  0.00    +0.000 HD
ENDBRANCH  30  35
BRANCH  27  37
ATOM     37  C   UNL     1      -5.831  12.557  21.421  0.00  0.00    +0.000 C 
BRANCH  37  38
ATOM     38  O   UNL     1      -6.847  11.788  22.059  0.00  0.00    +0.000 OA
ATOM     39  H   UNL     1      -7.538  12.425  22.323  0.00  0.00    +0.000 HD
ENDBRANCH  37  38
ENDBRANCH  27  37
ENDBRANCH  24  25
ENDBRANCH   8  24
TORSDOF 11
ENDMDL
MODEL 4
REMARK VINA RESULT:      -7.6      0.792      1.054
REMARK  Name = 
REMARK  11 active torsions:
REMARK  status: ('A' for Active; 'I' for Inactive)
REMARK    1  A    between atoms: C_4  and  C_5
REMARK    2  A    between atoms: C_8  and  O_9
REMARK    3  A    between atoms: C_10  and  O_11
REMARK    4  A    between atoms: C_16  and  O_17
REMARK    5  A    between atoms: O_17  and  C_18
REMARK    6  A    between atoms: C_20  and  C_21
REMARK    7  A    between atoms: C_21  and  O_22
REMARK    8  A    between atoms: C_23  and  O_24
REMARK    9  A    between atoms: C_25  and  O_26
REMARK   10  A    between atoms: C_27  and  O_28
REMARK   11  A    between atoms: C_30  and  O_31
REMARK                            x       y       z     vdW  Elec       q    Type
REMARK                         _______ _______ _______ _____ _____    ______ ____
ROOT
ATOM      1  O   UNL     1       2.217   9.930  17.284  0.00  0.00    +0.000 OA
ATOM      2  C   UNL     1       1.836   9.356  18.300  0.00  0.00    +0.000 A 
ATOM      3  C   UNL     1       2.266   7.973  18.546  0.00  0.00    +0.000 A 
ATOM      4  C   UNL     1       2.037   7.441  19.749  0.00  0.00    +0.000 A 
ATOM      5  O   UNL     1       1.462   8.100  20.822  0.00  0.00    +0.000 OA
ATOM      6  C   UNL     1       0.852   9.311  20.569  0.00  0.00    +0.000 A 
ATOM      7  C   UNL     1       0.093   9.881  21.611  0.00  0.00    +0.000 A 
ATOM      8  C   UNL     1      -0.633  11.050  21.372  0.00  0.00    +0.000 A 
ATOM      9  C   UNL     1      -0.611  11.623  20.097  0.00  0.00    +0.000 A 
ATOM     10  C   UNL     1       0.215  11.105  19.101  0.00  0.00    +0.000 A 
ATOM     11  C   UNL     1       0.954   9.948  19.329  0.00  0.00    +0.000 A 
ENDROOT
BRANCH   4  12
ATOM     12  C   UNL     1       2.375   6.036  19.979  0.00  0.00    +0.000 A 
ATOM     13  C   UNL     1       1.523   5.202  20.719  0.00  0.00    +0.000 A 
ATOM     14  C   UNL     1       1.884   3.878  20.984  0.00  0.00    +0.000 A 
ATOM     15  C   UNL     1       3.101   3.400  20.511  0.00  0.00    +0.000 A 
ATOM     16  C   UNL     1       3.954   4.231  19.790  0.00  0.00    +0.000 A 
ATOM     17  C   UNL     1       3.605   5.545  19.520  0.00  0.00    +0.000 A 
BRANCH  15  18
ATOM     18  O   UNL     1       3.507   2.114  20.735  0.00  0.00    +0.000 OA
ATOM     19  H   UNL     1       3.395   1.614  19.909  0.00  0.00    +0.000 HD
ENDBRANCH  15  18
BRANCH  16  20
ATOM     20  O   UNL     1       5.155   3.758  19.345  0.00  0.00    +0.000 OA
ATOM     21  H   UNL     1       5.343   2.986  19.917  0.00  0.00    +0.000 HD
ENDBRANCH  16  20
ENDBRANCH   4  12
BRANCH  10  22
ATOM     22  O   UNL     1       0.257  11.740  17.895  0.00  0.00    +0.000 OA
ATOM     23  H   UNL     1       0.588  11.140  17.209  0.00  0.00    +0.000 HD
ENDBRANCH  10  22
BRANCH   8  24
ATOM     24  O   UNL     1      -1.388  11.752  22.275  0.00  0.00    +0.000 OA
BRANCH  24  25
ATOM     25  C   UNL     1      -1.888  13.048  21.892  0.00  0.00    +0.000 C 
ATOM     26  O   UNL     1      -3.305  13.189  22.028  0.00  0.00    +0.000 OA
ATOM     27  C   UNL     1      -3.769  12.987  23.375  0.00  0.00    +0.000 C 
ATOM     28  C   UNL     1      -3.155  13.999  24.356  0.00  0.00    +0.000 C 
ATOM     29  C   UNL     1      -1.621  14.035  24.218  0.00  0.00    +0.000 C 
ATOM     30  C   UNL     1      -1.184  14.137  22.745  0.00  0.00    +0.000 C 
BRANCH  28  31
ATOM     31  O   UNL     1      -3.505  13.665  25.710  0.00  0.00    +0.000 OA
ATOM     32  H   UNL     1      -4.290  14.172  25.985  0.00  0.00    +0.000 HD
ENDBRANCH  28  31
BRANCH  29  33
ATOM     33  O   UNL     1      -1.099  15.142  24.975  0.00  0.00    +0.000 OA
ATOM     34  H   UNL     1      -0.388  14.814  25.557  0.00  0.00    +0.000 HD
ENDBRANCH  29  33
BRANCH  30  35
ATOM     35  O   UNL     1       0.243  14.048  22.620  0.00  0.00    +0.000 OA
ATOM     36  H   UNL     1       0.519  13.174  22.946  0.00  0.00    +0.000 HD
ENDBRANCH  30  35
BRANCH  27  37
ATOM     37  C   UNL     1      -5.301  13.024  23.321  0.00  0.00    +0.000 C 
BRANCH  37  38
ATOM     38  O   UNL     1      -5.878  12.205  24.335  0.00  0.00    +0.000 OA
ATOM     39  H   UNL     1      -5.891  12.750  25.144  0.00  0.00    +0.000 HD
ENDBRANCH  37  38
ENDBRANCH  27  37
ENDBRANCH  24  25
ENDBRANCH   8  24
TORSDOF 11
ENDMDL
MODEL 5
REMARK VINA RESULT:      -7.6      7.227     11.504
REMARK  Name = 
REMARK  11 active torsions:
REMARK  status: ('A' for Active; 'I' for Inactive)
REMARK    1  A    between atoms: C_4  and  C_5
REMARK    2  A    between atoms: C_8  and  O_9
REMARK    3  A    between atoms: C_10  and  O_11
REMARK    4  A    between atoms: C_16  and  O_17
REMARK    5  A    between atoms: O_17  and  C_18
REMARK    6  A    between atoms: C_20  and  C_21
REMARK    7  A    between atoms: C_21  and  O_22
REMARK    8  A    between atoms: C_23  and  O_24
REMARK    9  A    between atoms: C_25  and  O_26
REMARK   10  A    between atoms: C_27  and  O_28
REMARK   11  A    between atoms: C_30  and  O_31
REMARK                            x       y       z     vdW  Elec       q    Type
REMARK                         _______ _______ _______ _____ _____    ______ ____
ROOT
ATOM      1  O   UNL     1       3.390  18.033  19.781  0.00  0.00    +0.000 OA
ATOM      2  C   UNL     1       3.603  16.871  19.449  0.00  0.00    +0.000 A 
ATOM      3  C   UNL     1       2.523  15.882  19.568  0.00  0.00    +0.000 A 
ATOM      4  C   UNL     1       2.690  14.687  18.996  0.00  0.00    +0.000 A 
ATOM      5  O   UNL     1       3.790  14.301  18.249  0.00  0.00    +0.000 OA
ATOM      6  C   UNL     1       4.906  15.110  18.300  0.00  0.00    +0.000 A 
ATOM      7  C   UNL     1       6.087  14.618  17.710  0.00  0.00    +0.000 A 
ATOM      8  C   UNL     1       7.272  15.349  17.829  0.00  0.00    +0.000 A 
ATOM      9  C   UNL     1       7.269  16.546  18.549  0.00  0.00    +0.000 A 
ATOM     10  C   UNL     1       6.079  17.071  19.048  0.00  0.00    +0.000 A 
ATOM     11  C   UNL     1       4.889  16.360  18.927  0.00  0.00    +0.000 A 
ENDROOT
BRANCH   4  12
ATOM     12  C   UNL     1       1.664  13.660  19.186  0.00  0.00    +0.000 A 
ATOM     13  C   UNL     1       1.804  12.677  20.176  0.00  0.00    +0.000 A 
ATOM     14  C   UNL     1       0.849  11.665  20.307  0.00  0.00    +0.000 A 
ATOM     15  C   UNL     1      -0.239  11.643  19.441  0.00  0.00    +0.000 A 
ATOM     16  C   UNL     1      -0.370  12.610  18.448  0.00  0.00    +0.000 A 
ATOM     17  C   UNL     1       0.571  13.618  18.310  0.00  0.00    +0.000 A 
BRANCH  15  18
ATOM     18  O   UNL     1      -1.207  10.682  19.523  0.00  0.00    +0.000 OA
ATOM     19  H   UNL     1      -1.619  10.593  18.646  0.00  0.00    +0.000 HD
ENDBRANCH  15  18
BRANCH  16  20
ATOM     20  O   UNL     1      -1.431  12.569  17.590  0.00  0.00    +0.000 OA
ATOM     21  H   UNL     1      -1.146  11.966  16.874  0.00  0.00    +0.000 HD
ENDBRANCH  16  20
ENDBRANCH   4  12
BRANCH  10  22
ATOM     22  O   UNL     1       6.114  18.278  19.682  0.00  0.00    +0.000 OA
ATOM     23  H   UNL     1       5.906  18.171  20.623  0.00  0.00    +0.000 HD
ENDBRANCH  10  22
BRANCH   8  24
ATOM     24  O   UNL     1       8.492  15.036  17.289  0.00  0.00    +0.000 OA
BRANCH  24  25
ATOM     25  C   UNL     1       9.667  15.198  18.108  0.00  0.00    +0.000 C 
ATOM     26  O   UNL     1       9.750  14.275  19.197  0.00  0.00    +0.000 OA
ATOM     27  C   UNL     1       9.770  12.900  18.775  0.00  0.00    +0.000 C 
ATOM     28  C   UNL     1      10.975  12.588  17.874  0.00  0.00    +0.000 C 
ATOM     29  C   UNL     1      11.072  13.602  16.718  0.00  0.00    +0.000 C 
ATOM     30  C   UNL     1      10.930  15.051  17.218  0.00  0.00    +0.000 C 
BRANCH  28  31
ATOM     31  O   UNL     1      10.873  11.258  17.336  0.00  0.00    +0.000 OA
ATOM     32  H   UNL     1      10.945  10.603  18.053  0.00  0.00    +0.000 HD
ENDBRANCH  28  31
BRANCH  29  33
ATOM     33  O   UNL     1      12.326  13.427  16.033  0.00  0.00    +0.000 OA
ATOM     34  H   UNL     1      12.726  14.304  15.887  0.00  0.00    +0.000 HD
ENDBRANCH  29  33
BRANCH  30  35
ATOM     35  O   UNL     1      10.901  15.978  16.123  0.00  0.00    +0.000 OA
ATOM     36  H   UNL     1      10.538  16.819  16.450  0.00  0.00    +0.000 HD
ENDBRANCH  30  35
BRANCH  27  37
ATOM     37  C   UNL     1       9.710  12.049  20.049  0.00  0.00    +0.000 C 
BRANCH  37  38
ATOM     38  O   UNL     1       9.623  10.659  19.745  0.00  0.00    +0.000 OA
ATOM     39  H   UNL     1      10.536  10.369  19.560  0.00  0.00    +0.000 HD
ENDBRANCH  37  38
ENDBRANCH  27  37
ENDBRANCH  24  25
ENDBRANCH   8  24
TORSDOF 11
ENDMDL
MODEL 6
REMARK VINA RESULT:      -7.6      4.279     11.687
REMARK  Name = 
REMARK  11 active torsions:
REMARK  status: ('A' for Active; 'I' for Inactive)
REMARK    1  A    between atoms: C_4  and  C_5
REMARK    2  A    between atoms: C_8  and  O_9
REMARK    3  A    between atoms: C_10  and  O_11
REMARK    4  A    between atoms: C_16  and  O_17
REMARK    5  A    between atoms: O_17  and  C_18
REMARK    6  A    between atoms: C_20  and  C_21
REMARK    7  A    between atoms: C_21  and  O_22
REMARK    8  A    between atoms: C_23  and  O_24
REMARK    9  A    between atoms: C_25  and  O_26
REMARK   10  A    between atoms: C_27  and  O_28
REMARK   11  A    between atoms: C_30  and  O_31
REMARK                            x       y       z     vdW  Elec       q    Type
REMARK                         _______ _______ _______ _____ _____    ______ ____
ROOT
ATOM      1  O   UNL     1       2.449   4.009  21.001  0.00  0.00    +0.000 OA
ATOM      2  C   UNL     1       2.476   4.965  20.231  0.00  0.00    +0.000 A 
ATOM      3  C   UNL     1       1.821   6.220  20.623  0.00  0.00    +0.000 A 
ATOM      4  C   UNL     1       2.050   7.311  19.888  0.00  0.00    +0.000 A 
ATOM      5  O   UNL     1       2.897   7.382  18.796  0.00  0.00    +0.000 OA
ATOM      6  C   UNL     1       3.351   6.190  18.268  0.00  0.00    +0.000 A 
ATOM      7  C   UNL     1       4.042   6.249  17.042  0.00  0.00    +0.000 A 
ATOM      8  C   UNL     1       4.427   5.064  16.412  0.00  0.00    +0.000 A 
ATOM      9  C   UNL     1       4.102   3.838  16.999  0.00  0.00    +0.000 A 
ATOM     10  C   UNL     1       3.502   3.791  18.256  0.00  0.00    +0.000 A 
ATOM     11  C   UNL     1       3.123   4.965  18.901  0.00  0.00    +0.000 A 
ENDROOT
BRANCH   4  12
ATOM     12  C   UNL     1       1.332   8.546  20.211  0.00  0.00    +0.000 A 
ATOM     13  C   UNL     1       0.799   8.755  21.491  0.00  0.00    +0.000 A 
ATOM     14  C   UNL     1       0.063   9.911  21.770  0.00  0.00    +0.000 A 
ATOM     15  C   UNL     1      -0.140  10.846  20.761  0.00  0.00    +0.000 A 
ATOM     16  C   UNL     1       0.376  10.631  19.485  0.00  0.00    +0.000 A 
ATOM     17  C   UNL     1       1.109   9.490  19.199  0.00  0.00    +0.000 A 
BRANCH  15  18
ATOM     18  O   UNL     1      -0.847  11.995  20.974  0.00  0.00    +0.000 OA
ATOM     19  H   UNL     1      -1.518  12.071  20.273  0.00  0.00    +0.000 HD
ENDBRANCH  15  18
BRANCH  16  20
ATOM     20  O   UNL     1       0.156  11.545  18.496  0.00  0.00    +0.000 OA
ATOM     21  H   UNL     1      -0.264  11.033  17.775  0.00  0.00    +0.000 HD
ENDBRANCH  16  20
ENDBRANCH   4  12
BRANCH  10  22
ATOM     22  O   UNL     1       3.268   2.572  18.821  0.00  0.00    +0.000 OA
ATOM     23  H   UNL     1       3.944   2.373  19.487  0.00  0.00    +0.000 HD
ENDBRANCH  10  22
BRANCH   8  24
ATOM     24  O   UNL     1       5.132   4.941  15.243  0.00  0.00    +0.000 OA
BRANCH  24  25
ATOM     25  C   UNL     1       6.236   4.016  15.200  0.00  0.00    +0.000 C 
ATOM     26  O   UNL     1       6.143   3.046  14.154  0.00  0.00    +0.000 OA
ATOM     27  C   UNL     1       6.089   3.631  12.840  0.00  0.00    +0.000 C 
ATOM     28  C   UNL     1       7.342   4.463  12.526  0.00  0.00    +0.000 C 
ATOM     29  C   UNL     1       7.628   5.473  13.653  0.00  0.00    +0.000 C 
ATOM     30  C   UNL     1       7.559   4.811  15.041  0.00  0.00    +0.000 C 
BRANCH  28  31
ATOM     31  O   UNL     1       7.182   5.167  11.282  0.00  0.00    +0.000 OA
ATOM     32  H   UNL     1       6.332   4.929  10.872  0.00  0.00    +0.000 HD
ENDBRANCH  28  31
BRANCH  29  33
ATOM     33  O   UNL     1       8.920   6.071  13.444  0.00  0.00    +0.000 OA
ATOM     34  H   UNL     1       8.832   7.039  13.520  0.00  0.00    +0.000 HD
ENDBRANCH  29  33
BRANCH  30  35
ATOM     35  O   UNL     1       7.706   5.783  16.087  0.00  0.00    +0.000 OA
ATOM     36  H   UNL     1       7.138   5.514  16.830  0.00  0.00    +0.000 HD
ENDBRANCH  30  35
BRANCH  27  37
ATOM     37  C   UNL     1       5.843   2.481  11.858  0.00  0.00    +0.000 C 
BRANCH  37  38
ATOM     38  O   UNL     1       7.067   1.877  11.444  0.00  0.00    +0.000 OA
ATOM     39  H   UNL     1       6.916   0.914  11.485  0.00  0.00    +0.000 HD
ENDBRANCH  37  38
ENDBRANCH  27  37
ENDBRANCH  24  25
ENDBRANCH   8  24
TORSDOF 11
ENDMDL
MODEL 7
REMARK VINA RESULT:      -7.5      3.347      5.621
REMARK  Name = 
REMARK  11 active torsions:
REMARK  status: ('A' for Active; 'I' for Inactive)
REMARK    1  A    between atoms: C_4  and  C_5
REMARK    2  A    between atoms: C_8  and  O_9
REMARK    3  A    between atoms: C_10  and  O_11
REMARK    4  A    between atoms: C_16  and  O_17
REMARK    5  A    between atoms: O_17  and  C_18
REMARK    6  A    between atoms: C_20  and  C_21
REMARK    7  A    between atoms: C_21  and  O_22
REMARK    8  A    between atoms: C_23  and  O_24
REMARK    9  A    between atoms: C_25  and  O_26
REMARK   10  A    between atoms: C_27  and  O_28
REMARK   11  A    between atoms: C_30  and  O_31
REMARK                            x       y       z     vdW  Elec       q    Type
REMARK                         _______ _______ _______ _____ _____    ______ ____
ROOT
ATOM      1  O   UNL     1       1.616   5.846  20.871  0.00  0.00    +0.000 OA
ATOM      2  C   UNL     1       2.140   6.555  20.016  0.00  0.00    +0.000 A 
ATOM      3  C   UNL     1       3.212   5.997  19.181  0.00  0.00    +0.000 A 
ATOM      4  C   UNL     1       3.613   6.693  18.115  0.00  0.00    +0.000 A 
ATOM      5  O   UNL     1       3.071   7.893  17.689  0.00  0.00    +0.000 OA
ATOM      6  C   UNL     1       2.226   8.551  18.558  0.00  0.00    +0.000 A 
ATOM      7  C   UNL     1       1.839   9.861  18.214  0.00  0.00    +0.000 A 
ATOM      8  C   UNL     1       1.073  10.610  19.111  0.00  0.00    +0.000 A 
ATOM      9  C   UNL     1       0.721  10.053  20.343  0.00  0.00    +0.000 A 
ATOM     10  C   UNL     1       1.029   8.726  20.636  0.00  0.00    +0.000 A 
ATOM     11  C   UNL     1       1.781   7.964  19.746  0.00  0.00    +0.000 A 
ENDROOT
BRANCH   4  12
ATOM     12  C   UNL     1       4.742   6.195  17.328  0.00  0.00    +0.000 A 
ATOM     13  C   UNL     1       4.787   6.377  15.938  0.00  0.00    +0.000 A 
ATOM     14  C   UNL     1       5.840   5.844  15.188  0.00  0.00    +0.000 A 
ATOM     15  C   UNL     1       6.839   5.127  15.837  0.00  0.00    +0.000 A 
ATOM     16  C   UNL     1       6.788   4.934  17.215  0.00  0.00    +0.000 A 
ATOM     17  C   UNL     1       5.749   5.459  17.967  0.00  0.00    +0.000 A 
BRANCH  15  18
ATOM     18  O   UNL     1       7.895   4.586  15.160  0.00  0.00    +0.000 OA
ATOM     19  H   UNL     1       7.557   4.194  14.336  0.00  0.00    +0.000 HD
ENDBRANCH  15  18
BRANCH  16  20
ATOM     20  O   UNL     1       7.763   4.212  17.842  0.00  0.00    +0.000 OA
ATOM     21  H   UNL     1       8.127   3.632  17.143  0.00  0.00    +0.000 HD
ENDBRANCH  16  20
ENDBRANCH   4  12
BRANCH  10  22
ATOM     22  O   UNL     1       0.603   8.205  21.821  0.00  0.00    +0.000 OA
ATOM     23  H   UNL     1      -0.359   8.294  21.904  0.00  0.00    +0.000 HD
ENDBRANCH  10  22
BRANCH   8  24
ATOM     24  O   UNL     1       0.583  11.876  18.922  0.00  0.00    +0.000 OA
BRANCH  24  25
ATOM     25  C   UNL     1       0.362  12.707  20.078  0.00  0.00    +0.000 C 
ATOM     26  O   UNL     1       1.557  13.263  20.633  0.00  0.00    +0.000 OA
ATOM     27  C   UNL     1       2.283  14.090  19.706  0.00  0.00    +0.000 C 
ATOM     28  C   UNL     1       1.449  15.290  19.227  0.00  0.00    +0.000 C 
ATOM     29  C   UNL     1       0.071  14.832  18.716  0.00  0.00    +0.000 C 
ATOM     30  C   UNL     1      -0.607  13.859  19.698  0.00  0.00    +0.000 C 
BRANCH  28  31
ATOM     31  O   UNL     1       2.137  15.997  18.180  0.00  0.00    +0.000 OA
ATOM     32  H   UNL     1       2.926  16.440  18.540  0.00  0.00    +0.000 HD
ENDBRANCH  28  31
BRANCH  29  33
ATOM     33  O   UNL     1      -0.763  15.983  18.492  0.00  0.00    +0.000 OA
ATOM     34  H   UNL     1      -1.693  15.729  18.646  0.00  0.00    +0.000 HD
ENDBRANCH  29  33
BRANCH  30  35
ATOM     35  O   UNL     1      -1.833  13.345  19.158  0.00  0.00    +0.000 OA
ATOM     36  H   UNL     1      -1.805  12.374  19.221  0.00  0.00    +0.000 HD
ENDBRANCH  30  35
BRANCH  27  37
ATOM     37  C   UNL     1       3.593  14.480  20.398  0.00  0.00    +0.000 C 
BRANCH  37  38
ATOM     38  O   UNL     1       3.773  15.894  20.419  0.00  0.00    +0.000 OA
ATOM     39  H   UNL     1       4.737  16.041  20.411  0.00  0.00    +0.000 HD
ENDBRANCH  37  38
ENDBRANCH  27  37
ENDBRANCH  24  25
ENDBRANCH   8  24
TORSDOF 11
ENDMDL
MODEL 8
REMARK VINA RESULT:      -7.5      1.008      1.597
REMARK  Name = 
REMARK  11 active torsions:
REMARK  status: ('A' for Active; 'I' for Inactive)
REMARK    1  A    between atoms: C_4  and  C_5
REMARK    2  A    between atoms: C_8  and  O_9
REMARK    3  A    between atoms: C_10  and  O_11
REMARK    4  A    between atoms: C_16  and  O_17
REMARK    5  A    between atoms: O_17  and  C_18
REMARK    6  A    between atoms: C_20  and  C_21
REMARK    7  A    between atoms: C_21  and  O_22
REMARK    8  A    between atoms: C_23  and  O_24
REMARK    9  A    between atoms: C_25  and  O_26
REMARK   10  A    between atoms: C_27  and  O_28
REMARK   11  A    between atoms: C_30  and  O_31
REMARK                            x       y       z     vdW  Elec       q    Type
REMARK                         _______ _______ _______ _____ _____    ______ ____
ROOT
ATOM      1  O   UNL     1       2.118  10.157  17.302  0.00  0.00    +0.000 OA
ATOM      2  C   UNL     1       1.752   9.558  18.310  0.00  0.00    +0.000 A 
ATOM      3  C   UNL     1       2.210   8.180  18.530  0.00  0.00    +0.000 A 
ATOM      4  C   UNL     1       1.997   7.624  19.725  0.00  0.00    +0.000 A 
ATOM      5  O   UNL     1       1.412   8.253  20.812  0.00  0.00    +0.000 OA
ATOM      6  C   UNL     1       0.777   9.456  20.581  0.00  0.00    +0.000 A 
ATOM      7  C   UNL     1       0.011   9.993  21.634  0.00  0.00    +0.000 A 
ATOM      8  C   UNL     1      -0.739  11.152  21.418  0.00  0.00    +0.000 A 
ATOM      9  C   UNL     1      -0.733  11.746  20.153  0.00  0.00    +0.000 A 
ATOM     10  C   UNL     1       0.100  11.262  19.146  0.00  0.00    +0.000 A 
ATOM     11  C   UNL     1       0.862  10.115  19.351  0.00  0.00    +0.000 A 
ENDROOT
BRANCH   4  12
ATOM     12  C   UNL     1       2.362   6.222  19.930  0.00  0.00    +0.000 A 
ATOM     13  C   UNL     1       3.595   5.726  19.481  0.00  0.00    +0.000 A 
ATOM     14  C   UNL     1       3.908   4.371  19.627  0.00  0.00    +0.000 A 
ATOM     15  C   UNL     1       2.980   3.521  20.217  0.00  0.00    +0.000 A 
ATOM     16  C   UNL     1       1.749   4.009  20.649  0.00  0.00    +0.000 A 
ATOM     17  C   UNL     1       1.430   5.350  20.510  0.00  0.00    +0.000 A 
BRANCH  15  18
ATOM     18  O   UNL     1       3.230   2.188  20.390  0.00  0.00    +0.000 OA
ATOM     19  H   UNL     1       2.955   1.722  19.582  0.00  0.00    +0.000 HD
ENDBRANCH  15  18
BRANCH  16  20
ATOM     20  O   UNL     1       0.836   3.163  21.209  0.00  0.00    +0.000 OA
ATOM     21  H   UNL     1      -0.030   3.486  20.888  0.00  0.00    +0.000 HD
ENDBRANCH  16  20
ENDBRANCH   4  12
BRANCH  10  22
ATOM     22  O   UNL     1       0.125  11.917  17.950  0.00  0.00    +0.000 OA
ATOM     23  H   UNL     1       0.589  12.764  18.039  0.00  0.00    +0.000 HD
ENDBRANCH  10  22
BRANCH   8  24
ATOM     24  O   UNL     1      -1.504  11.823  22.335  0.00  0.00    +0.000 OA
BRANCH  24  25
ATOM     25  C   UNL     1      -2.062  13.099  21.963  0.00  0.00    +0.000 C 
ATOM     26  O   UNL     1      -3.481  13.184  22.122  0.00  0.00    +0.000 OA
ATOM     27  C   UNL     1      -3.914  12.962  23.476  0.00  0.00    +0.000 C 
ATOM     28  C   UNL     1      -3.323  13.996  24.448  0.00  0.00    +0.000 C 
ATOM     29  C   UNL     1      -1.795  14.093  24.285  0.00  0.00    +0.000 C 
ATOM     30  C   UNL     1      -1.387  14.214  22.805  0.00  0.00    +0.000 C 
BRANCH  28  31
ATOM     31  O   UNL     1      -3.638  13.648  25.808  0.00  0.00    +0.000 OA
ATOM     32  H   UNL     1      -2.820  13.577  26.331  0.00  0.00    +0.000 HD
ENDBRANCH  28  31
BRANCH  29  33
ATOM     33  O   UNL     1      -1.304  15.219  25.035  0.00  0.00    +0.000 OA
ATOM     34  H   UNL     1      -0.330  15.168  25.073  0.00  0.00    +0.000 HD
ENDBRANCH  29  33
BRANCH  30  35
ATOM     35  O   UNL     1       0.040  14.181  22.656  0.00  0.00    +0.000 OA
ATOM     36  H   UNL     1       0.295  14.896  22.046  0.00  0.00    +0.000 HD
ENDBRANCH  30  35
BRANCH  27  37
ATOM     37  C   UNL     1      -5.446  12.939  23.448  0.00  0.00    +0.000 C 
BRANCH  37  38
ATOM     38  O   UNL     1      -5.998  14.058  24.138  0.00  0.00    +0.000 OA
ATOM     39  H   UNL     1      -6.946  13.860  24.252  0.00  0.00    +0.000 HD
ENDBRANCH  37  38
ENDBRANCH  27  37
ENDBRANCH  24  25
ENDBRANCH   8  24
TORSDOF 11
ENDMDL
MODEL 9
REMARK VINA RESULT:      -7.4      2.555      9.675
REMARK  Name = 
REMARK  11 active torsions:
REMARK  status: ('A' for Active; 'I' for Inactive)
REMARK    1  A    between atoms: C_4  and  C_5
REMARK    2  A    between atoms: C_8  and  O_9
REMARK    3  A    between atoms: C_10  and  O_11
REMARK    4  A    between atoms: C_16  and  O_17
REMARK    5  A    between atoms: O_17  and  C_18
REMARK    6  A    between atoms: C_20  and  C_21
REMARK    7  A    between atoms: C_21  and  O_22
REMARK    8  A    between atoms: C_23  and  O_24
REMARK    9  A    between atoms: C_25  and  O_26
REMARK   10  A    between atoms: C_27  and  O_28
REMARK   11  A    between atoms: C_30  and  O_31
REMARK                            x       y       z     vdW  Elec       q    Type
REMARK                         _______ _______ _______ _____ _____    ______ ____
ROOT
ATOM      1  O   UNL     1      -0.402  11.796  22.921  0.00  0.00    +0.000 OA
ATOM      2  C   UNL     1      -0.620  11.227  21.855  0.00  0.00    +0.000 A 
ATOM      3  C   UNL     1      -1.749  11.667  21.025  0.00  0.00    +0.000 A 
ATOM      4  C   UNL     1      -1.839  11.202  19.777  0.00  0.00    +0.000 A 
ATOM      5  O   UNL     1      -0.925  10.361  19.165  0.00  0.00    +0.000 OA
ATOM      6  C   UNL     1       0.017   9.756  19.970  0.00  0.00    +0.000 A 
ATOM      7  C   UNL     1       0.813   8.750  19.389  0.00  0.00    +0.000 A 
ATOM      8  C   UNL     1       1.706   8.031  20.187  0.00  0.00    +0.000 A 
ATOM      9  C   UNL     1       1.780   8.310  21.554  0.00  0.00    +0.000 A 
ATOM     10  C   UNL     1       1.059   9.369  22.103  0.00  0.00    +0.000 A 
ATOM     11  C   UNL     1       0.174  10.101  21.316  0.00  0.00    +0.000 A 
ENDROOT
BRANCH   4  12
ATOM     12  C   UNL     1      -3.008  11.558  18.971  0.00  0.00    +0.000 A 
ATOM     13  C   UNL     1      -4.049  12.326  19.512  0.00  0.00    +0.000 A 
ATOM     14  C   UNL     1      -5.189  12.607  18.752  0.00  0.00    +0.000 A 
ATOM     15  C   UNL     1      -5.279  12.112  17.456  0.00  0.00    +0.000 A 
ATOM     16  C   UNL     1      -4.252  11.336  16.924  0.00  0.00    +0.000 A 
ATOM     17  C   UNL     1      -3.118  11.052  17.668  0.00  0.00    +0.000 A 
BRANCH  15  18
ATOM     18  O   UNL     1      -6.365  12.356  16.664  0.00  0.00    +0.000 OA
ATOM     19  H   UNL     1      -6.783  11.503  16.452  0.00  0.00    +0.000 HD
ENDBRANCH  15  18
BRANCH  16  20
ATOM     20  O   UNL     1      -4.358  10.837  15.657  0.00  0.00    +0.000 OA
ATOM     21  H   UNL     1      -4.987  11.437  15.208  0.00  0.00    +0.000 HD
ENDBRANCH  16  20
ENDBRANCH   4  12
BRANCH  10  22
ATOM     22  O   UNL     1       1.218   9.648  23.428  0.00  0.00    +0.000 OA
ATOM     23  H   UNL     1       1.636  10.515  23.542  0.00  0.00    +0.000 HD
ENDBRANCH  10  22
BRANCH   8  24
ATOM     24  O   UNL     1       2.574   7.052  19.780  0.00  0.00    +0.000 OA
BRANCH  24  25
ATOM     25  C   UNL     1       2.126   6.105  18.790  0.00  0.00    +0.000 C 
ATOM     26  O   UNL     1       2.981   6.009  17.647  0.00  0.00    +0.000 OA
ATOM     27  C   UNL     1       4.323   5.608  17.974  0.00  0.00    +0.000 C 
ATOM     28  C   UNL     1       4.366   4.225  18.643  0.00  0.00    +0.000 C 
ATOM     29  C   UNL     1       3.384   4.156  19.827  0.00  0.00    +0.000 C 
ATOM     30  C   UNL     1       1.996   4.706  19.447  0.00  0.00    +0.000 C 
BRANCH  28  31
ATOM     31  O   UNL     1       5.696   3.930  19.108  0.00  0.00    +0.000 OA
ATOM     32  H   UNL     1       5.790   2.973  19.260  0.00  0.00    +0.000 HD
ENDBRANCH  28  31
BRANCH  29  33
ATOM     33  O   UNL     1       3.278   2.796  20.284  0.00  0.00    +0.000 OA
ATOM     34  H   UNL     1       3.646   2.741  21.186  0.00  0.00    +0.000 HD
ENDBRANCH  29  33
BRANCH  30  35
ATOM     35  O   UNL     1       1.126   4.750  20.588  0.00  0.00    +0.000 OA
ATOM     36  H   UNL     1       1.414   5.484  21.158  0.00  0.00    +0.000 HD
ENDBRANCH  30  35
BRANCH  27  37
ATOM     37  C   UNL     1       5.136   5.698  16.678  0.00  0.00    +0.000 C 
BRANCH  37  38
ATOM     38  O   UNL     1       5.533   4.407  16.221  0.00  0.00    +0.000 OA
ATOM     39  H   UNL     1       5.047   4.257  15.388  0.00  0.00    +0.000 HD
ENDBRANCH  37  38
ENDBRANCH  27  37
ENDBRANCH  24  25
ENDBRANCH   8  24
TORSDOF 11
ENDMDL
