MODEL 1
REMARK VINA RESULT:      -3.8      0.000      0.000
REMARK  Name = 
REMARK  3 active torsions:
REMARK  status: ('A' for Active; 'I' for Inactive)
REMARK    1  A    between atoms: C_1  and  C_2
REMARK    2  A    between atoms: N_3  and  C_4
REMARK    3  A    between atoms: N_7  and  C_8
REMARK                            x       y       z     vdW  Elec       q    Type
REMARK                         _______ _______ _______ _____ _____    ______ ____
ROOT
ATOM      1  C   UNL     1       1.739   4.380  17.749  0.00  0.00    +0.000 C 
ATOM      2  C   UNL     1       3.243   4.268  17.596  0.00  0.00    +0.000 C 
ATOM      3  N   UNL     1       3.926   5.469  18.191  0.00  0.00    +0.000 N 
ATOM      4  C   UNL     1       3.753   6.846  17.706  0.00  0.00    +0.000 C 
ATOM      5  C   UNL     1       4.681   5.087  19.154  0.00  0.00    +0.000 C 
ATOM      6  C   UNL     1       4.590   3.614  19.306  0.00  0.00    +0.000 C 
ATOM      7  N   UNL     1       3.781   3.139  18.433  0.00  0.00    +0.000 N 
ATOM      8  C   UNL     1       3.440   1.724  18.214  0.00  0.00    +0.000 C 
ENDROOT
TORSDOF 0
ENDMDL
MODEL 2
REMARK VINA RESULT:      -3.8      1.139      3.026
REMARK  Name = 
REMARK  3 active torsions:
REMARK  status: ('A' for Active; 'I' for Inactive)
REMARK    1  A    between atoms: C_1  and  C_2
REMARK    2  A    between atoms: N_3  and  C_4
REMARK    3  A    between atoms: N_7  and  C_8
REMARK                            x       y       z     vdW  Elec       q    Type
REMARK                         _______ _______ _______ _____ _____    ______ ____
ROOT
ATOM      1  C   UNL     1       1.660   4.265  17.726  0.00  0.00    +0.000 C 
ATOM      2  C   UNL     1       2.467   4.134  19.003  0.00  0.00    +0.000 C 
ATOM      3  N   UNL     1       3.613   3.180  18.809  0.00  0.00    +0.000 N 
ATOM      4  C   UNL     1       3.458   1.752  18.492  0.00  0.00    +0.000 C 
ATOM      5  C   UNL     1       4.716   3.809  18.986  0.00  0.00    +0.000 C 
ATOM      6  C   UNL     1       4.434   5.228  19.314  0.00  0.00    +0.000 C 
ATOM      7  N   UNL     1       3.168   5.426  19.326  0.00  0.00    +0.000 N 
ATOM      8  C   UNL     1       2.467   6.679  19.647  0.00  0.00    +0.000 C 
ENDROOT
TORSDOF 0
ENDMDL
MODEL 3
REMARK VINA RESULT:      -3.7      2.057      3.431
REMARK  Name = 
REMARK  3 active torsions:
REMARK  status: ('A' for Active; 'I' for Inactive)
REMARK    1  A    between atoms: C_1  and  C_2
REMARK    2  A    between atoms: N_3  and  C_4
REMARK    3  A    between atoms: N_7  and  C_8
REMARK                            x       y       z     vdW  Elec       q    Type
REMARK                         _______ _______ _______ _____ _____    ______ ____
ROOT
ATOM      1  C   UNL     1       2.991   5.041  19.835  0.00  0.00    +0.000 C 
ATOM      2  C   UNL     1       3.251   3.557  19.664  0.00  0.00    +0.000 C 
ATOM      3  N   UNL     1       2.056   2.757  20.104  0.00  0.00    +0.000 N 
ATOM      4  C   UNL     1       1.532   2.737  21.477  0.00  0.00    +0.000 C 
ATOM      5  C   UNL     1       1.602   2.097  19.103  0.00  0.00    +0.000 C 
ATOM      6  C   UNL     1       2.431   2.377  17.903  0.00  0.00    +0.000 C 
ATOM      7  N   UNL     1       3.365   3.200  18.206  0.00  0.00    +0.000 N 
ATOM      8  C   UNL     1       4.427   3.705  17.321  0.00  0.00    +0.000 C 
ENDROOT
TORSDOF 0
ENDMDL
MODEL 4
REMARK VINA RESULT:      -3.7      1.791      2.920
REMARK  Name = 
REMARK  3 active torsions:
REMARK  status: ('A' for Active; 'I' for Inactive)
REMARK    1  A    between atoms: C_1  and  C_2
REMARK    2  A    between atoms: N_3  and  C_4
REMARK    3  A    between atoms: N_7  and  C_8
REMARK                            x       y       z     vdW  Elec       q    Type
REMARK                         _______ _______ _______ _____ _____    ______ ____
ROOT
ATOM      1  C   UNL     1       1.477   4.009  17.973  0.00  0.00    +0.000 C 
ATOM      2  C   UNL     1       2.478   4.330  19.065  0.00  0.00    +0.000 C 
ATOM      3  N   UNL     1       2.488   3.248  20.109  0.00  0.00    +0.000 N 
ATOM      4  C   UNL     1       1.336   2.901  20.954  0.00  0.00    +0.000 C 
ATOM      5  C   UNL     1       3.652   2.712  20.145  0.00  0.00    +0.000 C 
ATOM      6  C   UNL     1       4.534   3.367  19.148  0.00  0.00    +0.000 C 
ATOM      7  N   UNL     1       3.884   4.283  18.531  0.00  0.00    +0.000 N 
ATOM      8  C   UNL     1       4.398   5.195  17.497  0.00  0.00    +0.000 C 
ENDROOT
TORSDOF 0
ENDMDL
MODEL 5
REMARK VINA RESULT:      -3.7      2.098      3.132
REMARK  Name = 
REMARK  3 active torsions:
REMARK  status: ('A' for Active; 'I' for Inactive)
REMARK    1  A    between atoms: C_1  and  C_2
REMARK    2  A    between atoms: N_3  and  C_4
REMARK    3  A    between atoms: N_7  and  C_8
REMARK                            x       y       z     vdW  Elec       q    Type
REMARK                         _______ _______ _______ _____ _____    ______ ____
ROOT
ATOM      1  C   UNL     1       1.065   2.519  18.585  0.00  0.00    +0.000 C 
ATOM      2  C   UNL     1       2.113   3.389  19.252  0.00  0.00    +0.000 C 
ATOM      3  N   UNL     1       2.493   2.825  20.592  0.00  0.00    +0.000 N 
ATOM      4  C   UNL     1       1.566   2.682  21.725  0.00  0.00    +0.000 C 
ATOM      5  C   UNL     1       3.738   2.520  20.581  0.00  0.00    +0.000 C 
ATOM      6  C   UNL     1       4.319   2.843  19.254  0.00  0.00    +0.000 C 
ATOM      7  N   UNL     1       3.412   3.333  18.493  0.00  0.00    +0.000 N 
ATOM      8  C   UNL     1       3.576   3.822  17.115  0.00  0.00    +0.000 C 
ENDROOT
TORSDOF 0
ENDMDL
MODEL 6
REMARK VINA RESULT:      -3.7      2.224      2.399
REMARK  Name = 
REMARK  3 active torsions:
REMARK  status: ('A' for Active; 'I' for Inactive)
REMARK    1  A    between atoms: C_1  and  C_2
REMARK    2  A    between atoms: N_3  and  C_4
REMARK    3  A    between atoms: N_7  and  C_8
REMARK                            x       y       z     vdW  Elec       q    Type
REMARK                         _______ _______ _______ _____ _____    ______ ____
ROOT
ATOM      1  C   UNL     1       1.989   5.525  20.419  0.00  0.00    +0.000 C 
ATOM      2  C   UNL     1       2.156   4.238  19.634  0.00  0.00    +0.000 C 
ATOM      3  N   UNL     1       3.374   4.309  18.755  0.00  0.00    +0.000 N 
ATOM      4  C   UNL     1       3.547   5.268  17.654  0.00  0.00    +0.000 C 
ATOM      5  C   UNL     1       4.202   3.397  19.112  0.00  0.00    +0.000 C 
ATOM      6  C   UNL     1       3.638   2.628  20.248  0.00  0.00    +0.000 C 
ATOM      7  N   UNL     1       2.483   3.092  20.554  0.00  0.00    +0.000 N 
ATOM      8  C   UNL     1       1.570   2.590  21.592  0.00  0.00    +0.000 C 
ENDROOT
TORSDOF 0
ENDMDL
MODEL 7
REMARK VINA RESULT:      -3.7      2.001      3.042
REMARK  Name = 
REMARK  3 active torsions:
REMARK  status: ('A' for Active; 'I' for Inactive)
REMARK    1  A    between atoms: C_1  and  C_2
REMARK    2  A    between atoms: N_3  and  C_4
REMARK    3  A    between atoms: N_7  and  C_8
REMARK                            x       y       z     vdW  Elec       q    Type
REMARK                         _______ _______ _______ _____ _____    ______ ____
ROOT
ATOM      1  C   UNL     1       4.271   2.601  19.780  0.00  0.00    +0.000 C 
ATOM      2  C   UNL     1       3.188   3.660  19.722  0.00  0.00    +0.000 C 
ATOM      3  N   UNL     1       2.884   4.027  18.295  0.00  0.00    +0.000 N 
ATOM      4  C   UNL     1       3.850   4.642  17.374  0.00  0.00    +0.000 C 
ATOM      5  C   UNL     1       1.661   3.738  18.040  0.00  0.00    +0.000 C 
ATOM      6  C   UNL     1       1.023   3.157  19.247  0.00  0.00    +0.000 C 
ATOM      7  N   UNL     1       1.874   3.107  20.204  0.00  0.00    +0.000 N 
ATOM      8  C   UNL     1       1.639   2.639  21.579  0.00  0.00    +0.000 C 
ENDROOT
TORSDOF 0
ENDMDL
MODEL 8
REMARK VINA RESULT:      -3.6      1.439      1.916
REMARK  Name = 
REMARK  3 active torsions:
REMARK  status: ('A' for Active; 'I' for Inactive)
REMARK    1  A    between atoms: C_1  and  C_2
REMARK    2  A    between atoms: N_3  and  C_4
REMARK    3  A    between atoms: N_7  and  C_8
REMARK                            x       y       z     vdW  Elec       q    Type
REMARK                         _______ _______ _______ _____ _____    ______ ____
ROOT
ATOM      1  C   UNL     1       2.271   5.149  17.956  0.00  0.00    +0.000 C 
ATOM      2  C   UNL     1       2.921   3.780  17.909  0.00  0.00    +0.000 C 
ATOM      3  N   UNL     1       4.341   3.853  18.400  0.00  0.00    +0.000 N 
ATOM      4  C   UNL     1       5.405   4.629  17.747  0.00  0.00    +0.000 C 
ATOM      5  C   UNL     1       4.461   3.120  19.445  0.00  0.00    +0.000 C 
ATOM      6  C   UNL     1       3.157   2.486  19.762  0.00  0.00    +0.000 C 
ATOM      7  N   UNL     1       2.279   2.851  18.904  0.00  0.00    +0.000 N 
ATOM      8  C   UNL     1       0.874   2.420  18.831  0.00  0.00    +0.000 C 
ENDROOT
TORSDOF 0
ENDMDL
MODEL 9
REMARK VINA RESULT:      -3.6      1.370      1.416
REMARK  Name = 
REMARK  3 active torsions:
REMARK  status: ('A' for Active; 'I' for Inactive)
REMARK    1  A    between atoms: C_1  and  C_2
REMARK    2  A    between atoms: N_3  and  C_4
REMARK    3  A    between atoms: N_7  and  C_8
REMARK                            x       y       z     vdW  Elec       q    Type
REMARK                         _______ _______ _______ _____ _____    ______ ____
ROOT
ATOM      1  C   UNL     1       1.216   3.845  19.869  0.00  0.00    +0.000 C 
ATOM      2  C   UNL     1       2.271   4.268  18.866  0.00  0.00    +0.000 C 
ATOM      3  N   UNL     1       3.004   5.487  19.352  0.00  0.00    +0.000 N 
ATOM      4  C   UNL     1       2.375   6.796  19.583  0.00  0.00    +0.000 C 
ATOM      5  C   UNL     1       4.244   5.197  19.504  0.00  0.00    +0.000 C 
ATOM      6  C   UNL     1       4.473   3.777  19.141  0.00  0.00    +0.000 C 
ATOM      7  N   UNL     1       3.367   3.240  18.779  0.00  0.00    +0.000 N 
ATOM      8  C   UNL     1       3.161   1.864  18.302  0.00  0.00    +0.000 C 
ENDROOT
TORSDOF 0
ENDMDL
