MODEL 1
REMARK VINA RESULT:      -8.0      0.000      0.000
REMARK  Name = 
REMARK  7 active torsions:
REMARK  status: ('A' for Active; 'I' for Inactive)
REMARK    1  A    between atoms: C_1  and  C_2
REMARK    2  A    between atoms: C_2  and  C_3
REMARK    3  A    between atoms: C_2  and  C_4
REMARK    4  A    between atoms: N_10  and  C_11
REMARK    5  A    between atoms: C_18  and  C_19
REMARK    6  A    between atoms: N_24  and  C_25
REMARK    7  A    between atoms: N_28  and  C_29
REMARK                            x       y       z     vdW  Elec       q    Type
REMARK                         _______ _______ _______ _____ _____    ______ ____
ROOT
ATOM      1  C   UNL     1      -3.045  12.735  20.076  0.00  0.00    +0.000 C 
ATOM      2  C   UNL     1      -4.443  12.122  19.877  0.00  0.00    +0.000 C 
ATOM      3  C   UNL     1      -4.935  12.129  18.428  0.00  0.00    +0.000 C 
ATOM      4  C   UNL     1      -4.172  11.203  17.487  0.00  0.00    +0.000 C 
ATOM      5  C   UNL     1      -2.716  11.608  17.291  0.00  0.00    +0.000 C 
ATOM      6  C   UNL     1      -1.814  11.200  18.433  0.00  0.00    +0.000 A 
ATOM      7  C   UNL     1      -0.773  10.290  18.149  0.00  0.00    +0.000 A 
ATOM      8  C   UNL     1       0.186   9.913  19.104  0.00  0.00    +0.000 A 
ATOM      9  C   UNL     1       0.037  10.435  20.393  0.00  0.00    +0.000 A 
ATOM     10  C   UNL     1      -1.002  11.320  20.699  0.00  0.00    +0.000 A 
ATOM     11  C   UNL     1      -1.941  11.730  19.734  0.00  0.00    +0.000 A 
ENDROOT
BRANCH   1  18
ATOM     12  C   UNL     1      -2.712  16.399  24.935  0.00  0.00    +0.000 C 
ATOM     13  C   UNL     1      -2.968  14.955  25.386  0.00  0.00    +0.000 C 
ATOM     14  C   UNL     1      -2.626  14.090  24.179  0.00  0.00    +0.000 C 
ATOM     15  N   UNL     1      -2.865  14.945  23.034  0.00  0.00    +0.000 N 
ATOM     16  C   UNL     1      -3.072  14.587  21.726  0.00  0.00    +0.000 C 
ATOM     17  O   UNL     1      -3.371  15.408  20.862  0.00  0.00    +0.000 OA
ATOM     18  N   UNL     1      -2.947  13.248  21.448  0.00  0.00    +0.000 N 
ATOM     19  C   UNL     1      -3.013  16.339  23.430  0.00  0.00    +0.000 C 
ATOM     20  H   UNL     1      -2.414  12.697  22.100  0.00  0.00    +0.000 HD
BRANCH  12  22
ATOM     21  C   UNL     1      -0.681  16.318  26.485  0.00  0.00    +0.000 C 
ATOM     22  C   UNL     1      -1.329  17.014  25.282  0.00  0.00    +0.000 C 
ATOM     23  C   UNL     1      -0.328  17.083  24.128  0.00  0.00    +0.000 C 
ENDBRANCH  12  22
ENDBRANCH   1  18
BRANCH   8  24
ATOM     24  C   UNL     1       1.321   9.034  18.765  0.00  0.00    +0.000 A 
ATOM     25  C   UNL     1       2.130   9.271  17.671  0.00  0.00    +0.000 A 
ATOM     26  C   UNL     1       3.152   8.385  17.466  0.00  0.00    +0.000 A 
ATOM     27  N   UNL     1       3.370   7.326  18.256  0.00  0.00    +0.000 NA
ATOM     28  C   UNL     1       2.542   7.146  19.295  0.00  0.00    +0.000 A 
ATOM     29  N   UNL     1       2.650   6.006  20.099  0.00  0.00    +0.000 N 
ATOM     30  N   UNL     1       1.535   7.983  19.593  0.00  0.00    +0.000 NA
ATOM     31  H   UNL     1       1.909   6.046  20.786  0.00  0.00    +0.000 HD
BRANCH  29  32
ATOM     32  C   UNL     1       3.287   4.850  19.819  0.00  0.00    +0.000 A 
ATOM     33  C   UNL     1       4.667   4.558  19.780  0.00  0.00    +0.000 A 
ATOM     34  N   UNL     1       4.910   3.303  19.390  0.00  0.00    +0.000 NA
ATOM     35  N   UNL     1       3.681   2.799  19.181  0.00  0.00    +0.000 N 
ATOM     36  C   UNL     1       3.536   1.453  18.687  0.00  0.00    +0.000 C 
ATOM     37  C   UNL     1       2.671   3.678  19.454  0.00  0.00    +0.000 A 
ENDBRANCH  29  32
ENDBRANCH   8  24
TORSDOF 4
ENDMDL
MODEL 2
REMARK VINA RESULT:      -7.9      2.626      3.783
REMARK  Name = 
REMARK  7 active torsions:
REMARK  status: ('A' for Active; 'I' for Inactive)
REMARK    1  A    between atoms: C_1  and  C_2
REMARK    2  A    between atoms: C_2  and  C_3
REMARK    3  A    between atoms: C_2  and  C_4
REMARK    4  A    between atoms: N_10  and  C_11
REMARK    5  A    between atoms: C_18  and  C_19
REMARK    6  A    between atoms: N_24  and  C_25
REMARK    7  A    between atoms: N_28  and  C_29
REMARK                            x       y       z     vdW  Elec       q    Type
REMARK                         _______ _______ _______ _____ _____    ______ ____
ROOT
ATOM      1  C   UNL     1      -1.061  14.823  20.196  0.00  0.00    +0.000 C 
ATOM      2  C   UNL     1      -0.934  15.881  19.084  0.00  0.00    +0.000 C 
ATOM      3  C   UNL     1       0.405  16.620  19.066  0.00  0.00    +0.000 C 
ATOM      4  C   UNL     1       1.605  15.766  18.670  0.00  0.00    +0.000 C 
ATOM      5  C   UNL     1       1.911  14.656  19.668  0.00  0.00    +0.000 C 
ATOM      6  C   UNL     1       1.004  13.454  19.535  0.00  0.00    +0.000 A 
ATOM      7  C   UNL     1       1.599  12.223  19.188  0.00  0.00    +0.000 A 
ATOM      8  C   UNL     1       0.875  11.020  19.130  0.00  0.00    +0.000 A 
ATOM      9  C   UNL     1      -0.500  11.095  19.376  0.00  0.00    +0.000 A 
ATOM     10  C   UNL     1      -1.112  12.310  19.700  0.00  0.00    +0.000 A 
ATOM     11  C   UNL     1      -0.382  13.510  19.796  0.00  0.00    +0.000 A 
ENDROOT
BRANCH   1  18
ATOM     12  C   UNL     1      -6.381  14.576  23.159  0.00  0.00    +0.000 C 
ATOM     13  C   UNL     1      -6.622  14.511  21.645  0.00  0.00    +0.000 C 
ATOM     14  C   UNL     1      -5.269  14.166  21.036  0.00  0.00    +0.000 C 
ATOM     15  N   UNL     1      -4.298  14.691  21.975  0.00  0.00    +0.000 N 
ATOM     16  C   UNL     1      -2.975  14.986  21.765  0.00  0.00    +0.000 C 
ATOM     17  O   UNL     1      -2.281  15.531  22.621  0.00  0.00    +0.000 OA
ATOM     18  N   UNL     1      -2.481  14.655  20.527  0.00  0.00    +0.000 N 
ATOM     19  C   UNL     1      -4.920  15.041  23.246  0.00  0.00    +0.000 C 
ATOM     20  H   UNL     1      -2.987  13.958  20.008  0.00  0.00    +0.000 HD
BRANCH  12  22
ATOM     21  C   UNL     1      -7.692  12.385  23.260  0.00  0.00    +0.000 C 
ATOM     22  C   UNL     1      -6.691  13.297  23.981  0.00  0.00    +0.000 C 
ATOM     23  C   UNL     1      -5.474  12.480  24.416  0.00  0.00    +0.000 C 
ENDBRANCH  12  22
ENDBRANCH   1  18
BRANCH   8  24
ATOM     24  C   UNL     1       1.531   9.727  18.856  0.00  0.00    +0.000 A 
ATOM     25  C   UNL     1       2.170   9.468  17.660  0.00  0.00    +0.000 A 
ATOM     26  C   UNL     1       2.743   8.233  17.531  0.00  0.00    +0.000 A 
ATOM     27  N   UNL     1       2.688   7.298  18.488  0.00  0.00    +0.000 NA
ATOM     28  C   UNL     1       2.044   7.609  19.622  0.00  0.00    +0.000 A 
ATOM     29  N   UNL     1       1.861   6.646  20.621  0.00  0.00    +0.000 N 
ATOM     30  N   UNL     1       1.482   8.807  19.850  0.00  0.00    +0.000 NA
ATOM     31  H   UNL     1       1.317   7.072  21.359  0.00  0.00    +0.000 HD
BRANCH  29  32
ATOM     32  C   UNL     1       1.969   5.306  20.512  0.00  0.00    +0.000 A 
ATOM     33  C   UNL     1       0.978   4.304  20.596  0.00  0.00    +0.000 A 
ATOM     34  N   UNL     1       1.492   3.073  20.507  0.00  0.00    +0.000 NA
ATOM     35  N   UNL     1       2.811   3.296  20.366  0.00  0.00    +0.000 N 
ATOM     36  C   UNL     1       3.720   2.180  20.293  0.00  0.00    +0.000 C 
ATOM     37  C   UNL     1       3.146   4.620  20.333  0.00  0.00    +0.000 A 
ENDBRANCH  29  32
ENDBRANCH   8  24
TORSDOF 4
ENDMDL
MODEL 3
REMARK VINA RESULT:      -7.9      2.726      3.766
REMARK  Name = 
REMARK  7 active torsions:
REMARK  status: ('A' for Active; 'I' for Inactive)
REMARK    1  A    between atoms: C_1  and  C_2
REMARK    2  A    between atoms: C_2  and  C_3
REMARK    3  A    between atoms: C_2  and  C_4
REMARK    4  A    between atoms: N_10  and  C_11
REMARK    5  A    between atoms: C_18  and  C_19
REMARK    6  A    between atoms: N_24  and  C_25
REMARK    7  A    between atoms: N_28  and  C_29
REMARK                            x       y       z     vdW  Elec       q    Type
REMARK                         _______ _______ _______ _____ _____    ______ ____
ROOT
ATOM      1  C   UNL     1      -0.500  14.777  19.931  0.00  0.00    +0.000 C 
ATOM      2  C   UNL     1      -0.329  15.762  18.760  0.00  0.00    +0.000 C 
ATOM      3  C   UNL     1       1.055  16.410  18.676  0.00  0.00    +0.000 C 
ATOM      4  C   UNL     1       2.187  15.458  18.307  0.00  0.00    +0.000 C 
ATOM      5  C   UNL     1       2.442  14.386  19.358  0.00  0.00    +0.000 C 
ATOM      6  C   UNL     1       1.456  13.241  19.310  0.00  0.00    +0.000 A 
ATOM      7  C   UNL     1       1.963  11.956  19.020  0.00  0.00    +0.000 A 
ATOM      8  C   UNL     1       1.161  10.802  19.042  0.00  0.00    +0.000 A 
ATOM      9  C   UNL     1      -0.200  10.981  19.310  0.00  0.00    +0.000 A 
ATOM     10  C   UNL     1      -0.725  12.250  19.576  0.00  0.00    +0.000 A 
ATOM     11  C   UNL     1       0.084  13.402  19.592  0.00  0.00    +0.000 A 
ENDROOT
BRANCH   1  18
ATOM     12  C   UNL     1      -5.720  14.467  23.061  0.00  0.00    +0.000 C 
ATOM     13  C   UNL     1      -6.007  14.847  21.602  0.00  0.00    +0.000 C 
ATOM     14  C   UNL     1      -4.736  14.498  20.838  0.00  0.00    +0.000 C 
ATOM     15  N   UNL     1      -3.675  14.612  21.817  0.00  0.00    +0.000 N 
ATOM     16  C   UNL     1      -2.328  14.769  21.608  0.00  0.00    +0.000 C 
ATOM     17  O   UNL     1      -1.540  14.962  22.530  0.00  0.00    +0.000 OA
ATOM     18  N   UNL     1      -1.921  14.721  20.297  0.00  0.00    +0.000 N 
ATOM     19  C   UNL     1      -4.205  14.686  23.172  0.00  0.00    +0.000 C 
ATOM     20  H   UNL     1      -2.537  14.266  19.646  0.00  0.00    +0.000 HD
BRANCH  12  22
ATOM     21  C   UNL     1      -5.260  12.475  24.595  0.00  0.00    +0.000 C 
ATOM     22  C   UNL     1      -6.196  13.067  23.534  0.00  0.00    +0.000 C 
ATOM     23  C   UNL     1      -7.642  12.992  24.026  0.00  0.00    +0.000 C 
ENDBRANCH  12  22
ENDBRANCH   1  18
BRANCH   8  24
ATOM     24  C   UNL     1       1.726   9.455  18.829  0.00  0.00    +0.000 A 
ATOM     25  C   UNL     1       2.363   9.106  17.655  0.00  0.00    +0.000 A 
ATOM     26  C   UNL     1       2.847   7.829  17.582  0.00  0.00    +0.000 A 
ATOM     27  N   UNL     1       2.709   6.938  18.572  0.00  0.00    +0.000 NA
ATOM     28  C   UNL     1       2.071   7.337  19.682  0.00  0.00    +0.000 A 
ATOM     29  N   UNL     1       1.803   6.429  20.711  0.00  0.00    +0.000 N 
ATOM     30  N   UNL     1       1.595   8.580  19.855  0.00  0.00    +0.000 NA
ATOM     31  H   UNL     1       1.279   6.920  21.423  0.00  0.00    +0.000 HD
BRANCH  29  32
ATOM     32  C   UNL     1       1.815   5.081  20.654  0.00  0.00    +0.000 A 
ATOM     33  C   UNL     1       2.308   4.136  21.581  0.00  0.00    +0.000 A 
ATOM     34  N   UNL     1       2.203   2.881  21.131  0.00  0.00    +0.000 NA
ATOM     35  N   UNL     1       1.642   3.033  19.918  0.00  0.00    +0.000 N 
ATOM     36  C   UNL     1       1.419   1.876  19.086  0.00  0.00    +0.000 C 
ATOM     37  C   UNL     1       1.362   4.331  19.597  0.00  0.00    +0.000 A 
ENDBRANCH  29  32
ENDBRANCH   8  24
TORSDOF 4
ENDMDL
MODEL 4
REMARK VINA RESULT:      -7.9      2.403      4.059
REMARK  Name = 
REMARK  7 active torsions:
REMARK  status: ('A' for Active; 'I' for Inactive)
REMARK    1  A    between atoms: C_1  and  C_2
REMARK    2  A    between atoms: C_2  and  C_3
REMARK    3  A    between atoms: C_2  and  C_4
REMARK    4  A    between atoms: N_10  and  C_11
REMARK    5  A    between atoms: C_18  and  C_19
REMARK    6  A    between atoms: N_24  and  C_25
REMARK    7  A    between atoms: N_28  and  C_29
REMARK                            x       y       z     vdW  Elec       q    Type
REMARK                         _______ _______ _______ _____ _____    ______ ____
ROOT
ATOM      1  C   UNL     1      -1.375  14.108  20.475  0.00  0.00    +0.000 C 
ATOM      2  C   UNL     1      -0.970  15.343  19.648  0.00  0.00    +0.000 C 
ATOM      3  C   UNL     1       0.318  16.022  20.118  0.00  0.00    +0.000 C 
ATOM      4  C   UNL     1       1.589  15.208  19.903  0.00  0.00    +0.000 C 
ATOM      5  C   UNL     1       1.632  13.927  20.725  0.00  0.00    +0.000 C 
ATOM      6  C   UNL     1       0.806  12.803  20.142  0.00  0.00    +0.000 A 
ATOM      7  C   UNL     1       1.486  11.632  19.744  0.00  0.00    +0.000 A 
ATOM      8  C   UNL     1       0.817  10.487  19.279  0.00  0.00    +0.000 A 
ATOM      9  C   UNL     1      -0.575  10.569  19.165  0.00  0.00    +0.000 A 
ATOM     10  C   UNL     1      -1.264  11.729  19.532  0.00  0.00    +0.000 A 
ATOM     11  C   UNL     1      -0.599  12.864  20.034  0.00  0.00    +0.000 A 
ENDROOT
BRANCH   1  18
ATOM     12  C   UNL     1      -7.351  14.168  21.670  0.00  0.00    +0.000 C 
ATOM     13  C   UNL     1      -7.116  13.808  20.198  0.00  0.00    +0.000 C 
ATOM     14  C   UNL     1      -5.646  13.420  20.108  0.00  0.00    +0.000 C 
ATOM     15  N   UNL     1      -5.004  14.158  21.176  0.00  0.00    +0.000 N 
ATOM     16  C   UNL     1      -3.677  14.471  21.325  0.00  0.00    +0.000 C 
ATOM     17  O   UNL     1      -3.273  15.199  22.229  0.00  0.00    +0.000 OA
ATOM     18  N   UNL     1      -2.831  13.938  20.384  0.00  0.00    +0.000 N 
ATOM     19  C   UNL     1      -5.981  14.710  22.105  0.00  0.00    +0.000 C 
ATOM     20  H   UNL     1      -3.160  13.132  19.882  0.00  0.00    +0.000 HD
BRANCH  12  22
ATOM     21  C   UNL     1      -7.795  11.665  21.944  0.00  0.00    +0.000 C 
ATOM     22  C   UNL     1      -7.914  13.052  22.590  0.00  0.00    +0.000 C 
ATOM     23  C   UNL     1      -7.339  13.009  24.006  0.00  0.00    +0.000 C 
ENDBRANCH  12  22
ENDBRANCH   1  18
BRANCH   8  24
ATOM     24  C   UNL     1       1.537   9.240  18.956  0.00  0.00    +0.000 A 
ATOM     25  C   UNL     1       2.102   9.021  17.716  0.00  0.00    +0.000 A 
ATOM     26  C   UNL     1       2.746   7.826  17.543  0.00  0.00    +0.000 A 
ATOM     27  N   UNL     1       2.825   6.894  18.501  0.00  0.00    +0.000 NA
ATOM     28  C   UNL     1       2.246   7.164  19.680  0.00  0.00    +0.000 A 
ATOM     29  N   UNL     1       2.202   6.195  20.687  0.00  0.00    +0.000 N 
ATOM     30  N   UNL     1       1.623   8.323  19.950  0.00  0.00    +0.000 NA
ATOM     31  H   UNL     1       1.686   6.586  21.464  0.00  0.00    +0.000 HD
BRANCH  29  32
ATOM     32  C   UNL     1       2.392   4.865  20.569  0.00  0.00    +0.000 A 
ATOM     33  C   UNL     1       2.171   3.829  21.503  0.00  0.00    +0.000 A 
ATOM     34  N   UNL     1       2.550   2.635  21.035  0.00  0.00    +0.000 NA
ATOM     35  N   UNL     1       3.012   2.916  19.804  0.00  0.00    +0.000 N 
ATOM     36  C   UNL     1       3.572   1.863  18.994  0.00  0.00    +0.000 C 
ATOM     37  C   UNL     1       2.912   4.236  19.465  0.00  0.00    +0.000 A 
ENDBRANCH  29  32
ENDBRANCH   8  24
TORSDOF 4
ENDMDL
MODEL 5
REMARK VINA RESULT:      -7.7      4.287     11.960
REMARK  Name = 
REMARK  7 active torsions:
REMARK  status: ('A' for Active; 'I' for Inactive)
REMARK    1  A    between atoms: C_1  and  C_2
REMARK    2  A    between atoms: C_2  and  C_3
REMARK    3  A    between atoms: C_2  and  C_4
REMARK    4  A    between atoms: N_10  and  C_11
REMARK    5  A    between atoms: C_18  and  C_19
REMARK    6  A    between atoms: N_24  and  C_25
REMARK    7  A    between atoms: N_28  and  C_29
REMARK                            x       y       z     vdW  Elec       q    Type
REMARK                         _______ _______ _______ _____ _____    ______ ____
ROOT
ATOM      1  C   UNL     1       3.364   4.599  18.260  0.00  0.00    +0.000 C 
ATOM      2  C   UNL     1       2.302   3.502  18.459  0.00  0.00    +0.000 C 
ATOM      3  C   UNL     1       2.052   3.123  19.920  0.00  0.00    +0.000 C 
ATOM      4  C   UNL     1       1.383   4.207  20.758  0.00  0.00    +0.000 C 
ATOM      5  C   UNL     1       2.244   5.451  20.935  0.00  0.00    +0.000 C 
ATOM      6  C   UNL     1       2.238   6.369  19.734  0.00  0.00    +0.000 A 
ATOM      7  C   UNL     1       1.719   7.670  19.909  0.00  0.00    +0.000 A 
ATOM      8  C   UNL     1       1.749   8.642  18.894  0.00  0.00    +0.000 A 
ATOM      9  C   UNL     1       2.270   8.250  17.656  0.00  0.00    +0.000 A 
ATOM     10  C   UNL     1       2.767   6.958  17.457  0.00  0.00    +0.000 A 
ATOM     11  C   UNL     1       2.773   5.994  18.483  0.00  0.00    +0.000 A 
ENDROOT
BRANCH   1  18
ATOM     12  C   UNL     1       7.317   4.284  13.632  0.00  0.00    +0.000 C 
ATOM     13  C   UNL     1       5.958   3.720  13.197  0.00  0.00    +0.000 C 
ATOM     14  C   UNL     1       4.965   4.212  14.243  0.00  0.00    +0.000 C 
ATOM     15  N   UNL     1       5.753   4.383  15.447  0.00  0.00    +0.000 N 
ATOM     16  C   UNL     1       5.326   4.446  16.749  0.00  0.00    +0.000 C 
ATOM     17  O   UNL     1       6.110   4.486  17.694  0.00  0.00    +0.000 OA
ATOM     18  N   UNL     1       3.964   4.438  16.929  0.00  0.00    +0.000 N 
ATOM     19  C   UNL     1       7.181   4.347  15.160  0.00  0.00    +0.000 C 
ATOM     20  H   UNL     1       3.400   4.712  16.143  0.00  0.00    +0.000 HD
BRANCH  12  22
ATOM     21  C   UNL     1       9.241   5.931  13.288  0.00  0.00    +0.000 C 
ATOM     22  C   UNL     1       7.771   5.616  12.978  0.00  0.00    +0.000 C 
ATOM     23  C   UNL     1       7.528   5.731  11.473  0.00  0.00    +0.000 C 
ENDBRANCH  12  22
ENDBRANCH   1  18
BRANCH   8  24
ATOM     24  C   UNL     1       1.288  10.024  19.124  0.00  0.00    +0.000 A 
ATOM     25  C   UNL     1       1.917  11.111  18.552  0.00  0.00    +0.000 A 
ATOM     26  C   UNL     1       1.390  12.340  18.839  0.00  0.00    +0.000 A 
ATOM     27  N   UNL     1       0.333  12.512  19.643  0.00  0.00    +0.000 NA
ATOM     28  C   UNL     1      -0.227  11.416  20.175  0.00  0.00    +0.000 A 
ATOM     29  N   UNL     1      -1.268  11.530  21.102  0.00  0.00    +0.000 N 
ATOM     30  N   UNL     1       0.201  10.169  19.921  0.00  0.00    +0.000 NA
ATOM     31  H   UNL     1      -1.508  10.597  21.408  0.00  0.00    +0.000 HD
BRANCH  29  32
ATOM     32  C   UNL     1      -1.631  12.618  21.814  0.00  0.00    +0.000 A 
ATOM     33  C   UNL     1      -2.607  13.600  21.540  0.00  0.00    +0.000 A 
ATOM     34  N   UNL     1      -2.624  14.570  22.460  0.00  0.00    +0.000 NA
ATOM     35  N   UNL     1      -1.656  14.201  23.317  0.00  0.00    +0.000 N 
ATOM     36  C   UNL     1      -1.333  15.050  24.437  0.00  0.00    +0.000 C 
ATOM     37  C   UNL     1      -1.050  13.021  22.991  0.00  0.00    +0.000 A 
ENDBRANCH  29  32
ENDBRANCH   8  24
TORSDOF 4
ENDMDL
MODEL 6
REMARK VINA RESULT:      -7.7      4.291     12.130
REMARK  Name = 
REMARK  7 active torsions:
REMARK  status: ('A' for Active; 'I' for Inactive)
REMARK    1  A    between atoms: C_1  and  C_2
REMARK    2  A    between atoms: C_2  and  C_3
REMARK    3  A    between atoms: C_2  and  C_4
REMARK    4  A    between atoms: N_10  and  C_11
REMARK    5  A    between atoms: C_18  and  C_19
REMARK    6  A    between atoms: N_24  and  C_25
REMARK    7  A    between atoms: N_28  and  C_29
REMARK                            x       y       z     vdW  Elec       q    Type
REMARK                         _______ _______ _______ _____ _____    ______ ____
ROOT
ATOM      1  C   UNL     1       3.847   3.669  19.153  0.00  0.00    +0.000 C 
ATOM      2  C   UNL     1       2.882   2.522  18.799  0.00  0.00    +0.000 C 
ATOM      3  C   UNL     1       2.332   1.764  20.010  0.00  0.00    +0.000 C 
ATOM      4  C   UNL     1       1.380   2.566  20.890  0.00  0.00    +0.000 C 
ATOM      5  C   UNL     1       2.047   3.749  21.580  0.00  0.00    +0.000 C 
ATOM      6  C   UNL     1       2.234   4.949  20.680  0.00  0.00    +0.000 A 
ATOM      7  C   UNL     1       1.563   6.140  21.031  0.00  0.00    +0.000 A 
ATOM      8  C   UNL     1       1.735   7.344  20.328  0.00  0.00    +0.000 A 
ATOM      9  C   UNL     1       2.570   7.309  19.206  0.00  0.00    +0.000 A 
ATOM     10  C   UNL     1       3.226   6.133  18.829  0.00  0.00    +0.000 A 
ATOM     11  C   UNL     1       3.084   4.935  19.554  0.00  0.00    +0.000 A 
ENDROOT
BRANCH   1  18
ATOM     12  C   UNL     1       6.125   4.507  13.563  0.00  0.00    +0.000 C 
ATOM     13  C   UNL     1       7.202   4.800  14.615  0.00  0.00    +0.000 C 
ATOM     14  C   UNL     1       6.683   4.179  15.906  0.00  0.00    +0.000 C 
ATOM     15  N   UNL     1       5.241   4.201  15.771  0.00  0.00    +0.000 N 
ATOM     16  C   UNL     1       4.286   4.113  16.752  0.00  0.00    +0.000 C 
ATOM     17  O   UNL     1       3.089   4.252  16.515  0.00  0.00    +0.000 OA
ATOM     18  N   UNL     1       4.758   3.883  18.021  0.00  0.00    +0.000 N 
ATOM     19  C   UNL     1       4.838   4.481  14.399  0.00  0.00    +0.000 C 
ATOM     20  H   UNL     1       5.676   3.481  18.099  0.00  0.00    +0.000 HD
BRANCH  12  22
ATOM     21  C   UNL     1       5.065   2.907  11.875  0.00  0.00    +0.000 C 
ATOM     22  C   UNL     1       6.330   3.253  12.671  0.00  0.00    +0.000 C 
ATOM     23  C   UNL     1       7.532   3.302  11.728  0.00  0.00    +0.000 C 
ENDBRANCH  12  22
ENDBRANCH   1  18
BRANCH   8  24
ATOM     24  C   UNL     1       1.097   8.601  20.765  0.00  0.00    +0.000 A 
ATOM     25  C   UNL     1       0.088   8.621  21.708  0.00  0.00    +0.000 A 
ATOM     26  C   UNL     1      -0.417   9.850  22.031  0.00  0.00    +0.000 A 
ATOM     27  N   UNL     1       0.010  10.987  21.468  0.00  0.00    +0.000 NA
ATOM     28  C   UNL     1       0.985  10.898  20.552  0.00  0.00    +0.000 A 
ATOM     29  N   UNL     1       1.407  12.033  19.852  0.00  0.00    +0.000 N 
ATOM     30  N   UNL     1       1.565   9.739  20.198  0.00  0.00    +0.000 NA
ATOM     31  H   UNL     1       2.108  11.738  19.185  0.00  0.00    +0.000 HD
BRANCH  29  32
ATOM     32  C   UNL     1       0.767  13.214  19.720  0.00  0.00    +0.000 A 
ATOM     33  C   UNL     1      -0.281  13.587  18.850  0.00  0.00    +0.000 A 
ATOM     34  N   UNL     1      -0.603  14.879  18.970  0.00  0.00    +0.000 NA
ATOM     35  N   UNL     1       0.242  15.324  19.916  0.00  0.00    +0.000 N 
ATOM     36  C   UNL     1       0.233  16.718  20.284  0.00  0.00    +0.000 C 
ATOM     37  C   UNL     1       1.065  14.356  20.420  0.00  0.00    +0.000 A 
ENDBRANCH  29  32
ENDBRANCH   8  24
TORSDOF 4
ENDMDL
MODEL 7
REMARK VINA RESULT:      -7.6      4.088     12.099
REMARK  Name = 
REMARK  7 active torsions:
REMARK  status: ('A' for Active; 'I' for Inactive)
REMARK    1  A    between atoms: C_1  and  C_2
REMARK    2  A    between atoms: C_2  and  C_3
REMARK    3  A    between atoms: C_2  and  C_4
REMARK    4  A    between atoms: N_10  and  C_11
REMARK    5  A    between atoms: C_18  and  C_19
REMARK    6  A    between atoms: N_24  and  C_25
REMARK    7  A    between atoms: N_28  and  C_29
REMARK                            x       y       z     vdW  Elec       q    Type
REMARK                         _______ _______ _______ _____ _____    ______ ____
ROOT
ATOM      1  C   UNL     1       3.877   3.612  19.124  0.00  0.00    +0.000 C 
ATOM      2  C   UNL     1       2.913   2.474  18.741  0.00  0.00    +0.000 C 
ATOM      3  C   UNL     1       2.366   1.682  19.930  0.00  0.00    +0.000 C 
ATOM      4  C   UNL     1       1.415   2.457  20.835  0.00  0.00    +0.000 C 
ATOM      5  C   UNL     1       2.082   3.622  21.556  0.00  0.00    +0.000 C 
ATOM      6  C   UNL     1       2.266   4.847  20.690  0.00  0.00    +0.000 A 
ATOM      7  C   UNL     1       1.593   6.026  21.077  0.00  0.00    +0.000 A 
ATOM      8  C   UNL     1       1.762   7.250  20.407  0.00  0.00    +0.000 A 
ATOM      9  C   UNL     1       2.595   7.248  19.283  0.00  0.00    +0.000 A 
ATOM     10  C   UNL     1       3.252   6.084  18.871  0.00  0.00    +0.000 A 
ATOM     11  C   UNL     1       3.113   4.865  19.563  0.00  0.00    +0.000 A 
ENDROOT
BRANCH   1  18
ATOM     12  C   UNL     1       6.149   4.558  13.549  0.00  0.00    +0.000 C 
ATOM     13  C   UNL     1       7.215   4.869  14.607  0.00  0.00    +0.000 C 
ATOM     14  C   UNL     1       6.708   4.224  15.891  0.00  0.00    +0.000 C 
ATOM     15  N   UNL     1       5.267   4.209  15.751  0.00  0.00    +0.000 N 
ATOM     16  C   UNL     1       4.312   4.088  16.729  0.00  0.00    +0.000 C 
ATOM     17  O   UNL     1       3.111   4.198  16.489  0.00  0.00    +0.000 OA
ATOM     18  N   UNL     1       4.785   3.860  17.997  0.00  0.00    +0.000 N 
ATOM     19  C   UNL     1       4.860   4.491  14.381  0.00  0.00    +0.000 C 
ATOM     20  H   UNL     1       5.714   3.481  18.075  0.00  0.00    +0.000 HD
BRANCH  12  22
ATOM     21  C   UNL     1       5.121   2.914  11.883  0.00  0.00    +0.000 C 
ATOM     22  C   UNL     1       6.389   3.317  12.647  0.00  0.00    +0.000 C 
ATOM     23  C   UNL     1       7.562   3.425  11.673  0.00  0.00    +0.000 C 
ENDBRANCH  12  22
ENDBRANCH   1  18
BRANCH   8  24
ATOM     24  C   UNL     1       1.124   8.493  20.881  0.00  0.00    +0.000 A 
ATOM     25  C   UNL     1       1.222   8.913  22.193  0.00  0.00    +0.000 A 
ATOM     26  C   UNL     1       0.589  10.085  22.506  0.00  0.00    +0.000 A 
ATOM     27  N   UNL     1      -0.110  10.798  21.614  0.00  0.00    +0.000 NA
ATOM     28  C   UNL     1      -0.176  10.330  20.359  0.00  0.00    +0.000 A 
ATOM     29  N   UNL     1      -0.972  10.970  19.404  0.00  0.00    +0.000 N 
ATOM     30  N   UNL     1       0.443   9.208  19.954  0.00  0.00    +0.000 NA
ATOM     31  H   UNL     1      -0.915  10.432  18.549  0.00  0.00    +0.000 HD
BRANCH  29  32
ATOM     32  C   UNL     1      -1.971  11.853  19.612  0.00  0.00    +0.000 A 
ATOM     33  C   UNL     1      -1.970  13.078  20.314  0.00  0.00    +0.000 A 
ATOM     34  N   UNL     1      -3.183  13.638  20.359  0.00  0.00    +0.000 NA
ATOM     35  N   UNL     1      -3.953  12.766  19.685  0.00  0.00    +0.000 N 
ATOM     36  C   UNL     1      -5.369  13.007  19.568  0.00  0.00    +0.000 C 
ATOM     37  C   UNL     1      -3.268  11.693  19.190  0.00  0.00    +0.000 A 
ENDBRANCH  29  32
ENDBRANCH   8  24
TORSDOF 4
ENDMDL
MODEL 8
REMARK VINA RESULT:      -7.5      5.099     12.051
REMARK  Name = 
REMARK  7 active torsions:
REMARK  status: ('A' for Active; 'I' for Inactive)
REMARK    1  A    between atoms: C_1  and  C_2
REMARK    2  A    between atoms: C_2  and  C_3
REMARK    3  A    between atoms: C_2  and  C_4
REMARK    4  A    between atoms: N_10  and  C_11
REMARK    5  A    between atoms: C_18  and  C_19
REMARK    6  A    between atoms: N_24  and  C_25
REMARK    7  A    between atoms: N_28  and  C_29
REMARK                            x       y       z     vdW  Elec       q    Type
REMARK                         _______ _______ _______ _____ _____    ______ ____
ROOT
ATOM      1  C   UNL     1       3.351   4.915  18.269  0.00  0.00    +0.000 C 
ATOM      2  C   UNL     1       2.289   3.829  18.522  0.00  0.00    +0.000 C 
ATOM      3  C   UNL     1       2.022   3.540  20.001  0.00  0.00    +0.000 C 
ATOM      4  C   UNL     1       1.341   4.670  20.764  0.00  0.00    +0.000 C 
ATOM      5  C   UNL     1       2.197   5.926  20.874  0.00  0.00    +0.000 C 
ATOM      6  C   UNL     1       2.203   6.768  19.618  0.00  0.00    +0.000 A 
ATOM      7  C   UNL     1       1.678   8.075  19.707  0.00  0.00    +0.000 A 
ATOM      8  C   UNL     1       1.718   8.983  18.635  0.00  0.00    +0.000 A 
ATOM      9  C   UNL     1       2.254   8.518  17.430  0.00  0.00    +0.000 A 
ATOM     10  C   UNL     1       2.757   7.218  17.316  0.00  0.00    +0.000 A 
ATOM     11  C   UNL     1       2.753   6.319  18.400  0.00  0.00    +0.000 A 
ENDROOT
BRANCH   1  18
ATOM     12  C   UNL     1       7.356   4.356  13.710  0.00  0.00    +0.000 C 
ATOM     13  C   UNL     1       6.011   3.740  13.302  0.00  0.00    +0.000 C 
ATOM     14  C   UNL     1       5.000   4.285  14.303  0.00  0.00    +0.000 C 
ATOM     15  N   UNL     1       5.772   4.550  15.500  0.00  0.00    +0.000 N 
ATOM     16  C   UNL     1       5.330   4.694  16.790  0.00  0.00    +0.000 C 
ATOM     17  O   UNL     1       6.104   4.812  17.738  0.00  0.00    +0.000 OA
ATOM     18  N   UNL     1       3.967   4.675  16.958  0.00  0.00    +0.000 N 
ATOM     19  C   UNL     1       7.203   4.521  15.229  0.00  0.00    +0.000 C 
ATOM     20  H   UNL     1       3.407   4.885  16.150  0.00  0.00    +0.000 HD
BRANCH  12  22
ATOM     21  C   UNL     1       9.265   5.991  13.245  0.00  0.00    +0.000 C 
ATOM     22  C   UNL     1       7.795   5.649  12.972  0.00  0.00    +0.000 C 
ATOM     23  C   UNL     1       7.535   5.670  11.465  0.00  0.00    +0.000 C 
ENDBRANCH  12  22
ENDBRANCH   1  18
BRANCH   8  24
ATOM     24  C   UNL     1       1.250  10.376  18.774  0.00  0.00    +0.000 A 
ATOM     25  C   UNL     1      -0.083  10.686  18.959  0.00  0.00    +0.000 A 
ATOM     26  C   UNL     1      -0.388  12.014  19.079  0.00  0.00    +0.000 A 
ATOM     27  N   UNL     1       0.532  12.984  19.006  0.00  0.00    +0.000 NA
ATOM     28  C   UNL     1       1.808  12.617  18.815  0.00  0.00    +0.000 A 
ATOM     29  N   UNL     1       2.803  13.581  18.628  0.00  0.00    +0.000 N 
ATOM     30  N   UNL     1       2.204  11.337  18.722  0.00  0.00    +0.000 NA
ATOM     31  H   UNL     1       3.672  13.094  18.456  0.00  0.00    +0.000 HD
BRANCH  29  32
ATOM     32  C   UNL     1       2.650  14.880  18.296  0.00  0.00    +0.000 A 
ATOM     33  C   UNL     1       3.382  15.680  17.393  0.00  0.00    +0.000 A 
ATOM     34  N   UNL     1       2.968  16.952  17.389  0.00  0.00    +0.000 NA
ATOM     35  N   UNL     1       1.973  16.956  18.293  0.00  0.00    +0.000 N 
ATOM     36  C   UNL     1       1.303  18.193  18.612  0.00  0.00    +0.000 C 
ATOM     37  C   UNL     1       1.722  15.731  18.844  0.00  0.00    +0.000 A 
ENDBRANCH  29  32
ENDBRANCH   8  24
TORSDOF 4
ENDMDL
MODEL 9
REMARK VINA RESULT:      -7.3      2.726      4.551
REMARK  Name = 
REMARK  7 active torsions:
REMARK  status: ('A' for Active; 'I' for Inactive)
REMARK    1  A    between atoms: C_1  and  C_2
REMARK    2  A    between atoms: C_2  and  C_3
REMARK    3  A    between atoms: C_2  and  C_4
REMARK    4  A    between atoms: N_10  and  C_11
REMARK    5  A    between atoms: C_18  and  C_19
REMARK    6  A    between atoms: N_24  and  C_25
REMARK    7  A    between atoms: N_28  and  C_29
REMARK                            x       y       z     vdW  Elec       q    Type
REMARK                         _______ _______ _______ _____ _____    ______ ____
ROOT
ATOM      1  C   UNL     1      -1.311  14.665  20.507  0.00  0.00    +0.000 C 
ATOM      2  C   UNL     1      -0.751  15.665  19.478  0.00  0.00    +0.000 C 
ATOM      3  C   UNL     1       0.602  16.270  19.858  0.00  0.00    +0.000 C 
ATOM      4  C   UNL     1       1.770  15.290  19.844  0.00  0.00    +0.000 C 
ATOM      5  C   UNL     1       1.650  14.192  20.894  0.00  0.00    +0.000 C 
ATOM      6  C   UNL     1       0.704  13.080  20.502  0.00  0.00    +0.000 A 
ATOM      7  C   UNL     1       1.245  11.785  20.356  0.00  0.00    +0.000 A 
ATOM      8  C   UNL     1       0.451  10.656  20.090  0.00  0.00    +0.000 A 
ATOM      9  C   UNL     1      -0.920  10.873  19.914  0.00  0.00    +0.000 A 
ATOM     10  C   UNL     1      -1.471  12.153  20.032  0.00  0.00    +0.000 A 
ATOM     11  C   UNL     1      -0.683  13.279  20.336  0.00  0.00    +0.000 A 
ENDROOT
BRANCH   1  18
ATOM     12  C   UNL     1      -7.261  14.309  21.776  0.00  0.00    +0.000 C 
ATOM     13  C   UNL     1      -7.061  14.855  20.356  0.00  0.00    +0.000 C 
ATOM     14  C   UNL     1      -5.620  14.520  19.996  0.00  0.00    +0.000 C 
ATOM     15  N   UNL     1      -4.924  14.474  21.265  0.00  0.00    +0.000 N 
ATOM     16  C   UNL     1      -3.578  14.580  21.510  0.00  0.00    +0.000 C 
ATOM     17  O   UNL     1      -3.121  14.632  22.650  0.00  0.00    +0.000 OA
ATOM     18  N   UNL     1      -2.775  14.648  20.398  0.00  0.00    +0.000 N 
ATOM     19  C   UNL     1      -5.856  14.434  22.384  0.00  0.00    +0.000 C 
ATOM     20  H   UNL     1      -3.160  14.297  19.537  0.00  0.00    +0.000 HD
BRANCH  12  22
ATOM     21  C   UNL     1      -7.242  11.892  20.944  0.00  0.00    +0.000 C 
ATOM     22  C   UNL     1      -7.887  12.895  21.909  0.00  0.00    +0.000 C 
ATOM     23  C   UNL     1      -7.905  12.310  23.321  0.00  0.00    +0.000 C 
ENDBRANCH  12  22
ENDBRANCH   1  18
BRANCH   8  24
ATOM     24  C   UNL     1       1.022   9.297  20.033  0.00  0.00    +0.000 A 
ATOM     25  C   UNL     1       0.880   8.399  21.072  0.00  0.00    +0.000 A 
ATOM     26  C   UNL     1       1.452   7.168  20.895  0.00  0.00    +0.000 A 
ATOM     27  N   UNL     1       2.132   6.831  19.792  0.00  0.00    +0.000 NA
ATOM     28  C   UNL     1       2.242   7.752  18.824  0.00  0.00    +0.000 A 
ATOM     29  N   UNL     1       3.024   7.502  17.692  0.00  0.00    +0.000 N 
ATOM     30  N   UNL     1       1.684   8.972  18.897  0.00  0.00    +0.000 NA
ATOM     31  H   UNL     1       3.007   8.335  17.119  0.00  0.00    +0.000 HD
BRANCH  29  32
ATOM     32  C   UNL     1       3.976   6.559  17.532  0.00  0.00    +0.000 A 
ATOM     33  C   UNL     1       3.856   5.157  17.413  0.00  0.00    +0.000 A 
ATOM     34  N   UNL     1       5.046   4.551  17.338  0.00  0.00    +0.000 NA
ATOM     35  N   UNL     1       5.919   5.571  17.411  0.00  0.00    +0.000 N 
ATOM     36  C   UNL     1       7.335   5.298  17.419  0.00  0.00    +0.000 C 
ATOM     37  C   UNL     1       5.328   6.799  17.498  0.00  0.00    +0.000 A 
ENDBRANCH  29  32
ENDBRANCH   8  24
TORSDOF 4
ENDMDL
