MODEL 1
REMARK VINA RESULT:      -6.9      0.000      0.000
REMARK  Name = 
REMARK  3 active torsions:
REMARK  status: ('A' for Active; 'I' for Inactive)
REMARK    1  A    between atoms: C_4  and  N_5
REMARK    2  A    between atoms: N_5  and  C_6
REMARK    3  A    between atoms: C_6  and  C_7
REMARK                            x       y       z     vdW  Elec       q    Type
REMARK                         _______ _______ _______ _____ _____    ______ ____
ROOT
ATOM      1  C   UNL     1       4.173   3.463  16.894  0.00  0.00    +0.000 C 
ENDROOT
BRANCH   1   2
ATOM      2  C   UNL     1       5.135   4.617  17.072  0.00  0.00    +0.000 A 
ATOM      3  C   UNL     1       4.979   5.768  16.284  0.00  0.00    +0.000 A 
ATOM      4  C   UNL     1       5.811   6.877  16.462  0.00  0.00    +0.000 A 
ATOM      5  C   UNL     1       6.810   6.857  17.438  0.00  0.00    +0.000 A 
ATOM      6 CL   UNL     1       7.795   8.266  17.607  0.00  0.00    +0.000 Cl
ATOM      7  C   UNL     1       6.971   5.725  18.239  0.00  0.00    +0.000 A 
ATOM      8 CL   UNL     1       8.174   5.632  19.477  0.00  0.00    +0.000 Cl
ATOM      9  C   UNL     1       6.134   4.617  18.060  0.00  0.00    +0.000 A 
ENDBRANCH   1   2
BRANCH   1  10
ATOM     10  N   UNL     1       3.976   2.701  18.113  0.00  0.00    +0.000 N 
ATOM     11  H   UNL     1       4.604   1.913  18.244  0.00  0.00    +0.000 HD
BRANCH  10  15
ATOM     12  O   UNL     1       1.891   2.931  22.319  0.00  0.00    +0.000 OA
ATOM     13  C   UNL     1       2.020   3.017  21.107  0.00  0.00    +0.000 C 
ATOM     14  C   UNL     1       3.251   2.637  20.408  0.00  0.00    +0.000 C 
ATOM     15  C   UNL     1       3.063   2.919  19.116  0.00  0.00    +0.000 C 
ATOM     16  C   UNL     1       1.715   3.537  18.835  0.00  0.00    +0.000 C 
ATOM     17  C   UNL     1       0.961   3.479  20.156  0.00  0.00    +0.000 C 
ENDBRANCH  10  15
ENDBRANCH   1  10
TORSDOF 3
ENDMDL
MODEL 2
REMARK VINA RESULT:      -6.8      3.929      5.974
REMARK  Name = 
REMARK  3 active torsions:
REMARK  status: ('A' for Active; 'I' for Inactive)
REMARK    1  A    between atoms: C_4  and  N_5
REMARK    2  A    between atoms: N_5  and  C_6
REMARK    3  A    between atoms: C_6  and  C_7
REMARK                            x       y       z     vdW  Elec       q    Type
REMARK                         _______ _______ _______ _____ _____    ______ ____
ROOT
ATOM      1  C   UNL     1       3.120   6.922  17.545  0.00  0.00    +0.000 C 
ENDROOT
BRANCH   1   2
ATOM      2  C   UNL     1       2.686   5.839  18.509  0.00  0.00    +0.000 A 
ATOM      3  C   UNL     1       2.621   6.128  19.881  0.00  0.00    +0.000 A 
ATOM      4  C   UNL     1       2.168   5.172  20.793  0.00  0.00    +0.000 A 
ATOM      5  C   UNL     1       1.763   3.911  20.349  0.00  0.00    +0.000 A 
ATOM      6 CL   UNL     1       1.206   2.782  21.532  0.00  0.00    +0.000 Cl
ATOM      7  C   UNL     1       1.809   3.611  18.985  0.00  0.00    +0.000 A 
ATOM      8 CL   UNL     1       1.311   2.080  18.358  0.00  0.00    +0.000 Cl
ATOM      9  C   UNL     1       2.262   4.573  18.073  0.00  0.00    +0.000 A 
ENDBRANCH   1   2
BRANCH   1  10
ATOM     10  N   UNL     1       4.561   7.068  17.473  0.00  0.00    +0.000 N 
ATOM     11  H   UNL     1       4.921   7.989  17.704  0.00  0.00    +0.000 HD
BRANCH  10  15
ATOM     12  O   UNL     1       8.236   4.142  17.633  0.00  0.00    +0.000 OA
ATOM     13  C   UNL     1       7.265   4.725  17.174  0.00  0.00    +0.000 C 
ATOM     14  C   UNL     1       6.523   5.745  17.919  0.00  0.00    +0.000 C 
ATOM     15  C   UNL     1       5.498   6.117  17.147  0.00  0.00    +0.000 C 
ATOM     16  C   UNL     1       5.439   5.367  15.839  0.00  0.00    +0.000 C 
ATOM     17  C   UNL     1       6.707   4.524  15.800  0.00  0.00    +0.000 C 
ENDBRANCH  10  15
ENDBRANCH   1  10
TORSDOF 3
ENDMDL
MODEL 3
REMARK VINA RESULT:      -6.8      3.648      5.986
REMARK  Name = 
REMARK  3 active torsions:
REMARK  status: ('A' for Active; 'I' for Inactive)
REMARK    1  A    between atoms: C_4  and  N_5
REMARK    2  A    between atoms: N_5  and  C_6
REMARK    3  A    between atoms: C_6  and  C_7
REMARK                            x       y       z     vdW  Elec       q    Type
REMARK                         _______ _______ _______ _____ _____    ______ ____
ROOT
ATOM      1  C   UNL     1       4.453   3.823  16.423  0.00  0.00    +0.000 C 
ENDROOT
BRANCH   1   2
ATOM      2  C   UNL     1       3.591   3.595  17.645  0.00  0.00    +0.000 A 
ATOM      3  C   UNL     1       3.314   2.280  18.054  0.00  0.00    +0.000 A 
ATOM      4  C   UNL     1       2.572   2.031  19.211  0.00  0.00    +0.000 A 
ATOM      5  C   UNL     1       2.101   3.093  19.987  0.00  0.00    +0.000 A 
ATOM      6 CL   UNL     1       1.198   2.710  21.409  0.00  0.00    +0.000 Cl
ATOM      7  C   UNL     1       2.378   4.407  19.602  0.00  0.00    +0.000 A 
ATOM      8 CL   UNL     1       1.842   5.771  20.518  0.00  0.00    +0.000 Cl
ATOM      9  C   UNL     1       3.124   4.653  18.443  0.00  0.00    +0.000 A 
ENDBRANCH   1   2
BRANCH   1  10
ATOM     10  N   UNL     1       5.864   3.942  16.743  0.00  0.00    +0.000 N 
ATOM     11  H   UNL     1       6.428   3.119  16.553  0.00  0.00    +0.000 HD
BRANCH  10  15
ATOM     12  O   UNL     1       7.822   8.186  17.236  0.00  0.00    +0.000 OA
ATOM     13  C   UNL     1       7.508   7.039  17.516  0.00  0.00    +0.000 C 
ATOM     14  C   UNL     1       6.751   6.176  16.605  0.00  0.00    +0.000 C 
ATOM     15  C   UNL     1       6.532   5.029  17.254  0.00  0.00    +0.000 C 
ATOM     16  C   UNL     1       7.087   5.026  18.656  0.00  0.00    +0.000 C 
ATOM     17  C   UNL     1       7.862   6.332  18.786  0.00  0.00    +0.000 C 
ENDBRANCH  10  15
ENDBRANCH   1  10
TORSDOF 3
ENDMDL
MODEL 4
REMARK VINA RESULT:      -6.6      3.759      5.741
REMARK  Name = 
REMARK  3 active torsions:
REMARK  status: ('A' for Active; 'I' for Inactive)
REMARK    1  A    between atoms: C_4  and  N_5
REMARK    2  A    between atoms: N_5  and  C_6
REMARK    3  A    between atoms: C_6  and  C_7
REMARK                            x       y       z     vdW  Elec       q    Type
REMARK                         _______ _______ _______ _____ _____    ______ ____
ROOT
ATOM      1  C   UNL     1       5.289   3.704  16.484  0.00  0.00    +0.000 C 
ENDROOT
BRANCH   1   2
ATOM      2  C   UNL     1       4.262   3.945  17.569  0.00  0.00    +0.000 A 
ATOM      3  C   UNL     1       3.250   4.894  17.356  0.00  0.00    +0.000 A 
ATOM      4  C   UNL     1       2.250   5.101  18.310  0.00  0.00    +0.000 A 
ATOM      5  C   UNL     1       2.239   4.356  19.490  0.00  0.00    +0.000 A 
ATOM      6 CL   UNL     1       0.967   4.659  20.620  0.00  0.00    +0.000 Cl
ATOM      7  C   UNL     1       3.231   3.398  19.713  0.00  0.00    +0.000 A 
ATOM      8 CL   UNL     1       3.275   2.427  21.142  0.00  0.00    +0.000 Cl
ATOM      9  C   UNL     1       4.231   3.192  18.754  0.00  0.00    +0.000 A 
ENDBRANCH   1   2
BRANCH   1  10
ATOM     10  N   UNL     1       6.634   4.067  16.891  0.00  0.00    +0.000 N 
ATOM     11  H   UNL     1       7.334   3.338  16.790  0.00  0.00    +0.000 HD
BRANCH  10  15
ATOM     12  O   UNL     1       7.660   8.632  17.328  0.00  0.00    +0.000 OA
ATOM     13  C   UNL     1       7.615   7.445  17.611  0.00  0.00    +0.000 C 
ATOM     14  C   UNL     1       7.013   6.439  16.731  0.00  0.00    +0.000 C 
ATOM     15  C   UNL     1       7.080   5.272  17.378  0.00  0.00    +0.000 C 
ATOM     16  C   UNL     1       7.699   5.389  18.749  0.00  0.00    +0.000 C 
ATOM     17  C   UNL     1       8.181   6.830  18.852  0.00  0.00    +0.000 C 
ENDBRANCH  10  15
ENDBRANCH   1  10
TORSDOF 3
ENDMDL
MODEL 5
REMARK VINA RESULT:      -6.4      3.418      5.740
REMARK  Name = 
REMARK  3 active torsions:
REMARK  status: ('A' for Active; 'I' for Inactive)
REMARK    1  A    between atoms: C_4  and  N_5
REMARK    2  A    between atoms: N_5  and  C_6
REMARK    3  A    between atoms: C_6  and  C_7
REMARK                            x       y       z     vdW  Elec       q    Type
REMARK                         _______ _______ _______ _____ _____    ______ ____
ROOT
ATOM      1  C   UNL     1       4.609   4.209  16.382  0.00  0.00    +0.000 C 
ENDROOT
BRANCH   1   2
ATOM      2  C   UNL     1       3.690   3.880  17.539  0.00  0.00    +0.000 A 
ATOM      3  C   UNL     1       3.406   2.536  17.828  0.00  0.00    +0.000 A 
ATOM      4  C   UNL     1       2.611   2.191  18.924  0.00  0.00    +0.000 A 
ATOM      5  C   UNL     1       2.092   3.185  19.757  0.00  0.00    +0.000 A 
ATOM      6 CL   UNL     1       1.125   2.686  21.098  0.00  0.00    +0.000 Cl
ATOM      7  C   UNL     1       2.376   4.527  19.491  0.00  0.00    +0.000 A 
ATOM      8 CL   UNL     1       1.783   5.812  20.485  0.00  0.00    +0.000 Cl
ATOM      9  C   UNL     1       3.175   4.868  18.393  0.00  0.00    +0.000 A 
ENDBRANCH   1   2
BRANCH   1  10
ATOM     10  N   UNL     1       5.295   5.476  16.551  0.00  0.00    +0.000 N 
ATOM     11  H   UNL     1       4.958   6.238  15.970  0.00  0.00    +0.000 HD
BRANCH  10  15
ATOM     12  O   UNL     1       8.509   5.240  19.973  0.00  0.00    +0.000 OA
ATOM     13  C   UNL     1       7.861   5.715  19.052  0.00  0.00    +0.000 C 
ATOM     14  C   UNL     1       6.764   4.995  18.398  0.00  0.00    +0.000 C 
ATOM     15  C   UNL     1       6.329   5.777  17.405  0.00  0.00    +0.000 C 
ATOM     16  C   UNL     1       7.104   7.065  17.283  0.00  0.00    +0.000 C 
ATOM     17  C   UNL     1       8.050   7.083  18.477  0.00  0.00    +0.000 C 
ENDBRANCH  10  15
ENDBRANCH   1  10
TORSDOF 3
ENDMDL
MODEL 6
REMARK VINA RESULT:      -6.4      3.702      5.455
REMARK  Name = 
REMARK  3 active torsions:
REMARK  status: ('A' for Active; 'I' for Inactive)
REMARK    1  A    between atoms: C_4  and  N_5
REMARK    2  A    between atoms: N_5  and  C_6
REMARK    3  A    between atoms: C_6  and  C_7
REMARK                            x       y       z     vdW  Elec       q    Type
REMARK                         _______ _______ _______ _____ _____    ______ ____
ROOT
ATOM      1  C   UNL     1       3.157   3.547  17.735  0.00  0.00    +0.000 C 
ENDROOT
BRANCH   1   2
ATOM      2  C   UNL     1       2.685   4.759  18.508  0.00  0.00    +0.000 A 
ATOM      3  C   UNL     1       2.289   4.607  19.846  0.00  0.00    +0.000 A 
ATOM      4  C   UNL     1       1.905   5.713  20.609  0.00  0.00    +0.000 A 
ATOM      5  C   UNL     1       1.918   6.992  20.050  0.00  0.00    +0.000 A 
ATOM      6 CL   UNL     1       1.439   8.314  21.055  0.00  0.00    +0.000 Cl
ATOM      7  C   UNL     1       2.322   7.163  18.724  0.00  0.00    +0.000 A 
ATOM      8 CL   UNL     1       2.380   8.716  17.968  0.00  0.00    +0.000 Cl
ATOM      9  C   UNL     1       2.708   6.053  17.963  0.00  0.00    +0.000 A 
ENDBRANCH   1   2
BRANCH   1  10
ATOM     10  N   UNL     1       4.594   3.356  17.809  0.00  0.00    +0.000 N 
ATOM     11  H   UNL     1       4.902   2.395  17.930  0.00  0.00    +0.000 HD
BRANCH  10  15
ATOM     12  O   UNL     1       7.710   6.453  16.141  0.00  0.00    +0.000 OA
ATOM     13  C   UNL     1       7.109   5.772  16.958  0.00  0.00    +0.000 C 
ATOM     14  C   UNL     1       6.063   4.817  16.583  0.00  0.00    +0.000 C 
ATOM     15  C   UNL     1       5.584   4.304  17.720  0.00  0.00    +0.000 C 
ATOM     16  C   UNL     1       6.235   4.883  18.951  0.00  0.00    +0.000 C 
ATOM     17  C   UNL     1       7.356   5.775  18.434  0.00  0.00    +0.000 C 
ENDBRANCH  10  15
ENDBRANCH   1  10
TORSDOF 3
ENDMDL
MODEL 7
REMARK VINA RESULT:      -6.4      4.562      6.589
REMARK  Name = 
REMARK  3 active torsions:
REMARK  status: ('A' for Active; 'I' for Inactive)
REMARK    1  A    between atoms: C_4  and  N_5
REMARK    2  A    between atoms: N_5  and  C_6
REMARK    3  A    between atoms: C_6  and  C_7
REMARK                            x       y       z     vdW  Elec       q    Type
REMARK                         _______ _______ _______ _____ _____    ______ ____
ROOT
ATOM      1  C   UNL     1       7.034   4.885  16.564  0.00  0.00    +0.000 C 
ENDROOT
BRANCH   1   2
ATOM      2  C   UNL     1       5.578   4.800  16.968  0.00  0.00    +0.000 A 
ATOM      3  C   UNL     1       4.973   3.539  17.093  0.00  0.00    +0.000 A 
ATOM      4  C   UNL     1       3.649   3.419  17.522  0.00  0.00    +0.000 A 
ATOM      5  C   UNL     1       2.908   4.558  17.844  0.00  0.00    +0.000 A 
ATOM      6 CL   UNL     1       1.279   4.333  18.376  0.00  0.00    +0.000 Cl
ATOM      7  C   UNL     1       3.498   5.820  17.738  0.00  0.00    +0.000 A 
ATOM      8 CL   UNL     1       2.650   7.273  18.132  0.00  0.00    +0.000 Cl
ATOM      9  C   UNL     1       4.826   5.936  17.309  0.00  0.00    +0.000 A 
ENDBRANCH   1   2
BRANCH   1  10
ATOM     10  N   UNL     1       7.217   5.434  15.233  0.00  0.00    +0.000 N 
ATOM     11  H   UNL     1       7.565   6.388  15.197  0.00  0.00    +0.000 HD
BRANCH  10  15
ATOM     12  O   UNL     1       5.480   2.689  11.838  0.00  0.00    +0.000 OA
ATOM     13  C   UNL     1       6.213   3.503  12.378  0.00  0.00    +0.000 C 
ATOM     14  C   UNL     1       6.088   3.872  13.791  0.00  0.00    +0.000 C 
ATOM     15  C   UNL     1       6.997   4.824  14.023  0.00  0.00    +0.000 C 
ATOM     16  C   UNL     1       7.786   5.200  12.793  0.00  0.00    +0.000 C 
ATOM     17  C   UNL     1       7.350   4.216  11.716  0.00  0.00    +0.000 C 
ENDBRANCH  10  15
ENDBRANCH   1  10
TORSDOF 3
ENDMDL
MODEL 8
REMARK VINA RESULT:      -6.4      4.536      6.466
REMARK  Name = 
REMARK  3 active torsions:
REMARK  status: ('A' for Active; 'I' for Inactive)
REMARK    1  A    between atoms: C_4  and  N_5
REMARK    2  A    between atoms: N_5  and  C_6
REMARK    3  A    between atoms: C_6  and  C_7
REMARK                            x       y       z     vdW  Elec       q    Type
REMARK                         _______ _______ _______ _____ _____    ______ ____
ROOT
ATOM      1  C   UNL     1       6.481   5.895  16.535  0.00  0.00    +0.000 C 
ENDROOT
BRANCH   1   2
ATOM      2  C   UNL     1       5.203   5.350  17.133  0.00  0.00    +0.000 A 
ATOM      3  C   UNL     1       4.161   6.237  17.448  0.00  0.00    +0.000 A 
ATOM      4  C   UNL     1       2.944   5.764  17.946  0.00  0.00    +0.000 A 
ATOM      5  C   UNL     1       2.743   4.394  18.130  0.00  0.00    +0.000 A 
ATOM      6 CL   UNL     1       1.211   3.881  18.741  0.00  0.00    +0.000 Cl
ATOM      7  C   UNL     1       3.765   3.497  17.810  0.00  0.00    +0.000 A 
ATOM      8 CL   UNL     1       3.586   1.788  17.995  0.00  0.00    +0.000 Cl
ATOM      9  C   UNL     1       4.982   3.974  17.309  0.00  0.00    +0.000 A 
ENDBRANCH   1   2
BRANCH   1  10
ATOM     10  N   UNL     1       7.185   4.918  15.726  0.00  0.00    +0.000 N 
ATOM     11  H   UNL     1       7.937   4.420  16.195  0.00  0.00    +0.000 HD
BRANCH  10  15
ATOM     12  O   UNL     1       5.406   2.945  11.849  0.00  0.00    +0.000 OA
ATOM     13  C   UNL     1       6.149   3.624  12.541  0.00  0.00    +0.000 C 
ATOM     14  C   UNL     1       6.034   3.696  14.000  0.00  0.00    +0.000 C 
ATOM     15  C   UNL     1       6.954   4.571  14.417  0.00  0.00    +0.000 C 
ATOM     16  C   UNL     1       7.742   5.185  13.286  0.00  0.00    +0.000 C 
ATOM     17  C   UNL     1       7.291   4.447  12.032  0.00  0.00    +0.000 C 
ENDBRANCH  10  15
ENDBRANCH   1  10
TORSDOF 3
ENDMDL
MODEL 9
REMARK VINA RESULT:      -6.4      3.988      5.749
REMARK  Name = 
REMARK  3 active torsions:
REMARK  status: ('A' for Active; 'I' for Inactive)
REMARK    1  A    between atoms: C_4  and  N_5
REMARK    2  A    between atoms: N_5  and  C_6
REMARK    3  A    between atoms: C_6  and  C_7
REMARK                            x       y       z     vdW  Elec       q    Type
REMARK                         _______ _______ _______ _____ _____    ______ ____
ROOT
ATOM      1  C   UNL     1       4.450   3.447  18.894  0.00  0.00    +0.000 C 
ENDROOT
BRANCH   1   2
ATOM      2  C   UNL     1       3.529   4.564  19.334  0.00  0.00    +0.000 A 
ATOM      3  C   UNL     1       2.791   4.417  20.520  0.00  0.00    +0.000 A 
ATOM      4  C   UNL     1       1.976   5.451  20.988  0.00  0.00    +0.000 A 
ATOM      5  C   UNL     1       1.891   6.654  20.285  0.00  0.00    +0.000 A 
ATOM      6 CL   UNL     1       0.870   7.891  20.928  0.00  0.00    +0.000 Cl
ATOM      7  C   UNL     1       2.628   6.822  19.110  0.00  0.00    +0.000 A 
ATOM      8 CL   UNL     1       2.586   8.286  18.193  0.00  0.00    +0.000 Cl
ATOM      9  C   UNL     1       3.445   5.784  18.644  0.00  0.00    +0.000 A 
ENDBRANCH   1   2
BRANCH   1  10
ATOM     10  N   UNL     1       5.702   3.934  18.344  0.00  0.00    +0.000 N 
ATOM     11  H   UNL     1       6.459   4.046  19.012  0.00  0.00    +0.000 HD
BRANCH  10  15
ATOM     12  O   UNL     1       7.899   5.414  14.462  0.00  0.00    +0.000 OA
ATOM     13  C   UNL     1       7.001   4.971  15.161  0.00  0.00    +0.000 C 
ATOM     14  C   UNL     1       7.128   4.809  16.613  0.00  0.00    +0.000 C 
ATOM     15  C   UNL     1       5.994   4.244  17.038  0.00  0.00    +0.000 C 
ATOM     16  C   UNL     1       5.024   3.950  15.921  0.00  0.00    +0.000 C 
ATOM     17  C   UNL     1       5.647   4.561  14.673  0.00  0.00    +0.000 C 
ENDBRANCH  10  15
ENDBRANCH   1  10
TORSDOF 3
ENDMDL
