MODEL 1
REMARK VINA RESULT:      -9.1      0.000      0.000
REMARK  Name = 
REMARK  4 active torsions:
REMARK  status: ('A' for Active; 'I' for Inactive)
REMARK    1  A    between atoms: C_1  and  C_2
REMARK    2  A    between atoms: C_7  and  C_8
REMARK    3  A    between atoms: C_8  and  N_9
REMARK    4  A    between atoms: C_14  and  C_15
REMARK                            x       y       z     vdW  Elec       q    Type
REMARK                         _______ _______ _______ _____ _____    ______ ____
ROOT
ATOM      1  N   UNL     1       5.998   5.262  16.995  0.00  0.00    +0.000 N 
ATOM      2  C   UNL     1       6.842   4.698  17.945  0.00  0.00    +0.000 A 
ATOM      3  C   UNL     1       7.702   5.455  18.642  0.00  0.00    +0.000 A 
ATOM      4  N   UNL     1       7.772   6.820  18.414  0.00  0.00    +0.000 N 
ATOM      5  N   UNL     1       8.583   7.720  19.017  0.00  0.00    +0.000 NA
ATOM      6  C   UNL     1       8.307   8.894  18.431  0.00  0.00    +0.000 A 
ATOM      7  C   UNL     1       7.278   8.750  17.468  0.00  0.00    +0.000 A 
ATOM      8  C   UNL     1       6.971   7.412  17.468  0.00  0.00    +0.000 A 
ATOM      9  C   UNL     1       6.019   6.643  16.701  0.00  0.00    +0.000 A 
ATOM     10  O   UNL     1       5.277   7.171  15.877  0.00  0.00    +0.000 OA
ENDROOT
BRANCH   6  11
ATOM     11  C   UNL     1       9.075  10.106  18.695  0.00  0.00    +0.000 A 
ATOM     12  C   UNL     1       9.441  10.426  20.024  0.00  0.00    +0.000 A 
ATOM     13  C   UNL     1      10.380  11.427  20.291  0.00  0.00    +0.000 A 
ATOM     14  C   UNL     1      10.935  12.077  19.212  0.00  0.00    +0.000 A 
ATOM     15  C   UNL     1      10.534  11.817  17.921  0.00  0.00    +0.000 A 
ATOM     16  C   UNL     1       9.590  10.859  17.629  0.00  0.00    +0.000 A 
ATOM     17  O   UNL     1      11.233  12.544  17.006  0.00  0.00    +0.000 OA
ATOM     18  C   UNL     1      12.267  13.084  17.855  0.00  0.00    +0.000 C 
ATOM     19  O   UNL     1      11.949  12.984  19.259  0.00  0.00    +0.000 OA
ENDBRANCH   6  11
BRANCH   1  20
ATOM     20  C   UNL     1       4.955   4.439  16.381  0.00  0.00    +0.000 C 
BRANCH  20  27
ATOM     21  C   UNL     1       2.755   5.994  17.867  0.00  0.00    +0.000 C 
ATOM     22  C   UNL     1       2.954   4.511  18.013  0.00  0.00    +0.000 A 
ATOM     23  C   UNL     1       2.079   3.815  18.868  0.00  0.00    +0.000 A 
ATOM     24  C   UNL     1       2.181   2.437  19.043  0.00  0.00    +0.000 A 
ATOM     25  C   UNL     1       3.175   1.731  18.380  0.00  0.00    +0.000 A 
ATOM     26  C   UNL     1       4.068   2.407  17.551  0.00  0.00    +0.000 A 
ATOM     27  C   UNL     1       3.978   3.800  17.350  0.00  0.00    +0.000 A 
ENDBRANCH  20  27
ENDBRANCH   1  20
TORSDOF 3
ENDMDL
MODEL 2
REMARK VINA RESULT:      -8.9      0.807      1.510
REMARK  Name = 
REMARK  4 active torsions:
REMARK  status: ('A' for Active; 'I' for Inactive)
REMARK    1  A    between atoms: C_1  and  C_2
REMARK    2  A    between atoms: C_7  and  C_8
REMARK    3  A    between atoms: C_8  and  N_9
REMARK    4  A    between atoms: C_14  and  C_15
REMARK                            x       y       z     vdW  Elec       q    Type
REMARK                         _______ _______ _______ _____ _____    ______ ____
ROOT
ATOM      1  N   UNL     1       5.902   5.271  17.011  0.00  0.00    +0.000 N 
ATOM      2  C   UNL     1       6.723   4.671  17.959  0.00  0.00    +0.000 A 
ATOM      3  C   UNL     1       7.616   5.389  18.655  0.00  0.00    +0.000 A 
ATOM      4  N   UNL     1       7.743   6.750  18.428  0.00  0.00    +0.000 N 
ATOM      5  N   UNL     1       8.594   7.615  19.031  0.00  0.00    +0.000 NA
ATOM      6  C   UNL     1       8.366   8.800  18.447  0.00  0.00    +0.000 A 
ATOM      7  C   UNL     1       7.330   8.701  17.486  0.00  0.00    +0.000 A 
ATOM      8  C   UNL     1       6.966   7.377  17.485  0.00  0.00    +0.000 A 
ATOM      9  C   UNL     1       5.981   6.651  16.719  0.00  0.00    +0.000 A 
ATOM     10  O   UNL     1       5.261   7.211  15.897  0.00  0.00    +0.000 OA
ENDROOT
BRANCH   6  11
ATOM     11  C   UNL     1       9.186   9.977  18.711  0.00  0.00    +0.000 A 
ATOM     12  C   UNL     1       9.629  10.777  17.630  0.00  0.00    +0.000 A 
ATOM     13  C   UNL     1      10.194  12.037  17.851  0.00  0.00    +0.000 A 
ATOM     14  C   UNL     1      10.293  12.465  19.156  0.00  0.00    +0.000 A 
ATOM     15  C   UNL     1       9.925  11.665  20.213  0.00  0.00    +0.000 A 
ATOM     16  C   UNL     1       9.395  10.408  20.029  0.00  0.00    +0.000 A 
ATOM     17  O   UNL     1      10.072  12.294  21.413  0.00  0.00    +0.000 OA
ATOM     18  C   UNL     1      10.326  13.639  20.958  0.00  0.00    +0.000 C 
ATOM     19  O   UNL     1      10.693  13.700  19.564  0.00  0.00    +0.000 OA
ENDBRANCH   6  11
BRANCH   1  20
ATOM     20  C   UNL     1       4.824   4.495  16.398  0.00  0.00    +0.000 C 
BRANCH  20  27
ATOM     21  C   UNL     1       2.650   6.109  17.860  0.00  0.00    +0.000 C 
ATOM     22  C   UNL     1       2.818   4.623  18.021  0.00  0.00    +0.000 A 
ATOM     23  C   UNL     1       1.925   3.954  18.879  0.00  0.00    +0.000 A 
ATOM     24  C   UNL     1       1.998   2.575  19.068  0.00  0.00    +0.000 A 
ATOM     25  C   UNL     1       2.980   1.843  18.415  0.00  0.00    +0.000 A 
ATOM     26  C   UNL     1       3.890   2.493  17.583  0.00  0.00    +0.000 A 
ATOM     27  C   UNL     1       3.830   3.885  17.369  0.00  0.00    +0.000 A 
ENDBRANCH  20  27
ENDBRANCH   1  20
TORSDOF 3
ENDMDL
MODEL 3
REMARK VINA RESULT:      -8.7      0.481      1.408
REMARK  Name = 
REMARK  4 active torsions:
REMARK  status: ('A' for Active; 'I' for Inactive)
REMARK    1  A    between atoms: C_1  and  C_2
REMARK    2  A    between atoms: C_7  and  C_8
REMARK    3  A    between atoms: C_8  and  N_9
REMARK    4  A    between atoms: C_14  and  C_15
REMARK                            x       y       z     vdW  Elec       q    Type
REMARK                         _______ _______ _______ _____ _____    ______ ____
ROOT
ATOM      1  N   UNL     1       6.260   5.228  17.205  0.00  0.00    +0.000 N 
ATOM      2  C   UNL     1       7.060   4.747  18.235  0.00  0.00    +0.000 A 
ATOM      3  C   UNL     1       7.875   5.564  18.917  0.00  0.00    +0.000 A 
ATOM      4  N   UNL     1       7.941   6.910  18.593  0.00  0.00    +0.000 N 
ATOM      5  N   UNL     1       8.711   7.864  19.170  0.00  0.00    +0.000 NA
ATOM      6  C   UNL     1       8.452   8.987  18.486  0.00  0.00    +0.000 A 
ATOM      7  C   UNL     1       7.476   8.759  17.485  0.00  0.00    +0.000 A 
ATOM      8  C   UNL     1       7.183   7.420  17.568  0.00  0.00    +0.000 A 
ATOM      9  C   UNL     1       6.280   6.584  16.812  0.00  0.00    +0.000 A 
ATOM     10  O   UNL     1       5.576   7.040  15.916  0.00  0.00    +0.000 OA
ENDROOT
BRANCH   6  11
ATOM     11  C   UNL     1       9.192  10.226  18.699  0.00  0.00    +0.000 A 
ATOM     12  C   UNL     1       9.613  10.573  20.005  0.00  0.00    +0.000 A 
ATOM     13  C   UNL     1      10.531  11.607  20.215  0.00  0.00    +0.000 A 
ATOM     14  C   UNL     1      11.009  12.262  19.103  0.00  0.00    +0.000 A 
ATOM     15  C   UNL     1      10.554  11.974  17.837  0.00  0.00    +0.000 A 
ATOM     16  C   UNL     1       9.628  10.983  17.601  0.00  0.00    +0.000 A 
ATOM     17  O   UNL     1      11.182  12.713  16.881  0.00  0.00    +0.000 OA
ATOM     18  C   UNL     1      12.239  13.296  17.671  0.00  0.00    +0.000 C 
ATOM     19  O   UNL     1      11.994  13.202  19.090  0.00  0.00    +0.000 OA
ENDBRANCH   6  11
BRANCH   1  20
ATOM     20  C   UNL     1       5.258   4.348  16.600  0.00  0.00    +0.000 C 
BRANCH  20  27
ATOM     21  C   UNL     1       4.088   1.691  17.620  0.00  0.00    +0.000 C 
ATOM     22  C   UNL     1       3.425   3.022  17.846  0.00  0.00    +0.000 A 
ATOM     23  C   UNL     1       2.216   3.035  18.568  0.00  0.00    +0.000 A 
ATOM     24  C   UNL     1       1.548   4.227  18.839  0.00  0.00    +0.000 A 
ATOM     25  C   UNL     1       2.068   5.428  18.378  0.00  0.00    +0.000 A 
ATOM     26  C   UNL     1       3.250   5.431  17.638  0.00  0.00    +0.000 A 
ATOM     27  C   UNL     1       3.949   4.239  17.358  0.00  0.00    +0.000 A 
ENDBRANCH  20  27
ENDBRANCH   1  20
TORSDOF 3
ENDMDL
MODEL 4
REMARK VINA RESULT:      -8.5      1.028      2.032
REMARK  Name = 
REMARK  4 active torsions:
REMARK  status: ('A' for Active; 'I' for Inactive)
REMARK    1  A    between atoms: C_1  and  C_2
REMARK    2  A    between atoms: C_7  and  C_8
REMARK    3  A    between atoms: C_8  and  N_9
REMARK    4  A    between atoms: C_14  and  C_15
REMARK                            x       y       z     vdW  Elec       q    Type
REMARK                         _______ _______ _______ _____ _____    ______ ____
ROOT
ATOM      1  N   UNL     1       6.016   5.056  17.088  0.00  0.00    +0.000 N 
ATOM      2  C   UNL     1       6.884   4.571  18.060  0.00  0.00    +0.000 A 
ATOM      3  C   UNL     1       7.724   5.391  18.707  0.00  0.00    +0.000 A 
ATOM      4  N   UNL     1       7.749   6.743  18.405  0.00  0.00    +0.000 N 
ATOM      5  N   UNL     1       8.536   7.699  18.953  0.00  0.00    +0.000 NA
ATOM      6  C   UNL     1       8.219   8.830  18.306  0.00  0.00    +0.000 A 
ATOM      7  C   UNL     1       7.189   8.603  17.361  0.00  0.00    +0.000 A 
ATOM      8  C   UNL     1       6.924   7.258  17.436  0.00  0.00    +0.000 A 
ATOM      9  C   UNL     1       5.991   6.419  16.720  0.00  0.00    +0.000 A 
ATOM     10  O   UNL     1       5.228   6.878  15.875  0.00  0.00    +0.000 OA
ENDROOT
BRANCH   6  11
ATOM     11  C   UNL     1       8.950  10.078  18.498  0.00  0.00    +0.000 A 
ATOM     12  C   UNL     1       8.873  11.092  17.514  0.00  0.00    +0.000 A 
ATOM     13  C   UNL     1       9.345  12.383  17.772  0.00  0.00    +0.000 A 
ATOM     14  C   UNL     1       9.877  12.624  19.018  0.00  0.00    +0.000 A 
ATOM     15  C   UNL     1      10.016  11.625  19.955  0.00  0.00    +0.000 A 
ATOM     16  C   UNL     1       9.589  10.338  19.720  0.00  0.00    +0.000 A 
ATOM     17  O   UNL     1      10.532  12.086  21.128  0.00  0.00    +0.000 OA
ATOM     18  C   UNL     1      10.457  13.507  20.893  0.00  0.00    +0.000 C 
ATOM     19  O   UNL     1      10.270  13.835  19.500  0.00  0.00    +0.000 OA
ENDBRANCH   6  11
BRANCH   1  20
ATOM     20  C   UNL     1       4.995   4.169  16.527  0.00  0.00    +0.000 C 
BRANCH  20  27
ATOM     21  C   UNL     1       4.110   1.490  17.754  0.00  0.00    +0.000 C 
ATOM     22  C   UNL     1       3.356   2.775  17.955  0.00  0.00    +0.000 A 
ATOM     23  C   UNL     1       2.196   2.734  18.753  0.00  0.00    +0.000 A 
ATOM     24  C   UNL     1       1.451   3.883  19.007  0.00  0.00    +0.000 A 
ATOM     25  C   UNL     1       1.842   5.093  18.452  0.00  0.00    +0.000 A 
ATOM     26  C   UNL     1       2.972   5.148  17.638  0.00  0.00    +0.000 A 
ATOM     27  C   UNL     1       3.748   4.000  17.374  0.00  0.00    +0.000 A 
ENDBRANCH  20  27
ENDBRANCH   1  20
TORSDOF 3
ENDMDL
MODEL 5
REMARK VINA RESULT:      -8.4      5.722      8.380
REMARK  Name = 
REMARK  4 active torsions:
REMARK  status: ('A' for Active; 'I' for Inactive)
REMARK    1  A    between atoms: C_1  and  C_2
REMARK    2  A    between atoms: C_7  and  C_8
REMARK    3  A    between atoms: C_8  and  N_9
REMARK    4  A    between atoms: C_14  and  C_15
REMARK                            x       y       z     vdW  Elec       q    Type
REMARK                         _______ _______ _______ _____ _____    ______ ____
ROOT
ATOM      1  N   UNL     1       3.248   5.771  18.855  0.00  0.00    +0.000 N 
ATOM      2  C   UNL     1       3.381   6.746  17.872  0.00  0.00    +0.000 A 
ATOM      3  C   UNL     1       2.785   7.940  17.998  0.00  0.00    +0.000 A 
ATOM      4  N   UNL     1       2.011   8.219  19.113  0.00  0.00    +0.000 N 
ATOM      5  N   UNL     1       1.338   9.361  19.389  0.00  0.00    +0.000 NA
ATOM      6  C   UNL     1       0.712   9.129  20.552  0.00  0.00    +0.000 A 
ATOM      7  C   UNL     1       1.020   7.837  21.046  0.00  0.00    +0.000 A 
ATOM      8  C   UNL     1       1.836   7.276  20.096  0.00  0.00    +0.000 A 
ATOM      9  C   UNL     1       2.467   5.979  20.014  0.00  0.00    +0.000 A 
ATOM     10  O   UNL     1       2.342   5.143  20.904  0.00  0.00    +0.000 OA
ENDROOT
BRANCH   6  11
ATOM     11  C   UNL     1      -0.245  10.066  21.131  0.00  0.00    +0.000 A 
ATOM     12  C   UNL     1      -0.490  10.043  22.525  0.00  0.00    +0.000 A 
ATOM     13  C   UNL     1      -1.197  11.076  23.148  0.00  0.00    +0.000 A 
ATOM     14  C   UNL     1      -1.635  12.111  22.354  0.00  0.00    +0.000 A 
ATOM     15  C   UNL     1      -1.458  12.106  20.989  0.00  0.00    +0.000 A 
ATOM     16  C   UNL     1      -0.793  11.089  20.343  0.00  0.00    +0.000 A 
ATOM     17  O   UNL     1      -1.935  13.238  20.402  0.00  0.00    +0.000 OA
ATOM     18  C   UNL     1      -2.190  14.038  21.575  0.00  0.00    +0.000 C 
ATOM     19  O   UNL     1      -2.224  13.259  22.788  0.00  0.00    +0.000 OA
ENDBRANCH   6  11
BRANCH   1  20
ATOM     20  C   UNL     1       4.049   4.549  18.771  0.00  0.00    +0.000 C 
BRANCH  20  27
ATOM     21  C   UNL     1       6.929   5.532  19.227  0.00  0.00    +0.000 C 
ATOM     22  C   UNL     1       6.448   4.979  17.915  0.00  0.00    +0.000 A 
ATOM     23  C   UNL     1       7.375   4.907  16.857  0.00  0.00    +0.000 A 
ATOM     24  C   UNL     1       7.017   4.388  15.615  0.00  0.00    +0.000 A 
ATOM     25  C   UNL     1       5.718   3.948  15.401  0.00  0.00    +0.000 A 
ATOM     26  C   UNL     1       4.780   4.037  16.428  0.00  0.00    +0.000 A 
ATOM     27  C   UNL     1       5.121   4.550  17.697  0.00  0.00    +0.000 A 
ENDBRANCH  20  27
ENDBRANCH   1  20
TORSDOF 3
ENDMDL
MODEL 6
REMARK VINA RESULT:      -8.2      5.957      8.203
REMARK  Name = 
REMARK  4 active torsions:
REMARK  status: ('A' for Active; 'I' for Inactive)
REMARK    1  A    between atoms: C_1  and  C_2
REMARK    2  A    between atoms: C_7  and  C_8
REMARK    3  A    between atoms: C_8  and  N_9
REMARK    4  A    between atoms: C_14  and  C_15
REMARK                            x       y       z     vdW  Elec       q    Type
REMARK                         _______ _______ _______ _____ _____    ______ ____
ROOT
ATOM      1  N   UNL     1       2.859   6.028  18.752  0.00  0.00    +0.000 N 
ATOM      2  C   UNL     1       2.959   6.975  17.739  0.00  0.00    +0.000 A 
ATOM      3  C   UNL     1       2.484   8.218  17.906  0.00  0.00    +0.000 A 
ATOM      4  N   UNL     1       1.870   8.576  19.095  0.00  0.00    +0.000 N 
ATOM      5  N   UNL     1       1.332   9.775  19.422  0.00  0.00    +0.000 NA
ATOM      6  C   UNL     1       0.828   9.612  20.654  0.00  0.00    +0.000 A 
ATOM      7  C   UNL     1       1.081   8.304  21.137  0.00  0.00    +0.000 A 
ATOM      8  C   UNL     1       1.732   7.663  20.113  0.00  0.00    +0.000 A 
ATOM      9  C   UNL     1       2.239   6.316  19.988  0.00  0.00    +0.000 A 
ATOM     10  O   UNL     1       2.148   5.505  20.905  0.00  0.00    +0.000 OA
ENDROOT
BRANCH   6  11
ATOM     11  C   UNL     1       0.026  10.634  21.318  0.00  0.00    +0.000 A 
ATOM     12  C   UNL     1      -0.809  10.273  22.402  0.00  0.00    +0.000 A 
ATOM     13  C   UNL     1      -1.392  11.247  23.217  0.00  0.00    +0.000 A 
ATOM     14  C   UNL     1      -1.113  12.564  22.927  0.00  0.00    +0.000 A 
ATOM     15  C   UNL     1      -0.356  12.923  21.835  0.00  0.00    +0.000 A 
ATOM     16  C   UNL     1       0.206  11.988  20.996  0.00  0.00    +0.000 A 
ATOM     17  O   UNL     1      -0.174  14.270  21.753  0.00  0.00    +0.000 OA
ATOM     18  C   UNL     1      -0.685  14.669  23.042  0.00  0.00    +0.000 C 
ATOM     19  O   UNL     1      -1.478  13.642  23.673  0.00  0.00    +0.000 OA
ENDBRANCH   6  11
BRANCH   1  20
ATOM     20  C   UNL     1       3.540   4.741  18.604  0.00  0.00    +0.000 C 
BRANCH  20  27
ATOM     21  C   UNL     1       4.924   3.923  15.980  0.00  0.00    +0.000 C 
ATOM     22  C   UNL     1       5.669   4.469  17.166  0.00  0.00    +0.000 A 
ATOM     23  C   UNL     1       7.065   4.613  17.051  0.00  0.00    +0.000 A 
ATOM     24  C   UNL     1       7.828   5.131  18.095  0.00  0.00    +0.000 A 
ATOM     25  C   UNL     1       7.210   5.497  19.283  0.00  0.00    +0.000 A 
ATOM     26  C   UNL     1       5.833   5.335  19.425  0.00  0.00    +0.000 A 
ATOM     27  C   UNL     1       5.038   4.822  18.379  0.00  0.00    +0.000 A 
ENDBRANCH  20  27
ENDBRANCH   1  20
TORSDOF 3
ENDMDL
MODEL 7
REMARK VINA RESULT:      -8.2      1.364      2.009
REMARK  Name = 
REMARK  4 active torsions:
REMARK  status: ('A' for Active; 'I' for Inactive)
REMARK    1  A    between atoms: C_1  and  C_2
REMARK    2  A    between atoms: C_7  and  C_8
REMARK    3  A    between atoms: C_8  and  N_9
REMARK    4  A    between atoms: C_14  and  C_15
REMARK                            x       y       z     vdW  Elec       q    Type
REMARK                         _______ _______ _______ _____ _____    ______ ____
ROOT
ATOM      1  N   UNL     1       5.636   5.073  17.519  0.00  0.00    +0.000 N 
ATOM      2  C   UNL     1       5.105   5.935  16.566  0.00  0.00    +0.000 A 
ATOM      3  C   UNL     1       5.599   7.170  16.400  0.00  0.00    +0.000 A 
ATOM      4  N   UNL     1       6.646   7.614  17.192  0.00  0.00    +0.000 N 
ATOM      5  N   UNL     1       7.251   8.825  17.162  0.00  0.00    +0.000 NA
ATOM      6  C   UNL     1       8.170   8.785  18.138  0.00  0.00    +0.000 A 
ATOM      7  C   UNL     1       8.179   7.519  18.774  0.00  0.00    +0.000 A 
ATOM      8  C   UNL     1       7.184   6.801  18.159  0.00  0.00    +0.000 A 
ATOM      9  C   UNL     1       6.697   5.458  18.368  0.00  0.00    +0.000 A 
ATOM     10  O   UNL     1       7.194   4.715  19.210  0.00  0.00    +0.000 OA
ENDROOT
BRANCH   6  11
ATOM     11  C   UNL     1       8.947   9.954  18.536  0.00  0.00    +0.000 A 
ATOM     12  C   UNL     1       9.240  10.166  19.904  0.00  0.00    +0.000 A 
ATOM     13  C   UNL     1      10.182  11.120  20.299  0.00  0.00    +0.000 A 
ATOM     14  C   UNL     1      10.813  11.834  19.306  0.00  0.00    +0.000 A 
ATOM     15  C   UNL     1      10.484  11.680  17.978  0.00  0.00    +0.000 A 
ATOM     16  C   UNL     1       9.539  10.770  17.561  0.00  0.00    +0.000 A 
ATOM     17  O   UNL     1      11.251  12.455  17.162  0.00  0.00    +0.000 OA
ATOM     18  C   UNL     1      12.244  12.905  18.107  0.00  0.00    +0.000 C 
ATOM     19  O   UNL     1      11.841  12.709  19.478  0.00  0.00    +0.000 OA
ENDBRANCH   6  11
BRANCH   1  20
ATOM     20  C   UNL     1       5.192   3.679  17.555  0.00  0.00    +0.000 C 
BRANCH  20  27
ATOM     21  C   UNL     1       4.647   2.069  20.121  0.00  0.00    +0.000 C 
ATOM     22  C   UNL     1       3.561   2.735  19.322  0.00  0.00    +0.000 A 
ATOM     23  C   UNL     1       2.238   2.613  19.788  0.00  0.00    +0.000 A 
ATOM     24  C   UNL     1       1.176   3.217  19.120  0.00  0.00    +0.000 A 
ATOM     25  C   UNL     1       1.414   3.939  17.959  0.00  0.00    +0.000 A 
ATOM     26  C   UNL     1       2.714   4.048  17.467  0.00  0.00    +0.000 A 
ATOM     27  C   UNL     1       3.807   3.454  18.131  0.00  0.00    +0.000 A 
ENDBRANCH  20  27
ENDBRANCH   1  20
TORSDOF 3
ENDMDL
MODEL 8
REMARK VINA RESULT:      -8.2      7.560     10.443
REMARK  Name = 
REMARK  4 active torsions:
REMARK  status: ('A' for Active; 'I' for Inactive)
REMARK    1  A    between atoms: C_1  and  C_2
REMARK    2  A    between atoms: C_7  and  C_8
REMARK    3  A    between atoms: C_8  and  N_9
REMARK    4  A    between atoms: C_14  and  C_15
REMARK                            x       y       z     vdW  Elec       q    Type
REMARK                         _______ _______ _______ _____ _____    ______ ____
ROOT
ATOM      1  N   UNL     1      -1.056  11.598  22.096  0.00  0.00    +0.000 N 
ATOM      2  C   UNL     1      -1.000  10.651  23.112  0.00  0.00    +0.000 A 
ATOM      3  C   UNL     1      -0.305   9.514  22.961  0.00  0.00    +0.000 A 
ATOM      4  N   UNL     1       0.363   9.260  21.774  0.00  0.00    +0.000 N 
ATOM      5  N   UNL     1       1.097   8.167  21.455  0.00  0.00    +0.000 NA
ATOM      6  C   UNL     1       1.501   8.370  20.192  0.00  0.00    +0.000 A 
ATOM      7  C   UNL     1       1.053   9.625  19.711  0.00  0.00    +0.000 A 
ATOM      8  C   UNL     1       0.315  10.160  20.738  0.00  0.00    +0.000 A 
ATOM      9  C   UNL     1      -0.409  11.404  20.856  0.00  0.00    +0.000 A 
ATOM     10  O   UNL     1      -0.429  12.228  19.946  0.00  0.00    +0.000 OA
ENDROOT
BRANCH   6  11
ATOM     11  C   UNL     1       2.201   7.351  19.417  0.00  0.00    +0.000 A 
ATOM     12  C   UNL     1       2.806   7.703  18.186  0.00  0.00    +0.000 A 
ATOM     13  C   UNL     1       3.692   6.831  17.545  0.00  0.00    +0.000 A 
ATOM     14  C   UNL     1       3.953   5.629  18.162  0.00  0.00    +0.000 A 
ATOM     15  C   UNL     1       3.317   5.254  19.324  0.00  0.00    +0.000 A 
ATOM     16  C   UNL     1       2.418   6.077  19.962  0.00  0.00    +0.000 A 
ATOM     17  O   UNL     1       3.746   4.045  19.781  0.00  0.00    +0.000 OA
ATOM     18  C   UNL     1       4.884   3.842  18.918  0.00  0.00    +0.000 C 
ATOM     19  O   UNL     1       4.873   4.708  17.765  0.00  0.00    +0.000 OA
ENDBRANCH   6  11
BRANCH   1  20
ATOM     20  C   UNL     1      -1.675  12.898  22.357  0.00  0.00    +0.000 C 
BRANCH  20  27
ATOM     21  C   UNL     1      -3.877  12.874  20.208  0.00  0.00    +0.000 C 
ATOM     22  C   UNL     1      -4.167  12.823  21.682  0.00  0.00    +0.000 A 
ATOM     23  C   UNL     1      -5.516  12.754  22.081  0.00  0.00    +0.000 A 
ATOM     24  C   UNL     1      -5.871  12.682  23.426  0.00  0.00    +0.000 A 
ATOM     25  C   UNL     1      -4.883  12.698  24.400  0.00  0.00    +0.000 A 
ATOM     26  C   UNL     1      -3.544  12.794  24.026  0.00  0.00    +0.000 A 
ATOM     27  C   UNL     1      -3.160  12.858  22.670  0.00  0.00    +0.000 A 
ENDBRANCH  20  27
ENDBRANCH   1  20
TORSDOF 3
ENDMDL
MODEL 9
REMARK VINA RESULT:      -8.1      5.499      8.699
REMARK  Name = 
REMARK  4 active torsions:
REMARK  status: ('A' for Active; 'I' for Inactive)
REMARK    1  A    between atoms: C_1  and  C_2
REMARK    2  A    between atoms: C_7  and  C_8
REMARK    3  A    between atoms: C_8  and  N_9
REMARK    4  A    between atoms: C_14  and  C_15
REMARK                            x       y       z     vdW  Elec       q    Type
REMARK                         _______ _______ _______ _____ _____    ______ ____
ROOT
ATOM      1  N   UNL     1       0.275  10.233  19.881  0.00  0.00    +0.000 N 
ATOM      2  C   UNL     1       0.192   9.286  20.896  0.00  0.00    +0.000 A 
ATOM      3  C   UNL     1       0.929   8.167  20.861  0.00  0.00    +0.000 A 
ATOM      4  N   UNL     1       1.784   7.930  19.796  0.00  0.00    +0.000 N 
ATOM      5  N   UNL     1       2.586   6.856  19.601  0.00  0.00    +0.000 NA
ATOM      6  C   UNL     1       3.181   7.070  18.418  0.00  0.00    +0.000 A 
ATOM      7  C   UNL     1       2.784   8.313  17.868  0.00  0.00    +0.000 A 
ATOM      8  C   UNL     1       1.880   8.829  18.762  0.00  0.00    +0.000 A 
ATOM      9  C   UNL     1       1.117  10.056  18.760  0.00  0.00    +0.000 A 
ATOM     10  O   UNL     1       1.221  10.879  17.856  0.00  0.00    +0.000 OA
ENDROOT
BRANCH   6  11
ATOM     11  C   UNL     1       4.020   6.069  17.768  0.00  0.00    +0.000 A 
ATOM     12  C   UNL     1       3.608   4.715  17.751  0.00  0.00    +0.000 A 
ATOM     13  C   UNL     1       4.246   3.779  16.931  0.00  0.00    +0.000 A 
ATOM     14  C   UNL     1       5.279   4.230  16.142  0.00  0.00    +0.000 A 
ATOM     15  C   UNL     1       5.728   5.530  16.204  0.00  0.00    +0.000 A 
ATOM     16  C   UNL     1       5.140   6.467  17.023  0.00  0.00    +0.000 A 
ATOM     17  O   UNL     1       6.733   5.773  15.318  0.00  0.00    +0.000 OA
ATOM     18  C   UNL     1       6.676   4.560  14.539  0.00  0.00    +0.000 C 
ATOM     19  O   UNL     1       5.935   3.509  15.193  0.00  0.00    +0.000 OA
ENDBRANCH   6  11
BRANCH   1  20
ATOM     20  C   UNL     1      -0.409  11.517  20.036  0.00  0.00    +0.000 C 
BRANCH  20  27
ATOM     21  C   UNL     1      -2.600  13.330  21.211  0.00  0.00    +0.000 C 
ATOM     22  C   UNL     1      -2.834  12.408  20.047  0.00  0.00    +0.000 A 
ATOM     23  C   UNL     1      -4.120  12.391  19.474  0.00  0.00    +0.000 A 
ATOM     24  C   UNL     1      -4.415  11.581  18.380  0.00  0.00    +0.000 A 
ATOM     25  C   UNL     1      -3.433  10.757  17.849  0.00  0.00    +0.000 A 
ATOM     26  C   UNL     1      -2.161  10.740  18.420  0.00  0.00    +0.000 A 
ATOM     27  C   UNL     1      -1.836  11.558  19.522  0.00  0.00    +0.000 A 
ENDBRANCH  20  27
ENDBRANCH   1  20
TORSDOF 3
ENDMDL
