MODEL 1
REMARK VINA RESULT:      -7.7      0.000      0.000
REMARK  Name = 
REMARK  4 active torsions:
REMARK  status: ('A' for Active; 'I' for Inactive)
REMARK    1  A    between atoms: N_3  and  C_4
REMARK    2  A    between atoms: C_4  and  C_5
REMARK    3  A    between atoms: C_7  and  C_8
REMARK    4  A    between atoms: C_17  and  C_18
REMARK                            x       y       z     vdW  Elec       q    Type
REMARK                         _______ _______ _______ _____ _____    ______ ____
ROOT
ATOM      1  O   UNL     1       2.279   7.666  20.380  0.00  0.00    +0.000 OA
ATOM      2  C   UNL     1       2.125   7.161  19.269  0.00  0.00    +0.000 C 
ATOM      3  N   UNL     1       1.945   7.932  18.156  0.00  0.00    +0.000 N 
ATOM      4  N   UNL     1       2.139   5.801  19.045  0.00  0.00    +0.000 N 
ATOM      5  C   UNL     1       2.245   4.878  20.175  0.00  0.00    +0.000 C 
ATOM      6  C   UNL     1       3.379   3.858  19.996  0.00  0.00    +0.000 C 
ATOM      7  O   UNL     1       3.434   3.272  18.684  0.00  0.00    +0.000 OA
ATOM      8  C   UNL     1       3.469   4.259  17.627  0.00  0.00    +0.000 C 
ATOM      9  C   UNL     1       2.199   5.137  17.738  0.00  0.00    +0.000 C 
ATOM     10  H   UNL     1       1.301   7.562  17.469  0.00  0.00    +0.000 HD
ENDROOT
BRANCH   8  11
ATOM     11  C   UNL     1       4.808   4.992  17.553  0.00  0.00    +0.000 A 
ATOM     12  C   UNL     1       4.904   6.355  17.220  0.00  0.00    +0.000 A 
ATOM     13  C   UNL     1       6.138   7.009  17.168  0.00  0.00    +0.000 A 
ATOM     14  C   UNL     1       7.308   6.304  17.419  0.00  0.00    +0.000 A 
ATOM     15  C   UNL     1       7.233   4.948  17.711  0.00  0.00    +0.000 A 
ATOM     16  F   UNL     1       8.359   4.262  17.942  0.00  0.00    +0.000 F 
ATOM     17  C   UNL     1       6.006   4.290  17.770  0.00  0.00    +0.000 A 
ENDBRANCH   8  11
BRANCH   3  18
ATOM     18  C   UNL     1       1.942   9.378  18.270  0.00  0.00    +0.000 C 
BRANCH  18  19
ATOM     19  C   UNL     1       0.550   9.876  18.147  0.00  0.00    +0.000 A 
ATOM     20  N   UNL     1      -0.456   9.401  17.441  0.00  0.00    +0.000 NA
ATOM     21  C   UNL     1      -1.441  10.326  17.696  0.00  0.00    +0.000 A 
ATOM     22  N   UNL     1      -1.085  11.312  18.527  0.00  0.00    +0.000 NA
ATOM     23  O   UNL     1       0.243  11.013  18.835  0.00  0.00    +0.000 OA
BRANCH  21  24
ATOM     24  C   UNL     1      -2.822  10.275  17.062  0.00  0.00    +0.000 C 
ATOM     25  C   UNL     1      -3.082  11.153  15.851  0.00  0.00    +0.000 C 
ATOM     26  C   UNL     1      -2.984   9.677  15.680  0.00  0.00    +0.000 C 
ENDBRANCH  21  24
ENDBRANCH  18  19
ENDBRANCH   3  18
TORSDOF 4
ENDMDL
MODEL 2
REMARK VINA RESULT:      -7.6      4.552      7.017
REMARK  Name = 
REMARK  4 active torsions:
REMARK  status: ('A' for Active; 'I' for Inactive)
REMARK    1  A    between atoms: N_3  and  C_4
REMARK    2  A    between atoms: C_4  and  C_5
REMARK    3  A    between atoms: C_7  and  C_8
REMARK    4  A    between atoms: C_17  and  C_18
REMARK                            x       y       z     vdW  Elec       q    Type
REMARK                         _______ _______ _______ _____ _____    ______ ____
ROOT
ATOM      1  O   UNL     1       2.760   2.806  16.542  0.00  0.00    +0.000 OA
ATOM      2  C   UNL     1       3.347   2.921  17.617  0.00  0.00    +0.000 C 
ATOM      3  N   UNL     1       4.649   3.330  17.677  0.00  0.00    +0.000 N 
ATOM      4  N   UNL     1       2.753   2.673  18.837  0.00  0.00    +0.000 N 
ATOM      5  C   UNL     1       1.386   2.153  18.888  0.00  0.00    +0.000 C 
ATOM      6  C   UNL     1       0.474   2.989  19.798  0.00  0.00    +0.000 C 
ATOM      7  O   UNL     1       1.073   3.341  21.057  0.00  0.00    +0.000 OA
ATOM      8  C   UNL     1       2.362   3.979  20.910  0.00  0.00    +0.000 C 
ATOM      9  C   UNL     1       3.302   3.009  20.155  0.00  0.00    +0.000 C 
ATOM     10  H   UNL     1       5.211   2.889  18.393  0.00  0.00    +0.000 HD
ENDROOT
BRANCH   8  11
ATOM     11  C   UNL     1       2.253   5.400  20.358  0.00  0.00    +0.000 A 
ATOM     12  C   UNL     1       2.921   5.808  19.188  0.00  0.00    +0.000 A 
ATOM     13  C   UNL     1       2.801   7.110  18.695  0.00  0.00    +0.000 A 
ATOM     14  C   UNL     1       2.031   8.042  19.379  0.00  0.00    +0.000 A 
ATOM     15  C   UNL     1       1.397   7.666  20.556  0.00  0.00    +0.000 A 
ATOM     16  F   UNL     1       0.664   8.565  21.225  0.00  0.00    +0.000 F 
ATOM     17  C   UNL     1       1.508   6.369  21.051  0.00  0.00    +0.000 A 
ENDBRANCH   8  11
BRANCH   3  18
ATOM     18  C   UNL     1       5.364   3.648  16.457  0.00  0.00    +0.000 C 
BRANCH  18  19
ATOM     19  C   UNL     1       6.152   4.888  16.660  0.00  0.00    +0.000 A 
ATOM     20  N   UNL     1       6.004   5.845  17.553  0.00  0.00    +0.000 NA
ATOM     21  C   UNL     1       6.989   6.729  17.186  0.00  0.00    +0.000 A 
ATOM     22  N   UNL     1       7.728   6.346  16.138  0.00  0.00    +0.000 NA
ATOM     23  O   UNL     1       7.175   5.113  15.786  0.00  0.00    +0.000 OA
BRANCH  21  24
ATOM     24  C   UNL     1       7.215   8.065  17.876  0.00  0.00    +0.000 C 
ATOM     25  C   UNL     1       8.492   8.245  18.679  0.00  0.00    +0.000 C 
ATOM     26  C   UNL     1       8.326   8.974  17.390  0.00  0.00    +0.000 C 
ENDBRANCH  21  24
ENDBRANCH  18  19
ENDBRANCH   3  18
TORSDOF 4
ENDMDL
MODEL 3
REMARK VINA RESULT:      -7.6      1.919      2.579
REMARK  Name = 
REMARK  4 active torsions:
REMARK  status: ('A' for Active; 'I' for Inactive)
REMARK    1  A    between atoms: N_3  and  C_4
REMARK    2  A    between atoms: C_4  and  C_5
REMARK    3  A    between atoms: C_7  and  C_8
REMARK    4  A    between atoms: C_17  and  C_18
REMARK                            x       y       z     vdW  Elec       q    Type
REMARK                         _______ _______ _______ _____ _____    ______ ____
ROOT
ATOM      1  O   UNL     1       2.545   4.740  21.541  0.00  0.00    +0.000 OA
ATOM      2  C   UNL     1       2.006   4.856  20.441  0.00  0.00    +0.000 C 
ATOM      3  N   UNL     1       1.462   6.041  20.036  0.00  0.00    +0.000 N 
ATOM      4  N   UNL     1       1.921   3.827  19.526  0.00  0.00    +0.000 N 
ATOM      5  C   UNL     1       2.400   2.492  19.885  0.00  0.00    +0.000 C 
ATOM      6  C   UNL     1       3.386   1.925  18.853  0.00  0.00    +0.000 C 
ATOM      7  O   UNL     1       2.971   2.112  17.488  0.00  0.00    +0.000 OA
ATOM      8  C   UNL     1       2.651   3.488  17.179  0.00  0.00    +0.000 C 
ATOM      9  C   UNL     1       1.512   3.946  18.122  0.00  0.00    +0.000 C 
ATOM     10  H   UNL     1       0.614   5.967  19.490  0.00  0.00    +0.000 HD
ENDROOT
BRANCH   8  11
ATOM     11  C   UNL     1       3.891   4.378  17.114  0.00  0.00    +0.000 A 
ATOM     12  C   UNL     1       3.860   5.741  17.461  0.00  0.00    +0.000 A 
ATOM     13  C   UNL     1       5.008   6.536  17.403  0.00  0.00    +0.000 A 
ATOM     14  C   UNL     1       6.208   5.989  16.968  0.00  0.00    +0.000 A 
ATOM     15  C   UNL     1       6.247   4.655  16.586  0.00  0.00    +0.000 A 
ATOM     16  F   UNL     1       7.399   4.127  16.154  0.00  0.00    +0.000 F 
ATOM     17  C   UNL     1       5.108   3.855  16.645  0.00  0.00    +0.000 A 
ENDBRANCH   8  11
BRANCH   3  18
ATOM     18  C   UNL     1       1.520   7.199  20.907  0.00  0.00    +0.000 C 
BRANCH  18  19
ATOM     19  C   UNL     1       1.343   8.430  20.098  0.00  0.00    +0.000 A 
ATOM     20  N   UNL     1       0.631   9.509  20.349  0.00  0.00    +0.000 NA
ATOM     21  C   UNL     1       0.826  10.248  19.207  0.00  0.00    +0.000 A 
ATOM     22  N   UNL     1       1.628   9.680  18.299  0.00  0.00    +0.000 NA
ATOM     23  O   UNL     1       1.980   8.466  18.892  0.00  0.00    +0.000 OA
BRANCH  21  24
ATOM     24  C   UNL     1       0.160  11.591  18.955  0.00  0.00    +0.000 C 
ATOM     25  C   UNL     1      -1.265  11.592  18.429  0.00  0.00    +0.000 C 
ATOM     26  C   UNL     1      -0.999  12.022  19.831  0.00  0.00    +0.000 C 
ENDBRANCH  21  24
ENDBRANCH  18  19
ENDBRANCH   3  18
TORSDOF 4
ENDMDL
MODEL 4
REMARK VINA RESULT:      -7.6      4.252      7.150
REMARK  Name = 
REMARK  4 active torsions:
REMARK  status: ('A' for Active; 'I' for Inactive)
REMARK    1  A    between atoms: N_3  and  C_4
REMARK    2  A    between atoms: C_4  and  C_5
REMARK    3  A    between atoms: C_7  and  C_8
REMARK    4  A    between atoms: C_17  and  C_18
REMARK                            x       y       z     vdW  Elec       q    Type
REMARK                         _______ _______ _______ _____ _____    ______ ____
ROOT
ATOM      1  O   UNL     1       4.724   4.297  16.016  0.00  0.00    +0.000 OA
ATOM      2  C   UNL     1       4.889   4.420  17.229  0.00  0.00    +0.000 C 
ATOM      3  N   UNL     1       5.958   5.102  17.737  0.00  0.00    +0.000 N 
ATOM      4  N   UNL     1       4.018   3.909  18.168  0.00  0.00    +0.000 N 
ATOM      5  C   UNL     1       2.882   3.092  17.740  0.00  0.00    +0.000 C 
ATOM      6  C   UNL     1       1.549   3.594  18.314  0.00  0.00    +0.000 C 
ATOM      7  O   UNL     1       1.606   3.928  19.711  0.00  0.00    +0.000 OA
ATOM      8  C   UNL     1       2.673   4.853  20.027  0.00  0.00    +0.000 C 
ATOM      9  C   UNL     1       4.015   4.209  19.604  0.00  0.00    +0.000 C 
ATOM     10  H   UNL     1       6.353   4.721  18.587  0.00  0.00    +0.000 HD
ENDROOT
BRANCH   8  11
ATOM     11  C   UNL     1       2.395   6.265  19.515  0.00  0.00    +0.000 A 
ATOM     12  C   UNL     1       2.808   6.700  18.242  0.00  0.00    +0.000 A 
ATOM     13  C   UNL     1       2.536   7.994  17.789  0.00  0.00    +0.000 A 
ATOM     14  C   UNL     1       1.869   8.891  18.613  0.00  0.00    +0.000 A 
ATOM     15  C   UNL     1       1.488   8.489  19.886  0.00  0.00    +0.000 A 
ATOM     16  F   UNL     1       0.855   9.355  20.687  0.00  0.00    +0.000 F 
ATOM     17  C   UNL     1       1.752   7.200  20.343  0.00  0.00    +0.000 A 
ENDBRANCH   8  11
BRANCH   3  18
ATOM     18  C   UNL     1       6.922   5.707  16.840  0.00  0.00    +0.000 C 
BRANCH  18  19
ATOM     19  C   UNL     1       7.497   6.915  17.481  0.00  0.00    +0.000 A 
ATOM     20  N   UNL     1       7.462   8.174  17.092  0.00  0.00    +0.000 NA
ATOM     21  C   UNL     1       8.214   8.790  18.064  0.00  0.00    +0.000 A 
ATOM     22  N   UNL     1       8.677   7.975  19.018  0.00  0.00    +0.000 NA
ATOM     23  O   UNL     1       8.196   6.722  18.636  0.00  0.00    +0.000 OA
BRANCH  21  24
ATOM     24  C   UNL     1       8.541  10.275  18.054  0.00  0.00    +0.000 C 
ATOM     25  C   UNL     1       9.148  10.878  19.308  0.00  0.00    +0.000 C 
ATOM     26  C   UNL     1       9.990  10.716  18.089  0.00  0.00    +0.000 C 
ENDBRANCH  21  24
ENDBRANCH  18  19
ENDBRANCH   3  18
TORSDOF 4
ENDMDL
MODEL 5
REMARK VINA RESULT:      -7.5      4.321      6.851
REMARK  Name = 
REMARK  4 active torsions:
REMARK  status: ('A' for Active; 'I' for Inactive)
REMARK    1  A    between atoms: N_3  and  C_4
REMARK    2  A    between atoms: C_4  and  C_5
REMARK    3  A    between atoms: C_7  and  C_8
REMARK    4  A    between atoms: C_17  and  C_18
REMARK                            x       y       z     vdW  Elec       q    Type
REMARK                         _______ _______ _______ _____ _____    ______ ____
ROOT
ATOM      1  O   UNL     1       2.423   2.392  16.774  0.00  0.00    +0.000 OA
ATOM      2  C   UNL     1       3.142   2.644  17.740  0.00  0.00    +0.000 C 
ATOM      3  N   UNL     1       4.469   2.925  17.585  0.00  0.00    +0.000 N 
ATOM      4  N   UNL     1       2.680   2.685  19.039  0.00  0.00    +0.000 N 
ATOM      5  C   UNL     1       1.294   2.323  19.331  0.00  0.00    +0.000 C 
ATOM      6  C   UNL     1       0.566   3.399  20.150  0.00  0.00    +0.000 C 
ATOM      7  O   UNL     1       1.337   3.915  21.248  0.00  0.00    +0.000 OA
ATOM      8  C   UNL     1       2.645   4.384  20.848  0.00  0.00    +0.000 C 
ATOM      9  C   UNL     1       3.409   3.202  20.203  0.00  0.00    +0.000 C 
ATOM     10  H   UNL     1       5.078   2.570  18.311  0.00  0.00    +0.000 HD
ENDROOT
BRANCH   8  11
ATOM     11  C   UNL     1       2.582   5.682  20.044  0.00  0.00    +0.000 A 
ATOM     12  C   UNL     1       1.784   6.773  20.435  0.00  0.00    +0.000 A 
ATOM     13  C   UNL     1       1.747   7.955  19.691  0.00  0.00    +0.000 A 
ATOM     14  C   UNL     1       2.488   8.061  18.521  0.00  0.00    +0.000 A 
ATOM     15  C   UNL     1       3.251   6.979  18.101  0.00  0.00    +0.000 A 
ATOM     16  F   UNL     1       3.957   7.073  16.967  0.00  0.00    +0.000 F 
ATOM     17  C   UNL     1       3.296   5.799  18.840  0.00  0.00    +0.000 A 
ENDBRANCH   8  11
BRANCH   3  18
ATOM     18  C   UNL     1       5.056   2.940  16.259  0.00  0.00    +0.000 C 
BRANCH  18  19
ATOM     19  C   UNL     1       5.977   4.097  16.143  0.00  0.00    +0.000 A 
ATOM     20  N   UNL     1       6.421   4.917  17.074  0.00  0.00    +0.000 NA
ATOM     21  C   UNL     1       7.175   5.798  16.336  0.00  0.00    +0.000 A 
ATOM     22  N   UNL     1       7.221   5.538  15.024  0.00  0.00    +0.000 NA
ATOM     23  O   UNL     1       6.426   4.400  14.892  0.00  0.00    +0.000 OA
BRANCH  21  24
ATOM     24  C   UNL     1       7.879   7.005  16.936  0.00  0.00    +0.000 C 
ATOM     25  C   UNL     1       7.030   8.042  17.650  0.00  0.00    +0.000 C 
ATOM     26  C   UNL     1       7.933   7.161  18.442  0.00  0.00    +0.000 C 
ENDBRANCH  21  24
ENDBRANCH  18  19
ENDBRANCH   3  18
TORSDOF 4
ENDMDL
MODEL 6
REMARK VINA RESULT:      -7.4      4.320      6.914
REMARK  Name = 
REMARK  4 active torsions:
REMARK  status: ('A' for Active; 'I' for Inactive)
REMARK    1  A    between atoms: N_3  and  C_4
REMARK    2  A    between atoms: C_4  and  C_5
REMARK    3  A    between atoms: C_7  and  C_8
REMARK    4  A    between atoms: C_17  and  C_18
REMARK                            x       y       z     vdW  Elec       q    Type
REMARK                         _______ _______ _______ _____ _____    ______ ____
ROOT
ATOM      1  O   UNL     1       5.186   3.547  16.525  0.00  0.00    +0.000 OA
ATOM      2  C   UNL     1       5.128   3.737  17.739  0.00  0.00    +0.000 C 
ATOM      3  N   UNL     1       6.155   4.331  18.416  0.00  0.00    +0.000 N 
ATOM      4  N   UNL     1       4.038   3.393  18.510  0.00  0.00    +0.000 N 
ATOM      5  C   UNL     1       2.914   2.678  17.904  0.00  0.00    +0.000 C 
ATOM      6  C   UNL     1       1.567   3.363  18.177  0.00  0.00    +0.000 C 
ATOM      7  O   UNL     1       1.395   3.787  19.540  0.00  0.00    +0.000 OA
ATOM      8  C   UNL     1       2.486   4.609  20.017  0.00  0.00    +0.000 C 
ATOM      9  C   UNL     1       3.796   3.793  19.901  0.00  0.00    +0.000 C 
ATOM     10  H   UNL     1       6.331   3.971  19.345  0.00  0.00    +0.000 HD
ENDROOT
BRANCH   8  11
ATOM     11  C   UNL     1       2.486   6.003  19.392  0.00  0.00    +0.000 A 
ATOM     12  C   UNL     1       3.189   6.300  18.210  0.00  0.00    +0.000 A 
ATOM     13  C   UNL     1       3.168   7.580  17.649  0.00  0.00    +0.000 A 
ATOM     14  C   UNL     1       2.466   8.600  18.278  0.00  0.00    +0.000 A 
ATOM     15  C   UNL     1       1.799   8.333  19.466  0.00  0.00    +0.000 A 
ATOM     16  F   UNL     1       1.131   9.317  20.080  0.00  0.00    +0.000 F 
ATOM     17  C   UNL     1       1.811   7.059  20.028  0.00  0.00    +0.000 A 
ENDBRANCH   8  11
BRANCH   3  18
ATOM     18  C   UNL     1       7.340   4.761  17.701  0.00  0.00    +0.000 C 
BRANCH  18  19
ATOM     19  C   UNL     1       7.339   6.241  17.596  0.00  0.00    +0.000 A 
ATOM     20  N   UNL     1       8.027   7.135  18.276  0.00  0.00    +0.000 NA
ATOM     21  C   UNL     1       7.542   8.314  17.763  0.00  0.00    +0.000 A 
ATOM     22  N   UNL     1       6.619   8.174  16.804  0.00  0.00    +0.000 NA
ATOM     23  O   UNL     1       6.484   6.790  16.686  0.00  0.00    +0.000 OA
BRANCH  21  24
ATOM     24  C   UNL     1       7.976   9.685  18.259  0.00  0.00    +0.000 C 
ATOM     25  C   UNL     1       9.172   9.759  19.190  0.00  0.00    +0.000 C 
ATOM     26  C   UNL     1       9.297  10.260  17.793  0.00  0.00    +0.000 C 
ENDBRANCH  21  24
ENDBRANCH  18  19
ENDBRANCH   3  18
TORSDOF 4
ENDMDL
MODEL 7
REMARK VINA RESULT:      -7.4      1.238      1.342
REMARK  Name = 
REMARK  4 active torsions:
REMARK  status: ('A' for Active; 'I' for Inactive)
REMARK    1  A    between atoms: N_3  and  C_4
REMARK    2  A    between atoms: C_4  and  C_5
REMARK    3  A    between atoms: C_7  and  C_8
REMARK    4  A    between atoms: C_17  and  C_18
REMARK                            x       y       z     vdW  Elec       q    Type
REMARK                         _______ _______ _______ _____ _____    ______ ____
ROOT
ATOM      1  O   UNL     1       2.596   7.310  20.114  0.00  0.00    +0.000 OA
ATOM      2  C   UNL     1       2.331   6.733  19.060  0.00  0.00    +0.000 C 
ATOM      3  N   UNL     1       2.262   7.410  17.876  0.00  0.00    +0.000 N 
ATOM      4  N   UNL     1       2.103   5.376  18.974  0.00  0.00    +0.000 N 
ATOM      5  C   UNL     1       2.071   4.564  20.192  0.00  0.00    +0.000 C 
ATOM      6  C   UNL     1       3.006   3.349  20.111  0.00  0.00    +0.000 C 
ATOM      7  O   UNL     1       2.927   2.636  18.864  0.00  0.00    +0.000 OA
ATOM      8  C   UNL     1       3.110   3.492  17.712  0.00  0.00    +0.000 C 
ATOM      9  C   UNL     1       2.016   4.586  17.741  0.00  0.00    +0.000 C 
ATOM     10  H   UNL     1       1.549   7.094  17.233  0.00  0.00    +0.000 HD
ENDROOT
BRANCH   8  11
ATOM     11  C   UNL     1       4.554   3.967  17.558  0.00  0.00    +0.000 A 
ATOM     12  C   UNL     1       5.283   4.522  18.626  0.00  0.00    +0.000 A 
ATOM     13  C   UNL     1       6.606   4.942  18.466  0.00  0.00    +0.000 A 
ATOM     14  C   UNL     1       7.220   4.843  17.224  0.00  0.00    +0.000 A 
ATOM     15  C   UNL     1       6.502   4.333  16.151  0.00  0.00    +0.000 A 
ATOM     16  F   UNL     1       7.086   4.246  14.950  0.00  0.00    +0.000 F 
ATOM     17  C   UNL     1       5.184   3.907  16.303  0.00  0.00    +0.000 A 
ENDBRANCH   8  11
BRANCH   3  18
ATOM     18  C   UNL     1       2.514   8.838  17.843  0.00  0.00    +0.000 C 
BRANCH  18  19
ATOM     19  C   UNL     1       1.251   9.565  18.122  0.00  0.00    +0.000 A 
ATOM     20  N   UNL     1       0.024   9.306  17.720  0.00  0.00    +0.000 NA
ATOM     21  C   UNL     1      -0.676  10.362  18.254  0.00  0.00    +0.000 A 
ATOM     22  N   UNL     1       0.061  11.223  18.966  0.00  0.00    +0.000 NA
ATOM     23  O   UNL     1       1.349  10.691  18.885  0.00  0.00    +0.000 OA
BRANCH  21  24
ATOM     24  C   UNL     1      -2.164  10.579  18.032  0.00  0.00    +0.000 C 
ATOM     25  C   UNL     1      -2.610  11.143  16.695  0.00  0.00    +0.000 C 
ATOM     26  C   UNL     1      -2.898   9.719  17.024  0.00  0.00    +0.000 C 
ENDBRANCH  21  24
ENDBRANCH  18  19
ENDBRANCH   3  18
TORSDOF 4
ENDMDL
MODEL 8
REMARK VINA RESULT:      -7.4      4.333      6.870
REMARK  Name = 
REMARK  4 active torsions:
REMARK  status: ('A' for Active; 'I' for Inactive)
REMARK    1  A    between atoms: N_3  and  C_4
REMARK    2  A    between atoms: C_4  and  C_5
REMARK    3  A    between atoms: C_7  and  C_8
REMARK    4  A    between atoms: C_17  and  C_18
REMARK                            x       y       z     vdW  Elec       q    Type
REMARK                         _______ _______ _______ _____ _____    ______ ____
ROOT
ATOM      1  O   UNL     1       3.615   3.286  16.511  0.00  0.00    +0.000 OA
ATOM      2  C   UNL     1       3.988   3.372  17.680  0.00  0.00    +0.000 C 
ATOM      3  N   UNL     1       5.211   3.889  18.001  0.00  0.00    +0.000 N 
ATOM      4  N   UNL     1       3.216   2.981  18.754  0.00  0.00    +0.000 N 
ATOM      5  C   UNL     1       1.921   2.339  18.524  0.00  0.00    +0.000 C 
ATOM      6  C   UNL     1       0.783   3.020  19.298  0.00  0.00    +0.000 C 
ATOM      7  O   UNL     1       1.111   3.329  20.664  0.00  0.00    +0.000 OA
ATOM      8  C   UNL     1       2.335   4.089  20.792  0.00  0.00    +0.000 C 
ATOM      9  C   UNL     1       3.487   3.264  20.167  0.00  0.00    +0.000 C 
ATOM     10  H   UNL     1       5.680   3.447  18.781  0.00  0.00    +0.000 HD
ENDROOT
BRANCH   8  11
ATOM     11  C   UNL     1       2.183   5.531  20.312  0.00  0.00    +0.000 A 
ATOM     12  C   UNL     1       1.462   6.496  21.040  0.00  0.00    +0.000 A 
ATOM     13  C   UNL     1       1.342   7.813  20.588  0.00  0.00    +0.000 A 
ATOM     14  C   UNL     1       1.917   8.186  19.380  0.00  0.00    +0.000 A 
ATOM     15  C   UNL     1       2.599   7.236  18.631  0.00  0.00    +0.000 A 
ATOM     16  F   UNL     1       3.145   7.589  17.460  0.00  0.00    +0.000 F 
ATOM     17  C   UNL     1       2.727   5.923  19.077  0.00  0.00    +0.000 A 
ENDBRANCH   8  11
BRANCH   3  18
ATOM     18  C   UNL     1       6.095   4.359  16.952  0.00  0.00    +0.000 C 
BRANCH  18  19
ATOM     19  C   UNL     1       6.820   5.564  17.427  0.00  0.00    +0.000 A 
ATOM     20  N   UNL     1       7.049   6.706  16.813  0.00  0.00    +0.000 NA
ATOM     21  C   UNL     1       7.810   7.377  17.740  0.00  0.00    +0.000 A 
ATOM     22  N   UNL     1       8.032   6.707  18.877  0.00  0.00    +0.000 NA
ATOM     23  O   UNL     1       7.368   5.497  18.674  0.00  0.00    +0.000 OA
BRANCH  21  24
ATOM     24  C   UNL     1       8.401   8.757  17.498  0.00  0.00    +0.000 C 
ATOM     25  C   UNL     1       7.606   9.963  17.964  0.00  0.00    +0.000 C 
ATOM     26  C   UNL     1       8.857   9.587  18.680  0.00  0.00    +0.000 C 
ENDBRANCH  21  24
ENDBRANCH  18  19
ENDBRANCH   3  18
TORSDOF 4
ENDMDL
MODEL 9
REMARK VINA RESULT:      -7.4      1.986      2.508
REMARK  Name = 
REMARK  4 active torsions:
REMARK  status: ('A' for Active; 'I' for Inactive)
REMARK    1  A    between atoms: N_3  and  C_4
REMARK    2  A    between atoms: C_4  and  C_5
REMARK    3  A    between atoms: C_7  and  C_8
REMARK    4  A    between atoms: C_17  and  C_18
REMARK                            x       y       z     vdW  Elec       q    Type
REMARK                         _______ _______ _______ _____ _____    ______ ____
ROOT
ATOM      1  O   UNL     1       2.245   4.600  21.529  0.00  0.00    +0.000 OA
ATOM      2  C   UNL     1       1.993   4.909  20.365  0.00  0.00    +0.000 C 
ATOM      3  N   UNL     1       1.862   6.215  19.987  0.00  0.00    +0.000 N 
ATOM      4  N   UNL     1       1.841   3.986  19.351  0.00  0.00    +0.000 N 
ATOM      5  C   UNL     1       1.881   2.556  19.657  0.00  0.00    +0.000 C 
ATOM      6  C   UNL     1       2.882   1.795  18.775  0.00  0.00    +0.000 C 
ATOM      7  O   UNL     1       2.820   2.151  17.383  0.00  0.00    +0.000 OA
ATOM      8  C   UNL     1       2.930   3.575  17.160  0.00  0.00    +0.000 C 
ATOM      9  C   UNL     1       1.775   4.277  17.915  0.00  0.00    +0.000 C 
ATOM     10  H   UNL     1       1.155   6.397  19.287  0.00  0.00    +0.000 HD
ENDROOT
BRANCH   8  11
ATOM     11  C   UNL     1       4.341   4.102  17.418  0.00  0.00    +0.000 A 
ATOM     12  C   UNL     1       4.707   4.716  18.629  0.00  0.00    +0.000 A 
ATOM     13  C   UNL     1       6.005   5.183  18.849  0.00  0.00    +0.000 A 
ATOM     14  C   UNL     1       6.961   5.071  17.847  0.00  0.00    +0.000 A 
ATOM     15  C   UNL     1       6.606   4.501  16.632  0.00  0.00    +0.000 A 
ATOM     16  F   UNL     1       7.521   4.402  15.660  0.00  0.00    +0.000 F 
ATOM     17  C   UNL     1       5.314   4.030  16.407  0.00  0.00    +0.000 A 
ENDBRANCH   8  11
BRANCH   3  18
ATOM     18  C   UNL     1       2.031   7.271  20.965  0.00  0.00    +0.000 C 
BRANCH  18  19
ATOM     19  C   UNL     1       1.140   8.406  20.619  0.00  0.00    +0.000 A 
ATOM     20  N   UNL     1       1.038   9.085  19.495  0.00  0.00    +0.000 NA
ATOM     21  C   UNL     1       0.096  10.031  19.822  0.00  0.00    +0.000 A 
ATOM     22  N   UNL     1      -0.382   9.943  21.068  0.00  0.00    +0.000 NA
ATOM     23  O   UNL     1       0.310   8.855  21.603  0.00  0.00    +0.000 OA
BRANCH  21  24
ATOM     24  C   UNL     1      -0.354  11.129  18.870  0.00  0.00    +0.000 C 
ATOM     25  C   UNL     1      -1.519  10.833  17.942  0.00  0.00    +0.000 C 
ATOM     26  C   UNL     1      -1.706  11.782  19.076  0.00  0.00    +0.000 C 
ENDBRANCH  21  24
ENDBRANCH  18  19
ENDBRANCH   3  18
TORSDOF 4
ENDMDL
