MODEL 1
REMARK VINA RESULT:      -8.0      0.000      0.000
REMARK  Name = 
REMARK  4 active torsions:
REMARK  status: ('A' for Active; 'I' for Inactive)
REMARK    1  A    between atoms: C_1  and  C_2
REMARK    2  A    between atoms: N_13  and  C_14
REMARK    3  A    between atoms: C_14  and  C_15
REMARK    4  A    between atoms: C_18  and  C_19
REMARK                            x       y       z     vdW  Elec       q    Type
REMARK                         _______ _______ _______ _____ _____    ______ ____
ROOT
ATOM      1  C   UNL     1       2.007   1.786  19.287  0.00  0.00    +0.000 C 
ATOM      2  C   UNL     1       2.912   2.776  18.599  0.00  0.00    +0.000 C 
ATOM      3  O   UNL     1       2.954   2.862  17.378  0.00  0.00    +0.000 OA
ATOM      4  N   UNL     1       3.658   3.504  19.498  0.00  0.00    +0.000 N 
ATOM      5  C   UNL     1       4.609   4.402  19.069  0.00  0.00    +0.000 A 
ATOM      6  N   UNL     1       5.830   4.374  19.550  0.00  0.00    +0.000 NA
ATOM      7  C   UNL     1       6.489   5.407  18.940  0.00  0.00    +0.000 A 
ATOM      8  C   UNL     1       7.839   5.776  19.036  0.00  0.00    +0.000 A 
ATOM      9  C   UNL     1       8.271   6.932  18.375  0.00  0.00    +0.000 A 
ATOM     10  C   UNL     1       7.371   7.715  17.653  0.00  0.00    +0.000 A 
ATOM     11  C   UNL     1       6.027   7.345  17.525  0.00  0.00    +0.000 A 
ATOM     12  C   UNL     1       5.625   6.160  18.155  0.00  0.00    +0.000 A 
ATOM     13  N   UNL     1       4.418   5.480  18.226  0.00  0.00    +0.000 N 
ATOM     14  H   UNL     1       3.952   3.002  20.332  0.00  0.00    +0.000 HD
ENDROOT
BRANCH  13  15
ATOM     15  C   UNL     1       3.180   5.948  17.618  0.00  0.00    +0.000 C 
BRANCH  15  16
ATOM     16  C   UNL     1       2.556   7.111  18.359  0.00  0.00    +0.000 A 
ATOM     17  C   UNL     1       2.274   7.055  19.731  0.00  0.00    +0.000 A 
ATOM     18  C   UNL     1       1.604   8.103  20.365  0.00  0.00    +0.000 A 
ATOM     19  C   UNL     1       1.221   9.236  19.643  0.00  0.00    +0.000 A 
ATOM     20  C   UNL     1       0.396  10.310  20.284  0.00  0.00    +0.000 C 
ATOM     21  C   UNL     1       1.609   9.351  18.303  0.00  0.00    +0.000 A 
ATOM     22  C   UNL     1       2.271   8.297  17.667  0.00  0.00    +0.000 A 
ENDBRANCH  15  16
ENDBRANCH  13  15
TORSDOF 2
ENDMDL
MODEL 2
REMARK VINA RESULT:      -7.8      1.461      1.523
REMARK  Name = 
REMARK  4 active torsions:
REMARK  status: ('A' for Active; 'I' for Inactive)
REMARK    1  A    between atoms: C_1  and  C_2
REMARK    2  A    between atoms: N_13  and  C_14
REMARK    3  A    between atoms: C_14  and  C_15
REMARK    4  A    between atoms: C_18  and  C_19
REMARK                            x       y       z     vdW  Elec       q    Type
REMARK                         _______ _______ _______ _____ _____    ______ ____
ROOT
ATOM      1  C   UNL     1       1.600   2.519  21.590  0.00  0.00    +0.000 C 
ATOM      2  C   UNL     1       2.216   2.924  20.276  0.00  0.00    +0.000 C 
ATOM      3  O   UNL     1       1.749   2.547  19.208  0.00  0.00    +0.000 OA
ATOM      4  N   UNL     1       3.333   3.711  20.449  0.00  0.00    +0.000 N 
ATOM      5  C   UNL     1       4.090   4.115  19.373  0.00  0.00    +0.000 A 
ATOM      6  N   UNL     1       5.393   3.951  19.365  0.00  0.00    +0.000 NA
ATOM      7  C   UNL     1       5.822   4.486  18.181  0.00  0.00    +0.000 A 
ATOM      8  C   UNL     1       7.115   4.504  17.635  0.00  0.00    +0.000 A 
ATOM      9  C   UNL     1       7.329   5.190  16.433  0.00  0.00    +0.000 A 
ATOM     10  C   UNL     1       6.282   5.860  15.801  0.00  0.00    +0.000 A 
ATOM     11  C   UNL     1       4.982   5.827  16.319  0.00  0.00    +0.000 A 
ATOM     12  C   UNL     1       4.780   5.098  17.498  0.00  0.00    +0.000 A 
ATOM     13  N   UNL     1       3.659   4.824  18.269  0.00  0.00    +0.000 N 
ATOM     14  H   UNL     1       3.904   3.488  21.260  0.00  0.00    +0.000 HD
ENDROOT
BRANCH  13  15
ATOM     15  C   UNL     1       2.327   5.341  17.986  0.00  0.00    +0.000 C 
BRANCH  15  16
ATOM     16  C   UNL     1       2.074   6.701  18.598  0.00  0.00    +0.000 A 
ATOM     17  C   UNL     1       1.889   6.876  19.977  0.00  0.00    +0.000 A 
ATOM     18  C   UNL     1       1.555   8.127  20.499  0.00  0.00    +0.000 A 
ATOM     19  C   UNL     1       1.420   9.232  19.655  0.00  0.00    +0.000 A 
ATOM     20  C   UNL     1       0.943  10.549  20.189  0.00  0.00    +0.000 C 
ATOM     21  C   UNL     1       1.724   9.090  18.297  0.00  0.00    +0.000 A 
ATOM     22  C   UNL     1       2.049   7.836  17.773  0.00  0.00    +0.000 A 
ENDBRANCH  15  16
ENDBRANCH  13  15
TORSDOF 2
ENDMDL
MODEL 3
REMARK VINA RESULT:      -7.8      0.376      1.116
REMARK  Name = 
REMARK  4 active torsions:
REMARK  status: ('A' for Active; 'I' for Inactive)
REMARK    1  A    between atoms: C_1  and  C_2
REMARK    2  A    between atoms: N_13  and  C_14
REMARK    3  A    between atoms: C_14  and  C_15
REMARK    4  A    between atoms: C_18  and  C_19
REMARK                            x       y       z     vdW  Elec       q    Type
REMARK                         _______ _______ _______ _____ _____    ______ ____
ROOT
ATOM      1  C   UNL     1       1.690   2.148  19.932  0.00  0.00    +0.000 C 
ATOM      2  C   UNL     1       2.629   2.995  19.111  0.00  0.00    +0.000 C 
ATOM      3  O   UNL     1       2.657   2.916  17.889  0.00  0.00    +0.000 OA
ATOM      4  N   UNL     1       3.422   3.799  19.898  0.00  0.00    +0.000 N 
ATOM      5  C   UNL     1       4.406   4.586  19.345  0.00  0.00    +0.000 A 
ATOM      6  N   UNL     1       5.632   4.563  19.815  0.00  0.00    +0.000 NA
ATOM      7  C   UNL     1       6.328   5.473  19.067  0.00  0.00    +0.000 A 
ATOM      8  C   UNL     1       7.696   5.787  19.101  0.00  0.00    +0.000 A 
ATOM      9  C   UNL     1       8.170   6.823  18.289  0.00  0.00    +0.000 A 
ATOM     10  C   UNL     1       7.296   7.546  17.477  0.00  0.00    +0.000 A 
ATOM     11  C   UNL     1       5.935   7.227  17.411  0.00  0.00    +0.000 A 
ATOM     12  C   UNL     1       5.489   6.157  18.197  0.00  0.00    +0.000 A 
ATOM     13  N   UNL     1       4.252   5.550  18.368  0.00  0.00    +0.000 N 
ATOM     14  H   UNL     1       3.704   3.398  20.789  0.00  0.00    +0.000 HD
ENDROOT
BRANCH  13  15
ATOM     15  C   UNL     1       3.028   5.992  17.714  0.00  0.00    +0.000 C 
BRANCH  15  16
ATOM     16  C   UNL     1       2.358   7.147  18.425  0.00  0.00    +0.000 A 
ATOM     17  C   UNL     1       1.996   8.326  17.757  0.00  0.00    +0.000 A 
ATOM     18  C   UNL     1       1.474   9.413  18.459  0.00  0.00    +0.000 A 
ATOM     19  C   UNL     1       1.285   9.336  19.842  0.00  0.00    +0.000 A 
ATOM     20  C   UNL     1       0.841  10.536  20.621  0.00  0.00    +0.000 C 
ATOM     21  C   UNL     1       1.528   8.122  20.493  0.00  0.00    +0.000 A 
ATOM     22  C   UNL     1       2.059   7.038  19.792  0.00  0.00    +0.000 A 
ENDBRANCH  15  16
ENDBRANCH  13  15
TORSDOF 2
ENDMDL
MODEL 4
REMARK VINA RESULT:      -7.5      3.731      4.946
REMARK  Name = 
REMARK  4 active torsions:
REMARK  status: ('A' for Active; 'I' for Inactive)
REMARK    1  A    between atoms: C_1  and  C_2
REMARK    2  A    between atoms: N_13  and  C_14
REMARK    3  A    between atoms: C_14  and  C_15
REMARK    4  A    between atoms: C_18  and  C_19
REMARK                            x       y       z     vdW  Elec       q    Type
REMARK                         _______ _______ _______ _____ _____    ______ ____
ROOT
ATOM      1  C   UNL     1       8.096   6.158  19.290  0.00  0.00    +0.000 C 
ATOM      2  C   UNL     1       7.664   5.261  18.159  0.00  0.00    +0.000 C 
ATOM      3  O   UNL     1       7.570   4.048  18.305  0.00  0.00    +0.000 OA
ATOM      4  N   UNL     1       7.431   5.966  17.000  0.00  0.00    +0.000 N 
ATOM      5  C   UNL     1       7.110   5.321  15.827  0.00  0.00    +0.000 A 
ATOM      6  N   UNL     1       7.756   5.580  14.714  0.00  0.00    +0.000 NA
ATOM      7  C   UNL     1       7.167   4.800  13.758  0.00  0.00    +0.000 A 
ATOM      8  C   UNL     1       7.520   4.633  12.409  0.00  0.00    +0.000 A 
ATOM      9  C   UNL     1       6.709   3.835  11.594  0.00  0.00    +0.000 A 
ATOM     10  C   UNL     1       5.559   3.233  12.106  0.00  0.00    +0.000 A 
ATOM     11  C   UNL     1       5.210   3.367  13.455  0.00  0.00    +0.000 A 
ATOM     12  C   UNL     1       6.059   4.133  14.264  0.00  0.00    +0.000 A 
ATOM     13  N   UNL     1       6.053   4.458  15.614  0.00  0.00    +0.000 N 
ATOM     14  H   UNL     1       8.040   6.765  16.844  0.00  0.00    +0.000 HD
ENDROOT
BRANCH  13  15
ATOM     15  C   UNL     1       5.012   4.048  16.547  0.00  0.00    +0.000 C 
BRANCH  15  16
ATOM     16  C   UNL     1       4.154   5.199  17.024  0.00  0.00    +0.000 A 
ATOM     17  C   UNL     1       4.465   6.534  16.727  0.00  0.00    +0.000 A 
ATOM     18  C   UNL     1       3.712   7.578  17.267  0.00  0.00    +0.000 A 
ATOM     19  C   UNL     1       2.622   7.308  18.098  0.00  0.00    +0.000 A 
ATOM     20  C   UNL     1       1.886   8.421  18.780  0.00  0.00    +0.000 C 
ATOM     21  C   UNL     1       2.234   5.980  18.297  0.00  0.00    +0.000 A 
ATOM     22  C   UNL     1       2.992   4.934  17.765  0.00  0.00    +0.000 A 
ENDBRANCH  15  16
ENDBRANCH  13  15
TORSDOF 2
ENDMDL
MODEL 5
REMARK VINA RESULT:      -7.5      1.683      4.546
REMARK  Name = 
REMARK  4 active torsions:
REMARK  status: ('A' for Active; 'I' for Inactive)
REMARK    1  A    between atoms: C_1  and  C_2
REMARK    2  A    between atoms: N_13  and  C_14
REMARK    3  A    between atoms: C_14  and  C_15
REMARK    4  A    between atoms: C_18  and  C_19
REMARK                            x       y       z     vdW  Elec       q    Type
REMARK                         _______ _______ _______ _____ _____    ______ ____
ROOT
ATOM      1  C   UNL     1       7.400   6.787  17.242  0.00  0.00    +0.000 C 
ATOM      2  C   UNL     1       6.356   6.059  18.049  0.00  0.00    +0.000 C 
ATOM      3  O   UNL     1       6.524   5.814  19.237  0.00  0.00    +0.000 OA
ATOM      4  N   UNL     1       5.264   5.709  17.286  0.00  0.00    +0.000 N 
ATOM      5  C   UNL     1       4.237   4.962  17.816  0.00  0.00    +0.000 A 
ATOM      6  N   UNL     1       3.798   3.887  17.204  0.00  0.00    +0.000 NA
ATOM      7  C   UNL     1       2.771   3.419  17.976  0.00  0.00    +0.000 A 
ATOM      8  C   UNL     1       2.005   2.253  17.819  0.00  0.00    +0.000 A 
ATOM      9  C   UNL     1       0.941   2.022  18.700  0.00  0.00    +0.000 A 
ATOM     10  C   UNL     1       0.634   2.944  19.701  0.00  0.00    +0.000 A 
ATOM     11  C   UNL     1       1.406   4.096  19.887  0.00  0.00    +0.000 A 
ATOM     12  C   UNL     1       2.494   4.286  19.025  0.00  0.00    +0.000 A 
ATOM     13  N   UNL     1       3.471   5.266  18.924  0.00  0.00    +0.000 N 
ATOM     14  H   UNL     1       5.467   5.456  16.322  0.00  0.00    +0.000 HD
ENDROOT
BRANCH  13  15
ATOM     15  C   UNL     1       3.533   6.448  19.775  0.00  0.00    +0.000 C 
BRANCH  15  16
ATOM     16  C   UNL     1       2.516   7.503  19.402  0.00  0.00    +0.000 A 
ATOM     17  C   UNL     1       2.359   7.954  18.083  0.00  0.00    +0.000 A 
ATOM     18  C   UNL     1       1.485   9.002  17.787  0.00  0.00    +0.000 A 
ATOM     19  C   UNL     1       0.735   9.605  18.800  0.00  0.00    +0.000 A 
ATOM     20  C   UNL     1      -0.112  10.808  18.513  0.00  0.00    +0.000 C 
ATOM     21  C   UNL     1       0.796   9.078  20.094  0.00  0.00    +0.000 A 
ATOM     22  C   UNL     1       1.677   8.036  20.393  0.00  0.00    +0.000 A 
ENDBRANCH  15  16
ENDBRANCH  13  15
TORSDOF 2
ENDMDL
MODEL 6
REMARK VINA RESULT:      -7.3      3.726      4.850
REMARK  Name = 
REMARK  4 active torsions:
REMARK  status: ('A' for Active; 'I' for Inactive)
REMARK    1  A    between atoms: C_1  and  C_2
REMARK    2  A    between atoms: N_13  and  C_14
REMARK    3  A    between atoms: C_14  and  C_15
REMARK    4  A    between atoms: C_18  and  C_19
REMARK                            x       y       z     vdW  Elec       q    Type
REMARK                         _______ _______ _______ _____ _____    ______ ____
ROOT
ATOM      1  C   UNL     1       8.057   6.161  19.304  0.00  0.00    +0.000 C 
ATOM      2  C   UNL     1       7.631   5.263  18.171  0.00  0.00    +0.000 C 
ATOM      3  O   UNL     1       7.532   4.052  18.319  0.00  0.00    +0.000 OA
ATOM      4  N   UNL     1       7.413   5.967  17.008  0.00  0.00    +0.000 N 
ATOM      5  C   UNL     1       7.100   5.321  15.834  0.00  0.00    +0.000 A 
ATOM      6  N   UNL     1       7.758   5.575  14.727  0.00  0.00    +0.000 NA
ATOM      7  C   UNL     1       7.175   4.796  13.766  0.00  0.00    +0.000 A 
ATOM      8  C   UNL     1       7.540   4.625  12.422  0.00  0.00    +0.000 A 
ATOM      9  C   UNL     1       6.734   3.828  11.600  0.00  0.00    +0.000 A 
ATOM     10  C   UNL     1       5.577   3.233  12.102  0.00  0.00    +0.000 A 
ATOM     11  C   UNL     1       5.215   3.371  13.448  0.00  0.00    +0.000 A 
ATOM     12  C   UNL     1       6.059   4.134  14.264  0.00  0.00    +0.000 A 
ATOM     13  N   UNL     1       6.042   4.462  15.612  0.00  0.00    +0.000 N 
ATOM     14  H   UNL     1       8.027   6.764  16.857  0.00  0.00    +0.000 HD
ENDROOT
BRANCH  13  15
ATOM     15  C   UNL     1       4.991   4.058  16.536  0.00  0.00    +0.000 C 
BRANCH  15  16
ATOM     16  C   UNL     1       4.229   5.228  17.119  0.00  0.00    +0.000 A 
ATOM     17  C   UNL     1       3.253   5.063  18.112  0.00  0.00    +0.000 A 
ATOM     18  C   UNL     1       2.496   6.148  18.556  0.00  0.00    +0.000 A 
ATOM     19  C   UNL     1       2.711   7.424  18.028  0.00  0.00    +0.000 A 
ATOM     20  C   UNL     1       1.823   8.569  18.407  0.00  0.00    +0.000 C 
ATOM     21  C   UNL     1       3.765   7.616  17.128  0.00  0.00    +0.000 A 
ATOM     22  C   UNL     1       4.517   6.529  16.678  0.00  0.00    +0.000 A 
ENDBRANCH  15  16
ENDBRANCH  13  15
TORSDOF 2
ENDMDL
MODEL 7
REMARK VINA RESULT:      -7.3      1.712      4.466
REMARK  Name = 
REMARK  4 active torsions:
REMARK  status: ('A' for Active; 'I' for Inactive)
REMARK    1  A    between atoms: C_1  and  C_2
REMARK    2  A    between atoms: N_13  and  C_14
REMARK    3  A    between atoms: C_14  and  C_15
REMARK    4  A    between atoms: C_18  and  C_19
REMARK                            x       y       z     vdW  Elec       q    Type
REMARK                         _______ _______ _______ _____ _____    ______ ____
ROOT
ATOM      1  C   UNL     1       7.380   6.689  17.164  0.00  0.00    +0.000 C 
ATOM      2  C   UNL     1       6.342   5.976  17.993  0.00  0.00    +0.000 C 
ATOM      3  O   UNL     1       6.535   5.719  19.175  0.00  0.00    +0.000 OA
ATOM      4  N   UNL     1       5.226   5.652  17.256  0.00  0.00    +0.000 N 
ATOM      5  C   UNL     1       4.198   4.922  17.807  0.00  0.00    +0.000 A 
ATOM      6  N   UNL     1       3.722   3.860  17.200  0.00  0.00    +0.000 NA
ATOM      7  C   UNL     1       2.706   3.406  17.995  0.00  0.00    +0.000 A 
ATOM      8  C   UNL     1       1.914   2.256  17.851  0.00  0.00    +0.000 A 
ATOM      9  C   UNL     1       0.868   2.041  18.757  0.00  0.00    +0.000 A 
ATOM     10  C   UNL     1       0.605   2.961  19.770  0.00  0.00    +0.000 A 
ATOM     11  C   UNL     1       1.403   4.097  19.944  0.00  0.00    +0.000 A 
ATOM     12  C   UNL     1       2.472   4.272  19.056  0.00  0.00    +0.000 A 
ATOM     13  N   UNL     1       3.466   5.233  18.936  0.00  0.00    +0.000 N 
ATOM     14  H   UNL     1       5.399   5.401  16.286  0.00  0.00    +0.000 HD
ENDROOT
BRANCH  13  15
ATOM     15  C   UNL     1       3.572   6.408  19.792  0.00  0.00    +0.000 C 
BRANCH  15  16
ATOM     16  C   UNL     1       2.594   7.502  19.425  0.00  0.00    +0.000 A 
ATOM     17  C   UNL     1       1.723   8.070  20.366  0.00  0.00    +0.000 A 
ATOM     18  C   UNL     1       0.762   9.003  19.975  0.00  0.00    +0.000 A 
ATOM     19  C   UNL     1       0.665   9.402  18.639  0.00  0.00    +0.000 A 
ATOM     20  C   UNL     1      -0.440  10.309  18.189  0.00  0.00    +0.000 C 
ATOM     21  C   UNL     1       1.610   8.933  17.721  0.00  0.00    +0.000 A 
ATOM     22  C   UNL     1       2.566   7.991  18.110  0.00  0.00    +0.000 A 
ENDBRANCH  15  16
ENDBRANCH  13  15
TORSDOF 2
ENDMDL
MODEL 8
REMARK VINA RESULT:      -7.3      2.063      4.526
REMARK  Name = 
REMARK  4 active torsions:
REMARK  status: ('A' for Active; 'I' for Inactive)
REMARK    1  A    between atoms: C_1  and  C_2
REMARK    2  A    between atoms: N_13  and  C_14
REMARK    3  A    between atoms: C_14  and  C_15
REMARK    4  A    between atoms: C_18  and  C_19
REMARK                            x       y       z     vdW  Elec       q    Type
REMARK                         _______ _______ _______ _____ _____    ______ ____
ROOT
ATOM      1  C   UNL     1       6.886   5.140  15.424  0.00  0.00    +0.000 C 
ATOM      2  C   UNL     1       6.059   4.806  16.639  0.00  0.00    +0.000 C 
ATOM      3  O   UNL     1       6.560   4.744  17.755  0.00  0.00    +0.000 OA
ATOM      4  N   UNL     1       4.742   4.568  16.319  0.00  0.00    +0.000 N 
ATOM      5  C   UNL     1       3.840   4.163  17.276  0.00  0.00    +0.000 A 
ATOM      6  N   UNL     1       3.072   3.116  17.080  0.00  0.00    +0.000 NA
ATOM      7  C   UNL     1       2.289   3.021  18.198  0.00  0.00    +0.000 A 
ATOM      8  C   UNL     1       1.349   2.037  18.540  0.00  0.00    +0.000 A 
ATOM      9  C   UNL     1       0.602   2.198  19.713  0.00  0.00    +0.000 A 
ATOM     10  C   UNL     1       0.772   3.326  20.516  0.00  0.00    +0.000 A 
ATOM     11  C   UNL     1       1.726   4.301  20.202  0.00  0.00    +0.000 A 
ATOM     12  C   UNL     1       2.495   4.099  19.049  0.00  0.00    +0.000 A 
ATOM     13  N   UNL     1       3.523   4.815  18.452  0.00  0.00    +0.000 N 
ATOM     14  H   UNL     1       4.585   4.111  15.424  0.00  0.00    +0.000 HD
ENDROOT
BRANCH  13  15
ATOM     15  C   UNL     1       4.029   6.087  18.950  0.00  0.00    +0.000 C 
BRANCH  15  16
ATOM     16  C   UNL     1       3.014   7.205  18.863  0.00  0.00    +0.000 A 
ATOM     17  C   UNL     1       2.817   7.944  17.688  0.00  0.00    +0.000 A 
ATOM     18  C   UNL     1       1.948   9.036  17.669  0.00  0.00    +0.000 A 
ATOM     19  C   UNL     1       1.245   9.400  18.820  0.00  0.00    +0.000 A 
ATOM     20  C   UNL     1       0.405  10.641  18.845  0.00  0.00    +0.000 C 
ATOM     21  C   UNL     1       1.344   8.593  19.959  0.00  0.00    +0.000 A 
ATOM     22  C   UNL     1       2.220   7.506  19.980  0.00  0.00    +0.000 A 
ENDBRANCH  15  16
ENDBRANCH  13  15
TORSDOF 2
ENDMDL
MODEL 9
REMARK VINA RESULT:      -7.3      2.298      5.868
REMARK  Name = 
REMARK  4 active torsions:
REMARK  status: ('A' for Active; 'I' for Inactive)
REMARK    1  A    between atoms: C_1  and  C_2
REMARK    2  A    between atoms: N_13  and  C_14
REMARK    3  A    between atoms: C_14  and  C_15
REMARK    4  A    between atoms: C_18  and  C_19
REMARK                            x       y       z     vdW  Elec       q    Type
REMARK                         _______ _______ _______ _____ _____    ______ ____
ROOT
ATOM      1  C   UNL     1       1.441   9.169  20.869  0.00  0.00    +0.000 C 
ATOM      2  C   UNL     1       1.893   7.977  20.066  0.00  0.00    +0.000 C 
ATOM      3  O   UNL     1       2.307   8.099  18.919  0.00  0.00    +0.000 OA
ATOM      4  N   UNL     1       1.752   6.799  20.765  0.00  0.00    +0.000 N 
ATOM      5  C   UNL     1       2.028   5.586  20.176  0.00  0.00    +0.000 A 
ATOM      6  N   UNL     1       1.166   4.598  20.229  0.00  0.00    +0.000 NA
ATOM      7  C   UNL     1       1.767   3.552  19.584  0.00  0.00    +0.000 A 
ATOM      8  C   UNL     1       1.253   2.280  19.288  0.00  0.00    +0.000 A 
ATOM      9  C   UNL     1       2.093   1.337  18.684  0.00  0.00    +0.000 A 
ATOM     10  C   UNL     1       3.423   1.647  18.402  0.00  0.00    +0.000 A 
ATOM     11  C   UNL     1       3.942   2.920  18.666  0.00  0.00    +0.000 A 
ATOM     12  C   UNL     1       3.073   3.864  19.228  0.00  0.00    +0.000 A 
ATOM     13  N   UNL     1       3.217   5.195  19.592  0.00  0.00    +0.000 N 
ATOM     14  H   UNL     1       0.947   6.752  21.384  0.00  0.00    +0.000 HD
ENDROOT
BRANCH  13  15
ATOM     15  C   UNL     1       4.464   5.940  19.484  0.00  0.00    +0.000 C 
BRANCH  15  16
ATOM     16  C   UNL     1       5.148   5.765  18.146  0.00  0.00    +0.000 A 
ATOM     17  C   UNL     1       4.563   6.198  16.947  0.00  0.00    +0.000 A 
ATOM     18  C   UNL     1       5.170   5.930  15.719  0.00  0.00    +0.000 A 
ATOM     19  C   UNL     1       6.384   5.240  15.667  0.00  0.00    +0.000 A 
ATOM     20  C   UNL     1       6.981   4.841  14.352  0.00  0.00    +0.000 C 
ATOM     21  C   UNL     1       7.032   4.915  16.863  0.00  0.00    +0.000 A 
ATOM     22  C   UNL     1       6.420   5.175  18.092  0.00  0.00    +0.000 A 
ENDBRANCH  15  16
ENDBRANCH  13  15
TORSDOF 2
ENDMDL
