MODEL 1
REMARK VINA RESULT:      -7.8      0.000      0.000
REMARK  Name = 
REMARK  6 active torsions:
REMARK  status: ('A' for Active; 'I' for Inactive)
REMARK    1  A    between atoms: C_2  and  C_4
REMARK    2  A    between atoms: C_8  and  N_9
REMARK    3  A    between atoms: C_12  and  C_13
REMARK    4  A    between atoms: C_13  and  N_14
REMARK    5  A    between atoms: C_13  and  C_15
REMARK    6  A    between atoms: C_15  and  C_16
REMARK                            x       y       z     vdW  Elec       q    Type
REMARK                         _______ _______ _______ _____ _____    ______ ____
ROOT
ATOM      1  N   UNL     1       4.564   5.760  18.837  0.00  0.00    +0.000 NA
ATOM      2  C   UNL     1       5.856   5.071  19.062  0.00  0.00    +0.000 C 
ATOM      3  C   UNL     1       7.069   5.851  18.536  0.00  0.00    +0.000 C 
ATOM      4  C   UNL     1       6.941   6.220  17.046  0.00  0.00    +0.000 C 
ATOM      5  C   UNL     1       5.620   6.983  16.916  0.00  0.00    +0.000 C 
ATOM      6  C   UNL     1       4.428   6.169  17.426  0.00  0.00    +0.000 C 
ENDROOT
BRANCH   1  11
ATOM      7  C   UNL     1       2.717   2.534  20.096  0.00  0.00    +0.000 C 
ATOM      8  C   UNL     1       1.718   2.444  18.943  0.00  0.00    +0.000 C 
ATOM      9  C   UNL     1       1.210   3.818  18.537  0.00  0.00    +0.000 C 
ATOM     10  C   UNL     1       2.360   4.754  18.159  0.00  0.00    +0.000 C 
ATOM     11  C   UNL     1       3.411   4.908  19.284  0.00  0.00    +0.000 C 
ATOM     12  C   UNL     1       3.864   3.496  19.752  0.00  0.00    +0.000 C 
BRANCH   7  14
ATOM     13  N   UNL     1       0.751   2.484  21.548  0.00  0.00    +0.000 N 
ATOM     14  C   UNL     1       2.046   2.895  21.420  0.00  0.00    +0.000 C 
ATOM     15  O   UNL     1       2.595   3.484  22.342  0.00  0.00    +0.000 OA
ATOM     16  H   UNL     1       0.296   2.663  22.434  0.00  0.00    +0.000 HD
ATOM     17  H   UNL     1       0.298   1.873  20.885  0.00  0.00    +0.000 HD
ENDBRANCH   7  14
ENDBRANCH   1  11
BRANCH   4  18
ATOM     18  C   UNL     1       7.056   4.984  16.101  0.00  0.00    +0.000 C 
BRANCH  18  19
ATOM     19  N   UNL     1       8.061   4.058  16.657  0.00  0.00    +0.000 NA
ATOM     20  H   UNL     1       8.625   3.670  15.905  0.00  0.00    +0.000 HD
ATOM     21  H   UNL     1       7.586   3.266  17.093  0.00  0.00    +0.000 HD
ENDBRANCH  18  19
BRANCH  18  22
ATOM     22  C   UNL     1       7.420   5.362  14.634  0.00  0.00    +0.000 C 
BRANCH  22  23
ATOM     23  C   UNL     1       6.788   4.461  13.593  0.00  0.00    +0.000 A 
ATOM     24  C   UNL     1       7.574   3.790  12.646  0.00  0.00    +0.000 A 
ATOM     25  C   UNL     1       6.980   2.896  11.755  0.00  0.00    +0.000 A 
ATOM     26  F   UNL     1       7.744   2.246  10.868  0.00  0.00    +0.000 F 
ATOM     27  C   UNL     1       5.610   2.655  11.782  0.00  0.00    +0.000 A 
ATOM     28  C   UNL     1       4.813   3.352  12.687  0.00  0.00    +0.000 A 
ATOM     29  C   UNL     1       5.402   4.256  13.568  0.00  0.00    +0.000 A 
ATOM     30  F   UNL     1       4.613   4.931  14.415  0.00  0.00    +0.000 F 
ENDBRANCH  22  23
ENDBRANCH  18  22
ENDBRANCH   4  18
TORSDOF 6
ENDMDL
MODEL 2
REMARK VINA RESULT:      -7.3      1.332      1.634
REMARK  Name = 
REMARK  6 active torsions:
REMARK  status: ('A' for Active; 'I' for Inactive)
REMARK    1  A    between atoms: C_2  and  C_4
REMARK    2  A    between atoms: C_8  and  N_9
REMARK    3  A    between atoms: C_12  and  C_13
REMARK    4  A    between atoms: C_13  and  N_14
REMARK    5  A    between atoms: C_13  and  C_15
REMARK    6  A    between atoms: C_15  and  C_16
REMARK                            x       y       z     vdW  Elec       q    Type
REMARK                         _______ _______ _______ _____ _____    ______ ____
ROOT
ATOM      1  N   UNL     1       4.614   5.857  19.311  0.00  0.00    +0.000 NA
ATOM      2  C   UNL     1       5.863   5.063  19.236  0.00  0.00    +0.000 C 
ATOM      3  C   UNL     1       6.991   5.761  18.464  0.00  0.00    +0.000 C 
ATOM      4  C   UNL     1       6.569   6.183  17.043  0.00  0.00    +0.000 C 
ATOM      5  C   UNL     1       5.319   7.049  17.218  0.00  0.00    +0.000 C 
ATOM      6  C   UNL     1       4.206   6.316  17.969  0.00  0.00    +0.000 C 
ENDROOT
BRANCH   1  11
ATOM      7  C   UNL     1       2.179   2.854  19.986  0.00  0.00    +0.000 C 
ATOM      8  C   UNL     1       0.881   3.648  19.852  0.00  0.00    +0.000 C 
ATOM      9  C   UNL     1       1.003   5.026  20.483  0.00  0.00    +0.000 C 
ATOM     10  C   UNL     1       2.165   5.820  19.883  0.00  0.00    +0.000 C 
ATOM     11  C   UNL     1       3.522   5.084  19.992  0.00  0.00    +0.000 C 
ATOM     12  C   UNL     1       3.368   3.647  19.421  0.00  0.00    +0.000 C 
BRANCH   7  14
ATOM     13  N   UNL     1       1.327   2.335  22.218  0.00  0.00    +0.000 N 
ATOM     14  C   UNL     1       2.433   2.391  21.420  0.00  0.00    +0.000 C 
ATOM     15  O   UNL     1       3.524   2.058  21.862  0.00  0.00    +0.000 OA
ATOM     16  H   UNL     1       1.455   1.983  23.159  0.00  0.00    +0.000 HD
ATOM     17  H   UNL     1       0.388   2.457  21.869  0.00  0.00    +0.000 HD
ENDBRANCH   7  14
ENDBRANCH   1  11
BRANCH   4  18
ATOM     18  C   UNL     1       6.372   4.970  16.082  0.00  0.00    +0.000 C 
BRANCH  18  19
ATOM     19  N   UNL     1       7.679   4.317  15.873  0.00  0.00    +0.000 NA
ATOM     20  H   UNL     1       8.105   4.105  16.773  0.00  0.00    +0.000 HD
ATOM     21  H   UNL     1       8.312   4.969  15.407  0.00  0.00    +0.000 HD
ENDBRANCH  18  19
BRANCH  18  22
ATOM     22  C   UNL     1       5.738   5.365  14.715  0.00  0.00    +0.000 C 
BRANCH  22  23
ATOM     23  C   UNL     1       6.210   4.516  13.551  0.00  0.00    +0.000 A 
ATOM     24  C   UNL     1       5.466   3.412  13.114  0.00  0.00    +0.000 A 
ATOM     25  C   UNL     1       5.873   2.701  11.985  0.00  0.00    +0.000 A 
ATOM     26  F   UNL     1       5.143   1.660  11.565  0.00  0.00    +0.000 F 
ATOM     27  C   UNL     1       7.015   3.064  11.277  0.00  0.00    +0.000 A 
ATOM     28  C   UNL     1       7.787   4.130  11.731  0.00  0.00    +0.000 A 
ATOM     29  C   UNL     1       7.392   4.833  12.866  0.00  0.00    +0.000 A 
ATOM     30  F   UNL     1       8.162   5.841  13.296  0.00  0.00    +0.000 F 
ENDBRANCH  22  23
ENDBRANCH  18  22
ENDBRANCH   4  18
TORSDOF 6
ENDMDL
MODEL 3
REMARK VINA RESULT:      -7.3      3.605      7.007
REMARK  Name = 
REMARK  6 active torsions:
REMARK  status: ('A' for Active; 'I' for Inactive)
REMARK    1  A    between atoms: C_2  and  C_4
REMARK    2  A    between atoms: C_8  and  N_9
REMARK    3  A    between atoms: C_12  and  C_13
REMARK    4  A    between atoms: C_13  and  N_14
REMARK    5  A    between atoms: C_13  and  C_15
REMARK    6  A    between atoms: C_15  and  C_16
REMARK                            x       y       z     vdW  Elec       q    Type
REMARK                         _______ _______ _______ _____ _____    ______ ____
ROOT
ATOM      1  N   UNL     1       4.875   3.179  18.321  0.00  0.00    +0.000 NA
ATOM      2  C   UNL     1       4.497   3.595  19.692  0.00  0.00    +0.000 C 
ATOM      3  C   UNL     1       3.734   2.518  20.475  0.00  0.00    +0.000 C 
ATOM      4  C   UNL     1       2.482   2.015  19.731  0.00  0.00    +0.000 C 
ATOM      5  C   UNL     1       2.971   1.544  18.359  0.00  0.00    +0.000 C 
ATOM      6  C   UNL     1       3.706   2.647  17.596  0.00  0.00    +0.000 C 
ENDROOT
BRANCH   1  11
ATOM      7  C   UNL     1       5.820   6.888  17.457  0.00  0.00    +0.000 C 
ATOM      8  C   UNL     1       5.303   6.870  16.020  0.00  0.00    +0.000 C 
ATOM      9  C   UNL     1       5.614   5.550  15.332  0.00  0.00    +0.000 C 
ATOM     10  C   UNL     1       5.043   4.362  16.108  0.00  0.00    +0.000 C 
ATOM     11  C   UNL     1       5.531   4.304  17.575  0.00  0.00    +0.000 C 
ATOM     12  C   UNL     1       5.286   5.684  18.247  0.00  0.00    +0.000 C 
BRANCH   7  14
ATOM     13  N   UNL     1       7.903   6.530  18.684  0.00  0.00    +0.000 N 
ATOM     14  C   UNL     1       7.343   6.986  17.526  0.00  0.00    +0.000 C 
ATOM     15  O   UNL     1       8.056   7.409  16.625  0.00  0.00    +0.000 OA
ATOM     16  H   UNL     1       8.915   6.534  18.739  0.00  0.00    +0.000 HD
ATOM     17  H   UNL     1       7.381   6.041  19.394  0.00  0.00    +0.000 HD
ENDBRANCH   7  14
ENDBRANCH   1  11
BRANCH   4  18
ATOM     18  C   UNL     1       1.343   3.079  19.668  0.00  0.00    +0.000 C 
BRANCH  18  19
ATOM     19  N   UNL     1       0.044   2.379  19.660  0.00  0.00    +0.000 NA
ATOM     20  H   UNL     1       0.172   1.418  19.350  0.00  0.00    +0.000 HD
ATOM     21  H   UNL     1      -0.572   2.818  18.974  0.00  0.00    +0.000 HD
ENDBRANCH  18  19
BRANCH  18  22
ATOM     22  C   UNL     1       1.455   4.028  18.438  0.00  0.00    +0.000 C 
BRANCH  22  23
ATOM     23  C   UNL     1       1.748   5.471  18.799  0.00  0.00    +0.000 A 
ATOM     24  C   UNL     1       2.033   6.420  17.808  0.00  0.00    +0.000 A 
ATOM     25  C   UNL     1       2.210   7.759  18.156  0.00  0.00    +0.000 A 
ATOM     26  F   UNL     1       2.462   8.660  17.199  0.00  0.00    +0.000 F 
ATOM     27  C   UNL     1       2.112   8.179  19.479  0.00  0.00    +0.000 A 
ATOM     28  C   UNL     1       1.876   7.236  20.477  0.00  0.00    +0.000 A 
ATOM     29  C   UNL     1       1.714   5.896  20.134  0.00  0.00    +0.000 A 
ATOM     30  F   UNL     1       1.510   5.005  21.113  0.00  0.00    +0.000 F 
ENDBRANCH  22  23
ENDBRANCH  18  22
ENDBRANCH   4  18
TORSDOF 6
ENDMDL
MODEL 4
REMARK VINA RESULT:      -7.3      1.081      1.409
REMARK  Name = 
REMARK  6 active torsions:
REMARK  status: ('A' for Active; 'I' for Inactive)
REMARK    1  A    between atoms: C_2  and  C_4
REMARK    2  A    between atoms: C_8  and  N_9
REMARK    3  A    between atoms: C_12  and  C_13
REMARK    4  A    between atoms: C_13  and  N_14
REMARK    5  A    between atoms: C_13  and  C_15
REMARK    6  A    between atoms: C_15  and  C_16
REMARK                            x       y       z     vdW  Elec       q    Type
REMARK                         _______ _______ _______ _____ _____    ______ ____
ROOT
ATOM      1  N   UNL     1       4.626   5.821  18.839  0.00  0.00    +0.000 NA
ATOM      2  C   UNL     1       5.971   5.228  19.023  0.00  0.00    +0.000 C 
ATOM      3  C   UNL     1       7.097   6.041  18.367  0.00  0.00    +0.000 C 
ATOM      4  C   UNL     1       6.852   6.297  16.867  0.00  0.00    +0.000 C 
ATOM      5  C   UNL     1       5.479   6.968  16.776  0.00  0.00    +0.000 C 
ATOM      6  C   UNL     1       4.377   6.122  17.417  0.00  0.00    +0.000 C 
ENDROOT
BRANCH   1  11
ATOM      7  C   UNL     1       1.466   3.493  18.859  0.00  0.00    +0.000 C 
ATOM      8  C   UNL     1       0.648   4.318  19.849  0.00  0.00    +0.000 C 
ATOM      9  C   UNL     1       1.517   4.870  20.969  0.00  0.00    +0.000 C 
ATOM     10  C   UNL     1       2.674   5.707  20.423  0.00  0.00    +0.000 C 
ATOM     11  C   UNL     1       3.561   4.934  19.417  0.00  0.00    +0.000 C 
ATOM     12  C   UNL     1       2.656   4.303  18.322  0.00  0.00    +0.000 C 
BRANCH   7  14
ATOM     13  N   UNL     1       2.524   1.309  18.566  0.00  0.00    +0.000 N 
ATOM     14  C   UNL     1       1.907   2.152  19.443  0.00  0.00    +0.000 C 
ATOM     15  O   UNL     1       1.765   1.821  20.613  0.00  0.00    +0.000 OA
ATOM     16  H   UNL     1       2.874   0.433  18.935  0.00  0.00    +0.000 HD
ATOM     17  H   UNL     1       2.796   1.585  17.634  0.00  0.00    +0.000 HD
ENDBRANCH   7  14
ENDBRANCH   1  11
BRANCH   4  18
ATOM     18  C   UNL     1       6.987   5.008  16.000  0.00  0.00    +0.000 C 
BRANCH  18  19
ATOM     19  N   UNL     1       7.962   4.106  16.645  0.00  0.00    +0.000 NA
ATOM     20  H   UNL     1       8.680   4.654  17.113  0.00  0.00    +0.000 HD
ATOM     21  H   UNL     1       8.443   3.561  15.929  0.00  0.00    +0.000 HD
ENDBRANCH  18  19
BRANCH  18  22
ATOM     22  C   UNL     1       7.408   5.297  14.529  0.00  0.00    +0.000 C 
BRANCH  22  23
ATOM     23  C   UNL     1       6.754   4.384  13.511  0.00  0.00    +0.000 A 
ATOM     24  C   UNL     1       7.519   3.707  12.552  0.00  0.00    +0.000 A 
ATOM     25  C   UNL     1       6.906   2.803  11.684  0.00  0.00    +0.000 A 
ATOM     26  F   UNL     1       7.650   2.147  10.784  0.00  0.00    +0.000 F 
ATOM     27  C   UNL     1       5.538   2.557  11.748  0.00  0.00    +0.000 A 
ATOM     28  C   UNL     1       4.762   3.259  12.667  0.00  0.00    +0.000 A 
ATOM     29  C   UNL     1       5.369   4.173  13.524  0.00  0.00    +0.000 A 
ATOM     30  F   UNL     1       4.599   4.853  14.384  0.00  0.00    +0.000 F 
ENDBRANCH  22  23
ENDBRANCH  18  22
ENDBRANCH   4  18
TORSDOF 6
ENDMDL
MODEL 5
REMARK VINA RESULT:      -7.3      1.574      2.092
REMARK  Name = 
REMARK  6 active torsions:
REMARK  status: ('A' for Active; 'I' for Inactive)
REMARK    1  A    between atoms: C_2  and  C_4
REMARK    2  A    between atoms: C_8  and  N_9
REMARK    3  A    between atoms: C_12  and  C_13
REMARK    4  A    between atoms: C_13  and  N_14
REMARK    5  A    between atoms: C_13  and  C_15
REMARK    6  A    between atoms: C_15  and  C_16
REMARK                            x       y       z     vdW  Elec       q    Type
REMARK                         _______ _______ _______ _____ _____    ______ ____
ROOT
ATOM      1  N   UNL     1       4.714   5.743  18.476  0.00  0.00    +0.000 NA
ATOM      2  C   UNL     1       5.794   4.767  18.201  0.00  0.00    +0.000 C 
ATOM      3  C   UNL     1       6.761   5.213  17.096  0.00  0.00    +0.000 C 
ATOM      4  C   UNL     1       6.042   5.563  15.779  0.00  0.00    +0.000 C 
ATOM      5  C   UNL     1       4.996   6.620  16.141  0.00  0.00    +0.000 C 
ATOM      6  C   UNL     1       4.033   6.135  17.227  0.00  0.00    +0.000 C 
ENDROOT
BRANCH   1  11
ATOM      7  C   UNL     1       1.986   3.355  19.980  0.00  0.00    +0.000 C 
ATOM      8  C   UNL     1       0.942   4.435  20.255  0.00  0.00    +0.000 C 
ATOM      9  C   UNL     1       1.583   5.710  20.779  0.00  0.00    +0.000 C 
ATOM     10  C   UNL     1       2.643   6.244  19.814  0.00  0.00    +0.000 C 
ATOM     11  C   UNL     1       3.748   5.208  19.494  0.00  0.00    +0.000 C 
ATOM     12  C   UNL     1       3.082   3.880  19.039  0.00  0.00    +0.000 C 
BRANCH   7  14
ATOM     13  N   UNL     1       3.789   2.170  21.130  0.00  0.00    +0.000 N 
ATOM     14  C   UNL     1       2.570   2.768  21.264  0.00  0.00    +0.000 C 
ATOM     15  O   UNL     1       2.035   2.829  22.364  0.00  0.00    +0.000 OA
ATOM     16  H   UNL     1       4.225   1.817  21.973  0.00  0.00    +0.000 HD
ATOM     17  H   UNL     1       4.337   2.219  20.285  0.00  0.00    +0.000 HD
ENDBRANCH   7  14
ENDBRANCH   1  11
BRANCH   4  18
ATOM     18  C   UNL     1       5.456   4.311  15.055  0.00  0.00    +0.000 C 
BRANCH  18  19
ATOM     19  N   UNL     1       6.374   3.175  15.262  0.00  0.00    +0.000 NA
ATOM     20  H   UNL     1       6.883   2.982  14.402  0.00  0.00    +0.000 HD
ATOM     21  H   UNL     1       5.831   2.334  15.464  0.00  0.00    +0.000 HD
ENDBRANCH  18  19
BRANCH  18  22
ATOM     22  C   UNL     1       5.209   4.539  13.534  0.00  0.00    +0.000 C 
BRANCH  22  23
ATOM     23  C   UNL     1       5.960   3.575  12.639  0.00  0.00    +0.000 A 
ATOM     24  C   UNL     1       5.403   2.340  12.279  0.00  0.00    +0.000 A 
ATOM     25  C   UNL     1       6.073   1.508  11.382  0.00  0.00    +0.000 A 
ATOM     26  F   UNL     1       5.522   0.339  11.031  0.00  0.00    +0.000 F 
ATOM     27  C   UNL     1       7.296   1.878  10.832  0.00  0.00    +0.000 A 
ATOM     28  C   UNL     1       7.881   3.082  11.218  0.00  0.00    +0.000 A 
ATOM     29  C   UNL     1       7.221   3.908  12.125  0.00  0.00    +0.000 A 
ATOM     30  F   UNL     1       7.813   5.050  12.499  0.00  0.00    +0.000 F 
ENDBRANCH  22  23
ENDBRANCH  18  22
ENDBRANCH   4  18
TORSDOF 6
ENDMDL
MODEL 6
REMARK VINA RESULT:      -7.3      3.409      7.234
REMARK  Name = 
REMARK  6 active torsions:
REMARK  status: ('A' for Active; 'I' for Inactive)
REMARK    1  A    between atoms: C_2  and  C_4
REMARK    2  A    between atoms: C_8  and  N_9
REMARK    3  A    between atoms: C_12  and  C_13
REMARK    4  A    between atoms: C_13  and  N_14
REMARK    5  A    between atoms: C_13  and  C_15
REMARK    6  A    between atoms: C_15  and  C_16
REMARK                            x       y       z     vdW  Elec       q    Type
REMARK                         _______ _______ _______ _____ _____    ______ ____
ROOT
ATOM      1  N   UNL     1       4.817   3.081  18.206  0.00  0.00    +0.000 NA
ATOM      2  C   UNL     1       5.068   3.167  19.664  0.00  0.00    +0.000 C 
ATOM      3  C   UNL     1       4.384   2.057  20.473  0.00  0.00    +0.000 C 
ATOM      4  C   UNL     1       2.866   1.984  20.221  0.00  0.00    +0.000 C 
ATOM      5  C   UNL     1       2.701   1.828  18.706  0.00  0.00    +0.000 C 
ATOM      6  C   UNL     1       3.373   2.963  17.931  0.00  0.00    +0.000 C 
ENDROOT
BRANCH   1  11
ATOM      7  C   UNL     1       5.625   6.840  17.418  0.00  0.00    +0.000 C 
ATOM      8  C   UNL     1       5.104   6.833  15.982  0.00  0.00    +0.000 C 
ATOM      9  C   UNL     1       5.461   5.540  15.266  0.00  0.00    +0.000 C 
ATOM     10  C   UNL     1       4.935   4.316  16.018  0.00  0.00    +0.000 C 
ATOM     11  C   UNL     1       5.430   4.245  17.482  0.00  0.00    +0.000 C 
ATOM     12  C   UNL     1       5.137   5.601  18.184  0.00  0.00    +0.000 C 
BRANCH   7  14
ATOM     13  N   UNL     1       7.755   6.289  18.483  0.00  0.00    +0.000 N 
ATOM     14  C   UNL     1       7.144   6.991  17.485  0.00  0.00    +0.000 C 
ATOM     15  O   UNL     1       7.814   7.658  16.707  0.00  0.00    +0.000 OA
ATOM     16  H   UNL     1       8.766   6.328  18.522  0.00  0.00    +0.000 HD
ATOM     17  H   UNL     1       7.274   5.613  19.057  0.00  0.00    +0.000 HD
ENDBRANCH   7  14
ENDBRANCH   1  11
BRANCH   4  18
ATOM     18  C   UNL     1       2.090   3.195  20.823  0.00  0.00    +0.000 C 
BRANCH  18  19
ATOM     19  N   UNL     1       1.323   2.728  21.994  0.00  0.00    +0.000 NA
ATOM     20  H   UNL     1       0.333   2.919  21.857  0.00  0.00    +0.000 HD
ATOM     21  H   UNL     1       1.604   3.264  22.817  0.00  0.00    +0.000 HD
ENDBRANCH  18  19
BRANCH  18  22
ATOM     22  C   UNL     1       1.144   3.891  19.799  0.00  0.00    +0.000 C 
BRANCH  22  23
ATOM     23  C   UNL     1       1.421   5.368  19.612  0.00  0.00    +0.000 A 
ATOM     24  C   UNL     1       1.471   6.239  20.710  0.00  0.00    +0.000 A 
ATOM     25  C   UNL     1       1.817   7.577  20.523  0.00  0.00    +0.000 A 
ATOM     26  F   UNL     1       1.880   8.394  21.582  0.00  0.00    +0.000 F 
ATOM     27  C   UNL     1       2.114   8.075  19.258  0.00  0.00    +0.000 A 
ATOM     28  C   UNL     1       2.022   7.230  18.155  0.00  0.00    +0.000 A 
ATOM     29  C   UNL     1       1.663   5.897  18.336  0.00  0.00    +0.000 A 
ATOM     30  F   UNL     1       1.559   5.109  17.258  0.00  0.00    +0.000 F 
ENDBRANCH  22  23
ENDBRANCH  18  22
ENDBRANCH   4  18
TORSDOF 6
ENDMDL
MODEL 7
REMARK VINA RESULT:      -7.2      6.327      9.170
REMARK  Name = 
REMARK  6 active torsions:
REMARK  status: ('A' for Active; 'I' for Inactive)
REMARK    1  A    between atoms: C_2  and  C_4
REMARK    2  A    between atoms: C_8  and  N_9
REMARK    3  A    between atoms: C_12  and  C_13
REMARK    4  A    between atoms: C_13  and  N_14
REMARK    5  A    between atoms: C_13  and  C_15
REMARK    6  A    between atoms: C_15  and  C_16
REMARK                            x       y       z     vdW  Elec       q    Type
REMARK                         _______ _______ _______ _____ _____    ______ ____
ROOT
ATOM      1  N   UNL     1       2.496   7.207  19.417  0.00  0.00    +0.000 NA
ATOM      2  C   UNL     1       2.155   7.791  18.099  0.00  0.00    +0.000 C 
ATOM      3  C   UNL     1       2.128   9.326  18.093  0.00  0.00    +0.000 C 
ATOM      4  C   UNL     1       1.191   9.910  19.168  0.00  0.00    +0.000 C 
ATOM      5  C   UNL     1       1.655   9.311  20.498  0.00  0.00    +0.000 C 
ATOM      6  C   UNL     1       1.646   7.781  20.478  0.00  0.00    +0.000 C 
ENDROOT
BRANCH   1  11
ATOM      7  C   UNL     1       1.672   3.657  17.962  0.00  0.00    +0.000 C 
ATOM      8  C   UNL     1       0.764   3.207  19.105  0.00  0.00    +0.000 C 
ATOM      9  C   UNL     1       1.300   3.658  20.454  0.00  0.00    +0.000 C 
ATOM     10  C   UNL     1       1.490   5.175  20.506  0.00  0.00    +0.000 C 
ATOM     11  C   UNL     1       2.412   5.709  19.383  0.00  0.00    +0.000 C 
ATOM     12  C   UNL     1       1.906   5.174  18.014  0.00  0.00    +0.000 C 
BRANCH   7  14
ATOM     13  N   UNL     1       2.883   1.547  18.204  0.00  0.00    +0.000 N 
ATOM     14  C   UNL     1       2.986   2.878  17.922  0.00  0.00    +0.000 C 
ATOM     15  O   UNL     1       4.074   3.361  17.637  0.00  0.00    +0.000 OA
ATOM     16  H   UNL     1       3.729   0.994  18.135  0.00  0.00    +0.000 HD
ATOM     17  H   UNL     1       1.999   1.071  18.302  0.00  0.00    +0.000 HD
ENDBRANCH   7  14
ENDBRANCH   1  11
BRANCH   4  18
ATOM     18  C   UNL     1      -0.318   9.670  18.855  0.00  0.00    +0.000 C 
BRANCH  18  19
ATOM     19  N   UNL     1      -0.548   9.926  17.419  0.00  0.00    +0.000 NA
ATOM     20  H   UNL     1       0.294   9.706  16.891  0.00  0.00    +0.000 HD
ATOM     21  H   UNL     1      -0.720  10.922  17.277  0.00  0.00    +0.000 HD
ENDBRANCH  18  19
BRANCH  18  22
ATOM     22  C   UNL     1      -1.273  10.544  19.721  0.00  0.00    +0.000 C 
BRANCH  22  23
ATOM     23  C   UNL     1      -0.760  11.946  19.977  0.00  0.00    +0.000 A 
ATOM     24  C   UNL     1      -0.755  12.911  18.960  0.00  0.00    +0.000 A 
ATOM     25  C   UNL     1      -0.363  14.219  19.242  0.00  0.00    +0.000 A 
ATOM     26  F   UNL     1      -0.382  15.137  18.267  0.00  0.00    +0.000 F 
ATOM     27  C   UNL     1       0.031  14.593  20.523  0.00  0.00    +0.000 A 
ATOM     28  C   UNL     1       0.075  13.631  21.530  0.00  0.00    +0.000 A 
ATOM     29  C   UNL     1      -0.302  12.321  21.248  0.00  0.00    +0.000 A 
ATOM     30  F   UNL     1      -0.230  11.409  22.226  0.00  0.00    +0.000 F 
ENDBRANCH  22  23
ENDBRANCH  18  22
ENDBRANCH   4  18
TORSDOF 6
ENDMDL
MODEL 8
REMARK VINA RESULT:      -7.1      1.004      1.124
REMARK  Name = 
REMARK  6 active torsions:
REMARK  status: ('A' for Active; 'I' for Inactive)
REMARK    1  A    between atoms: C_2  and  C_4
REMARK    2  A    between atoms: C_8  and  N_9
REMARK    3  A    between atoms: C_12  and  C_13
REMARK    4  A    between atoms: C_13  and  N_14
REMARK    5  A    between atoms: C_13  and  C_15
REMARK    6  A    between atoms: C_15  and  C_16
REMARK                            x       y       z     vdW  Elec       q    Type
REMARK                         _______ _______ _______ _____ _____    ______ ____
ROOT
ATOM      1  N   UNL     1       5.343   5.569  18.984  0.00  0.00    +0.000 NA
ATOM      2  C   UNL     1       6.302   4.492  18.643  0.00  0.00    +0.000 C 
ATOM      3  C   UNL     1       7.510   4.977  17.830  0.00  0.00    +0.000 C 
ATOM      4  C   UNL     1       7.104   5.724  16.545  0.00  0.00    +0.000 C 
ATOM      5  C   UNL     1       6.174   6.854  16.994  0.00  0.00    +0.000 C 
ATOM      6  C   UNL     1       4.968   6.335  17.780  0.00  0.00    +0.000 C 
ENDROOT
BRANCH   1  11
ATOM      7  C   UNL     1       2.399   3.082  19.727  0.00  0.00    +0.000 C 
ATOM      8  C   UNL     1       1.273   4.107  19.615  0.00  0.00    +0.000 C 
ATOM      9  C   UNL     1       1.666   5.439  20.236  0.00  0.00    +0.000 C 
ATOM     10  C   UNL     1       2.944   5.997  19.607  0.00  0.00    +0.000 C 
ATOM     11  C   UNL     1       4.139   5.018  19.692  0.00  0.00    +0.000 C 
ATOM     12  C   UNL     1       3.704   3.635  19.132  0.00  0.00    +0.000 C 
BRANCH   7  14
ATOM     13  N   UNL     1       1.464   2.567  21.925  0.00  0.00    +0.000 N 
ATOM     14  C   UNL     1       2.592   2.583  21.158  0.00  0.00    +0.000 C 
ATOM     15  O   UNL     1       3.654   2.189  21.622  0.00  0.00    +0.000 OA
ATOM     16  H   UNL     1       1.548   2.192  22.863  0.00  0.00    +0.000 HD
ATOM     17  H   UNL     1       0.541   2.740  21.555  0.00  0.00    +0.000 HD
ENDBRANCH   7  14
ENDBRANCH   1  11
BRANCH   4  18
ATOM     18  C   UNL     1       6.485   4.784  15.465  0.00  0.00    +0.000 C 
BRANCH  18  19
ATOM     19  N   UNL     1       6.722   3.384  15.868  0.00  0.00    +0.000 NA
ATOM     20  H   UNL     1       6.375   3.234  16.813  0.00  0.00    +0.000 HD
ATOM     21  H   UNL     1       7.727   3.208  15.904  0.00  0.00    +0.000 HD
ENDBRANCH  18  19
BRANCH  18  22
ATOM     22  C   UNL     1       7.045   5.038  14.034  0.00  0.00    +0.000 C 
BRANCH  22  23
ATOM     23  C   UNL     1       6.568   4.038  13.001  0.00  0.00    +0.000 A 
ATOM     24  C   UNL     1       7.478   3.361  12.177  0.00  0.00    +0.000 A 
ATOM     25  C   UNL     1       7.023   2.379  11.297  0.00  0.00    +0.000 A 
ATOM     26  F   UNL     1       7.904   1.726  10.528  0.00  0.00    +0.000 F 
ATOM     27  C   UNL     1       5.673   2.054  11.214  0.00  0.00    +0.000 A 
ATOM     28  C   UNL     1       4.755   2.753  11.995  0.00  0.00    +0.000 A 
ATOM     29  C   UNL     1       5.204   3.744  12.864  0.00  0.00    +0.000 A 
ATOM     30  F   UNL     1       4.301   4.418  13.588  0.00  0.00    +0.000 F 
ENDBRANCH  22  23
ENDBRANCH  18  22
ENDBRANCH   4  18
TORSDOF 6
ENDMDL
MODEL 9
REMARK VINA RESULT:      -7.1      1.113      1.668
REMARK  Name = 
REMARK  6 active torsions:
REMARK  status: ('A' for Active; 'I' for Inactive)
REMARK    1  A    between atoms: C_2  and  C_4
REMARK    2  A    between atoms: C_8  and  N_9
REMARK    3  A    between atoms: C_12  and  C_13
REMARK    4  A    between atoms: C_13  and  N_14
REMARK    5  A    between atoms: C_13  and  C_15
REMARK    6  A    between atoms: C_15  and  C_16
REMARK                            x       y       z     vdW  Elec       q    Type
REMARK                         _______ _______ _______ _____ _____    ______ ____
ROOT
ATOM      1  N   UNL     1       4.435   5.704  18.938  0.00  0.00    +0.000 NA
ATOM      2  C   UNL     1       5.733   5.117  19.345  0.00  0.00    +0.000 C 
ATOM      3  C   UNL     1       6.946   5.967  18.943  0.00  0.00    +0.000 C 
ATOM      4  C   UNL     1       6.980   6.283  17.435  0.00  0.00    +0.000 C 
ATOM      5  C   UNL     1       5.636   6.945  17.117  0.00  0.00    +0.000 C 
ATOM      6  C   UNL     1       4.449   6.063  17.507  0.00  0.00    +0.000 C 
ENDROOT
BRANCH   1  11
ATOM      7  C   UNL     1       2.640   2.317  19.780  0.00  0.00    +0.000 C 
ATOM      8  C   UNL     1       1.646   2.354  18.621  0.00  0.00    +0.000 C 
ATOM      9  C   UNL     1       1.115   3.759  18.386  0.00  0.00    +0.000 C 
ATOM     10  C   UNL     1       2.249   4.754  18.132  0.00  0.00    +0.000 C 
ATOM     11  C   UNL     1       3.296   4.784  19.272  0.00  0.00    +0.000 C 
ATOM     12  C   UNL     1       3.772   3.333  19.563  0.00  0.00    +0.000 C 
BRANCH   7  14
ATOM     13  N   UNL     1       0.615   2.717  21.088  0.00  0.00    +0.000 N 
ATOM     14  C   UNL     1       1.962   2.499  21.136  0.00  0.00    +0.000 C 
ATOM     15  O   UNL     1       2.534   2.437  22.216  0.00  0.00    +0.000 OA
ATOM     16  H   UNL     1       0.128   2.791  21.973  0.00  0.00    +0.000 HD
ATOM     17  H   UNL     1       0.072   2.633  20.242  0.00  0.00    +0.000 HD
ENDBRANCH   7  14
ENDBRANCH   1  11
BRANCH   4  18
ATOM     18  C   UNL     1       7.295   5.033  16.558  0.00  0.00    +0.000 C 
BRANCH  18  19
ATOM     19  N   UNL     1       8.130   4.104  17.344  0.00  0.00    +0.000 NA
ATOM     20  H   UNL     1       8.361   4.525  18.242  0.00  0.00    +0.000 HD
ATOM     21  H   UNL     1       9.019   3.959  16.863  0.00  0.00    +0.000 HD
ENDBRANCH  18  19
BRANCH  18  22
ATOM     22  C   UNL     1       7.997   5.386  15.213  0.00  0.00    +0.000 C 
BRANCH  22  23
ATOM     23  C   UNL     1       7.305   4.818  13.991  0.00  0.00    +0.000 A 
ATOM     24  C   UNL     1       6.082   4.143  14.102  0.00  0.00    +0.000 A 
ATOM     25  C   UNL     1       5.419   3.708  12.954  0.00  0.00    +0.000 A 
ATOM     26  F   UNL     1       4.242   3.081  13.072  0.00  0.00    +0.000 F 
ATOM     27  C   UNL     1       5.951   3.928  11.688  0.00  0.00    +0.000 A 
ATOM     28  C   UNL     1       7.188   4.557  11.568  0.00  0.00    +0.000 A 
ATOM     29  C   UNL     1       7.859   4.979  12.713  0.00  0.00    +0.000 A 
ATOM     30  F   UNL     1       9.057   5.561  12.575  0.00  0.00    +0.000 F 
ENDBRANCH  22  23
ENDBRANCH  18  22
ENDBRANCH   4  18
TORSDOF 6
ENDMDL
