MODEL 1
REMARK VINA RESULT:      -8.6      0.000      0.000
REMARK  Name = 
REMARK  12 active torsions:
REMARK  status: ('A' for Active; 'I' for Inactive)
REMARK    1  A    between atoms: CG1_1  and  CB_2
REMARK    2  A    between atoms: CB_2  and  CG2_3
REMARK    3  A    between atoms: CB_2  and  CA_4
REMARK    4  A    between atoms: CA_4  and  C_5
REMARK    5  A    between atoms: CA_4  and  N_7
REMARK    6  A    between atoms: C_5  and  O_6
REMARK    7  A    between atoms: C_8  and  CA_10
REMARK    8  A    between atoms: CA_10  and  N_11
REMARK    9  A    between atoms: CA_10  and  C_27
REMARK   10  A    between atoms: C_12  and  C_14
REMARK   11  A    between atoms: C_14  and  C_15
REMARK   12  A    between atoms: C_14  and  C_21
REMARK                            x       y       z     vdW  Elec       q    Type
REMARK                         _______ _______ _______ _____ _____    ______ ____
ROOT
ATOM      1  CA  UNL     1       6.745   6.151  17.692  0.00  0.00    +0.000 C 
ENDROOT
BRANCH   1   2
ATOM      2  C   UNL     1       7.464   7.474  17.951  0.00  0.00    +0.000 A 
ATOM      3  C   UNL     1       7.097   8.618  17.220  0.00  0.00    +0.000 A 
ATOM      4  C   UNL     1       7.731   9.843  17.440  0.00  0.00    +0.000 A 
ATOM      5  C   UNL     1       8.728   9.947  18.404  0.00  0.00    +0.000 A 
ATOM      6  C   UNL     1       9.111   8.823  19.132  0.00  0.00    +0.000 A 
ATOM      7  C   UNL     1       8.502   7.590  18.891  0.00  0.00    +0.000 A 
ENDBRANCH   1   2
BRANCH   1   9
ATOM      8  N   UNL     1       7.157   5.517  15.305  0.00  0.00    +0.000 N 
ATOM      9  C   UNL     1       7.429   5.224  16.630  0.00  0.00    +0.000 C 
ATOM     10  O   UNL     1       8.050   4.215  16.970  0.00  0.00    +0.000 OA
ATOM     11  H   UNL     1       6.553   6.296  15.104  0.00  0.00    +0.000 HD
BRANCH   8  12
ATOM     12  CA  UNL     1       7.432   4.580  14.215  0.00  0.00    +0.000 C 
BRANCH  12  14
ATOM     13  CG1 UNL     1       4.886   4.343  14.455  0.00  0.00    +0.000 C 
ATOM     14  CB  UNL     1       6.169   3.716  13.898  0.00  0.00    +0.000 C 
ATOM     15  CG2 UNL     1       5.972   3.493  12.391  0.00  0.00    +0.000 C 
ENDBRANCH  12  14
BRANCH  12  16
ATOM     16  C   UNL     1       7.960   5.368  12.994  0.00  0.00    +0.000 C 
BRANCH  16  17
ATOM     17  O   UNL     1       9.103   6.165  13.312  0.00  0.00    +0.000 OA
ATOM     18  H   UNL     1       9.389   6.619  12.504  0.00  0.00    +0.000 HD
ENDBRANCH  16  17
ENDBRANCH  12  16
ENDBRANCH   8  12
ENDBRANCH   1   9
BRANCH   1  19
ATOM     19  N   UNL     1       5.300   6.343  17.574  0.00  0.00    +0.000 N 
ATOM     20  C   UNL     1       4.393   5.895  18.504  0.00  0.00    +0.000 C 
ATOM     21  O   UNL     1       4.733   5.384  19.572  0.00  0.00    +0.000 OA
ATOM     22  H   UNL     1       4.959   6.580  16.649  0.00  0.00    +0.000 HD
BRANCH  20  23
ATOM     23  C   UNL     1       2.900   6.024  18.122  0.00  0.00    +0.000 C 
BRANCH  23  24
ATOM     24  C   UNL     1       2.218   4.771  18.681  0.00  0.00    +0.000 A 
ATOM     25  C   UNL     1       2.117   3.607  17.895  0.00  0.00    +0.000 A 
ATOM     26  C   UNL     1       1.392   2.503  18.337  0.00  0.00    +0.000 A 
ATOM     27  C   UNL     1       0.770   2.541  19.579  0.00  0.00    +0.000 A 
ATOM     28  C   UNL     1       0.884   3.676  20.383  0.00  0.00    +0.000 A 
ATOM     29  C   UNL     1       1.603   4.788  19.939  0.00  0.00    +0.000 A 
ENDBRANCH  23  24
BRANCH  23  30
ATOM     30  C   UNL     1       2.310   7.363  18.599  0.00  0.00    +0.000 A 
ATOM     31  C   UNL     1       2.017   7.563  19.964  0.00  0.00    +0.000 A 
ATOM     32  C   UNL     1       1.347   8.708  20.398  0.00  0.00    +0.000 A 
ATOM     33  C   UNL     1       0.996   9.696  19.485  0.00  0.00    +0.000 A 
ATOM     34  C   UNL     1       1.360   9.561  18.148  0.00  0.00    +0.000 A 
ATOM     35  C   UNL     1       2.029   8.414  17.711  0.00  0.00    +0.000 A 
ENDBRANCH  23  30
ENDBRANCH  20  23
ENDBRANCH   1  19
TORSDOF 10
ENDMDL
MODEL 2
REMARK VINA RESULT:      -8.3      0.174      1.486
REMARK  Name = 
REMARK  12 active torsions:
REMARK  status: ('A' for Active; 'I' for Inactive)
REMARK    1  A    between atoms: CG1_1  and  CB_2
REMARK    2  A    between atoms: CB_2  and  CG2_3
REMARK    3  A    between atoms: CB_2  and  CA_4
REMARK    4  A    between atoms: CA_4  and  C_5
REMARK    5  A    between atoms: CA_4  and  N_7
REMARK    6  A    between atoms: C_5  and  O_6
REMARK    7  A    between atoms: C_8  and  CA_10
REMARK    8  A    between atoms: CA_10  and  N_11
REMARK    9  A    between atoms: CA_10  and  C_27
REMARK   10  A    between atoms: C_12  and  C_14
REMARK   11  A    between atoms: C_14  and  C_15
REMARK   12  A    between atoms: C_14  and  C_21
REMARK                            x       y       z     vdW  Elec       q    Type
REMARK                         _______ _______ _______ _____ _____    ______ ____
ROOT
ATOM      1  CA  UNL     1       6.691   6.276  17.685  0.00  0.00    +0.000 C 
ENDROOT
BRANCH   1   2
ATOM      2  C   UNL     1       7.398   7.611  17.908  0.00  0.00    +0.000 A 
ATOM      3  C   UNL     1       8.457   7.691  18.830  0.00  0.00    +0.000 A 
ATOM      4  C   UNL     1       9.126   8.896  19.049  0.00  0.00    +0.000 A 
ATOM      5  C   UNL     1       8.760  10.036  18.339  0.00  0.00    +0.000 A 
ATOM      6  C   UNL     1       7.708   9.978  17.428  0.00  0.00    +0.000 A 
ATOM      7  C   UNL     1       7.015   8.782  17.231  0.00  0.00    +0.000 A 
ENDBRANCH   1   2
BRANCH   1   9
ATOM      8  N   UNL     1       7.163   5.599  15.320  0.00  0.00    +0.000 N 
ATOM      9  C   UNL     1       7.390   5.321  16.658  0.00  0.00    +0.000 C 
ATOM     10  O   UNL     1       7.982   4.307  17.031  0.00  0.00    +0.000 OA
ATOM     11  H   UNL     1       6.579   6.385  15.090  0.00  0.00    +0.000 HD
BRANCH   8  12
ATOM     12  CA  UNL     1       7.455   4.641  14.253  0.00  0.00    +0.000 C 
BRANCH  12  14
ATOM     13  CG1 UNL     1       4.907   4.392  14.465  0.00  0.00    +0.000 C 
ATOM     14  CB  UNL     1       6.203   3.757  13.949  0.00  0.00    +0.000 C 
ATOM     15  CG2 UNL     1       6.030   3.479  12.448  0.00  0.00    +0.000 C 
ENDBRANCH  12  14
BRANCH  12  16
ATOM     16  C   UNL     1       7.981   5.408  13.017  0.00  0.00    +0.000 C 
BRANCH  16  17
ATOM     17  O   UNL     1       9.167   6.153  13.302  0.00  0.00    +0.000 OA
ATOM     18  H   UNL     1       9.816   5.965  12.607  0.00  0.00    +0.000 HD
ENDBRANCH  16  17
ENDBRANCH  12  16
ENDBRANCH   8  12
ENDBRANCH   1   9
BRANCH   1  19
ATOM     19  N   UNL     1       5.245   6.454  17.549  0.00  0.00    +0.000 N 
ATOM     20  C   UNL     1       4.330   5.982  18.459  0.00  0.00    +0.000 C 
ATOM     21  O   UNL     1       4.661   5.459  19.524  0.00  0.00    +0.000 OA
ATOM     22  H   UNL     1       4.915   6.700  16.622  0.00  0.00    +0.000 HD
BRANCH  20  23
ATOM     23  C   UNL     1       2.841   6.100  18.057  0.00  0.00    +0.000 C 
BRANCH  23  24
ATOM     24  C   UNL     1       2.178   4.803  18.533  0.00  0.00    +0.000 A 
ATOM     25  C   UNL     1       1.649   4.714  19.836  0.00  0.00    +0.000 A 
ATOM     26  C   UNL     1       1.157   3.508  20.328  0.00  0.00    +0.000 A 
ATOM     27  C   UNL     1       1.173   2.376  19.521  0.00  0.00    +0.000 A 
ATOM     28  C   UNL     1       1.669   2.455  18.219  0.00  0.00    +0.000 A 
ATOM     29  C   UNL     1       2.171   3.660  17.724  0.00  0.00    +0.000 A 
ENDBRANCH  23  24
BRANCH  23  30
ATOM     30  C   UNL     1       2.213   7.397  18.597  0.00  0.00    +0.000 A 
ATOM     31  C   UNL     1       1.942   8.471  17.726  0.00  0.00    +0.000 A 
ATOM     32  C   UNL     1       1.511   9.706  18.213  0.00  0.00    +0.000 A 
ATOM     33  C   UNL     1       1.301   9.880  19.576  0.00  0.00    +0.000 A 
ATOM     34  C   UNL     1       1.472   8.805  20.443  0.00  0.00    +0.000 A 
ATOM     35  C   UNL     1       1.904   7.567  19.957  0.00  0.00    +0.000 A 
ENDBRANCH  23  30
ENDBRANCH  20  23
ENDBRANCH   1  19
TORSDOF 10
ENDMDL
MODEL 3
REMARK VINA RESULT:      -8.2      0.311      1.096
REMARK  Name = 
REMARK  12 active torsions:
REMARK  status: ('A' for Active; 'I' for Inactive)
REMARK    1  A    between atoms: CG1_1  and  CB_2
REMARK    2  A    between atoms: CB_2  and  CG2_3
REMARK    3  A    between atoms: CB_2  and  CA_4
REMARK    4  A    between atoms: CA_4  and  C_5
REMARK    5  A    between atoms: CA_4  and  N_7
REMARK    6  A    between atoms: C_5  and  O_6
REMARK    7  A    between atoms: C_8  and  CA_10
REMARK    8  A    between atoms: CA_10  and  N_11
REMARK    9  A    between atoms: CA_10  and  C_27
REMARK   10  A    between atoms: C_12  and  C_14
REMARK   11  A    between atoms: C_14  and  C_15
REMARK   12  A    between atoms: C_14  and  C_21
REMARK                            x       y       z     vdW  Elec       q    Type
REMARK                         _______ _______ _______ _____ _____    ______ ____
ROOT
ATOM      1  CA  UNL     1       6.617   6.041  17.472  0.00  0.00    +0.000 C 
ENDROOT
BRANCH   1   2
ATOM      2  C   UNL     1       7.350   7.335  17.820  0.00  0.00    +0.000 A 
ATOM      3  C   UNL     1       8.346   7.323  18.814  0.00  0.00    +0.000 A 
ATOM      4  C   UNL     1       9.038   8.489  19.148  0.00  0.00    +0.000 A 
ATOM      5  C   UNL     1       8.759   9.679  18.485  0.00  0.00    +0.000 A 
ATOM      6  C   UNL     1       7.770   9.712  17.504  0.00  0.00    +0.000 A 
ATOM      7  C   UNL     1       7.053   8.556  17.190  0.00  0.00    +0.000 A 
ENDBRANCH   1   2
BRANCH   1   9
ATOM      8  N   UNL     1       6.889   5.550  15.031  0.00  0.00    +0.000 N 
ATOM      9  C   UNL     1       7.266   5.204  16.317  0.00  0.00    +0.000 C 
ATOM     10  O   UNL     1       7.954   4.211  16.559  0.00  0.00    +0.000 OA
ATOM     11  H   UNL     1       6.237   6.308  14.914  0.00  0.00    +0.000 HD
BRANCH   8  12
ATOM     12  CA  UNL     1       7.130   4.685  13.875  0.00  0.00    +0.000 C 
BRANCH  12  14
ATOM     13  CG1 UNL     1       5.994   3.058  12.243  0.00  0.00    +0.000 C 
ATOM     14  CB  UNL     1       5.780   4.149  13.298  0.00  0.00    +0.000 C 
ATOM     15  CG2 UNL     1       4.859   3.580  14.388  0.00  0.00    +0.000 C 
ENDBRANCH  12  14
BRANCH  12  16
ATOM     16  C   UNL     1       7.980   5.455  12.838  0.00  0.00    +0.000 C 
BRANCH  16  17
ATOM     17  O   UNL     1       9.089   6.129  13.435  0.00  0.00    +0.000 OA
ATOM     18  H   UNL     1       8.783   6.991  13.756  0.00  0.00    +0.000 HD
ENDBRANCH  16  17
ENDBRANCH  12  16
ENDBRANCH   8  12
ENDBRANCH   1   9
BRANCH   1  19
ATOM     19  N   UNL     1       5.170   6.248  17.410  0.00  0.00    +0.000 N 
ATOM     20  C   UNL     1       4.312   5.946  18.440  0.00  0.00    +0.000 C 
ATOM     21  O   UNL     1       4.707   5.573  19.545  0.00  0.00    +0.000 OA
ATOM     22  H   UNL     1       4.780   6.368  16.482  0.00  0.00    +0.000 HD
BRANCH  20  23
ATOM     23  C   UNL     1       2.802   6.057  18.128  0.00  0.00    +0.000 C 
BRANCH  23  24
ATOM     24  C   UNL     1       2.159   4.808  18.740  0.00  0.00    +0.000 A 
ATOM     25  C   UNL     1       1.897   3.679  17.939  0.00  0.00    +0.000 A 
ATOM     26  C   UNL     1       1.200   2.586  18.447  0.00  0.00    +0.000 A 
ATOM     27  C   UNL     1       0.768   2.598  19.768  0.00  0.00    +0.000 A 
ATOM     28  C   UNL     1       1.043   3.697  20.583  0.00  0.00    +0.000 A 
ATOM     29  C   UNL     1       1.734   4.799  20.075  0.00  0.00    +0.000 A 
ENDBRANCH  23  24
BRANCH  23  30
ATOM     30  C   UNL     1       2.224   7.399  18.610  0.00  0.00    +0.000 A 
ATOM     31  C   UNL     1       1.950   7.604  19.978  0.00  0.00    +0.000 A 
ATOM     32  C   UNL     1       1.291   8.752  20.420  0.00  0.00    +0.000 A 
ATOM     33  C   UNL     1       0.931   9.740  19.509  0.00  0.00    +0.000 A 
ATOM     34  C   UNL     1       1.276   9.600  18.168  0.00  0.00    +0.000 A 
ATOM     35  C   UNL     1       1.935   8.450  17.724  0.00  0.00    +0.000 A 
ENDBRANCH  23  30
ENDBRANCH  20  23
ENDBRANCH   1  19
TORSDOF 10
ENDMDL
MODEL 4
REMARK VINA RESULT:      -7.9      3.521      8.314
REMARK  Name = 
REMARK  12 active torsions:
REMARK  status: ('A' for Active; 'I' for Inactive)
REMARK    1  A    between atoms: CG1_1  and  CB_2
REMARK    2  A    between atoms: CB_2  and  CG2_3
REMARK    3  A    between atoms: CB_2  and  CA_4
REMARK    4  A    between atoms: CA_4  and  C_5
REMARK    5  A    between atoms: CA_4  and  N_7
REMARK    6  A    between atoms: C_5  and  O_6
REMARK    7  A    between atoms: C_8  and  CA_10
REMARK    8  A    between atoms: CA_10  and  N_11
REMARK    9  A    between atoms: CA_10  and  C_27
REMARK   10  A    between atoms: C_12  and  C_14
REMARK   11  A    between atoms: C_14  and  C_15
REMARK   12  A    between atoms: C_14  and  C_21
REMARK                            x       y       z     vdW  Elec       q    Type
REMARK                         _______ _______ _______ _____ _____    ______ ____
ROOT
ATOM      1  CA  UNL     1       0.934   9.793  18.675  0.00  0.00    +0.000 C 
ENDROOT
BRANCH   1   2
ATOM      2  C   UNL     1      -0.515  10.130  18.332  0.00  0.00    +0.000 A 
ATOM      3  C   UNL     1      -1.078   9.643  17.139  0.00  0.00    +0.000 A 
ATOM      4  C   UNL     1      -2.402   9.929  16.802  0.00  0.00    +0.000 A 
ATOM      5  C   UNL     1      -3.190  10.691  17.659  0.00  0.00    +0.000 A 
ATOM      6  C   UNL     1      -2.647  11.190  18.841  0.00  0.00    +0.000 A 
ATOM      7  C   UNL     1      -1.313  10.933  19.165  0.00  0.00    +0.000 A 
ENDBRANCH   1   2
BRANCH   1   9
ATOM      8  N   UNL     1       1.808  12.069  19.249  0.00  0.00    +0.000 N 
ATOM      9  C   UNL     1       1.958  10.955  18.439  0.00  0.00    +0.000 C 
ATOM     10  O   UNL     1       2.748  10.927  17.494  0.00  0.00    +0.000 OA
ATOM     11  H   UNL     1       1.069  12.064  19.932  0.00  0.00    +0.000 HD
BRANCH   8  12
ATOM     12  CA  UNL     1       2.445  13.353  18.954  0.00  0.00    +0.000 C 
BRANCH  12  14
ATOM     13  CG1 UNL     1      -0.006  14.123  18.974  0.00  0.00    +0.000 C 
ATOM     14  CB  UNL     1       1.397  14.375  18.409  0.00  0.00    +0.000 C 
ATOM     15  CG2 UNL     1       1.778  15.831  18.721  0.00  0.00    +0.000 C 
ENDBRANCH  12  14
BRANCH  12  16
ATOM     16  C   UNL     1       3.188  13.848  20.217  0.00  0.00    +0.000 C 
BRANCH  16  17
ATOM     17  O   UNL     1       2.569  13.400  21.425  0.00  0.00    +0.000 OA
ATOM     18  H   UNL     1       3.054  12.624  21.744  0.00  0.00    +0.000 HD
ENDBRANCH  16  17
ENDBRANCH  12  16
ENDBRANCH   8  12
ENDBRANCH   1   9
BRANCH   1  19
ATOM     19  N   UNL     1       1.306   8.468  18.177  0.00  0.00    +0.000 N 
ATOM     20  C   UNL     1       2.059   7.569  18.892  0.00  0.00    +0.000 C 
ATOM     21  O   UNL     1       2.396   7.764  20.061  0.00  0.00    +0.000 OA
ATOM     22  H   UNL     1       1.223   8.334  17.176  0.00  0.00    +0.000 HD
BRANCH  20  23
ATOM     23  C   UNL     1       2.509   6.298  18.135  0.00  0.00    +0.000 C 
BRANCH  23  24
ATOM     24  C   UNL     1       4.041   6.322  18.155  0.00  0.00    +0.000 A 
ATOM     25  C   UNL     1       4.752   7.079  17.202  0.00  0.00    +0.000 A 
ATOM     26  C   UNL     1       6.140   7.013  17.126  0.00  0.00    +0.000 A 
ATOM     27  C   UNL     1       6.841   6.204  18.012  0.00  0.00    +0.000 A 
ATOM     28  C   UNL     1       6.154   5.469  18.980  0.00  0.00    +0.000 A 
ATOM     29  C   UNL     1       4.761   5.525  19.054  0.00  0.00    +0.000 A 
ENDBRANCH  23  24
BRANCH  23  30
ATOM     30  C   UNL     1       1.864   5.032  18.725  0.00  0.00    +0.000 A 
ATOM     31  C   UNL     1       1.568   4.961  20.102  0.00  0.00    +0.000 A 
ATOM     32  C   UNL     1       1.120   3.775  20.685  0.00  0.00    +0.000 A 
ATOM     33  C   UNL     1       0.917   2.647  19.898  0.00  0.00    +0.000 A 
ATOM     34  C   UNL     1       1.113   2.722  18.522  0.00  0.00    +0.000 A 
ATOM     35  C   UNL     1       1.562   3.910  17.936  0.00  0.00    +0.000 A 
ENDBRANCH  23  30
ENDBRANCH  20  23
ENDBRANCH   1  19
TORSDOF 10
ENDMDL
MODEL 5
REMARK VINA RESULT:      -7.9      1.947      7.430
REMARK  Name = 
REMARK  12 active torsions:
REMARK  status: ('A' for Active; 'I' for Inactive)
REMARK    1  A    between atoms: CG1_1  and  CB_2
REMARK    2  A    between atoms: CB_2  and  CG2_3
REMARK    3  A    between atoms: CB_2  and  CA_4
REMARK    4  A    between atoms: CA_4  and  C_5
REMARK    5  A    between atoms: CA_4  and  N_7
REMARK    6  A    between atoms: C_5  and  O_6
REMARK    7  A    between atoms: C_8  and  CA_10
REMARK    8  A    between atoms: CA_10  and  N_11
REMARK    9  A    between atoms: CA_10  and  C_27
REMARK   10  A    between atoms: C_12  and  C_14
REMARK   11  A    between atoms: C_14  and  C_15
REMARK   12  A    between atoms: C_14  and  C_21
REMARK                            x       y       z     vdW  Elec       q    Type
REMARK                         _______ _______ _______ _____ _____    ______ ____
ROOT
ATOM      1  CA  UNL     1       3.116   6.547  19.015  0.00  0.00    +0.000 C 
ENDROOT
BRANCH   1   2
ATOM      2  C   UNL     1       2.284   5.275  19.163  0.00  0.00    +0.000 A 
ATOM      3  C   UNL     1       2.029   4.476  18.034  0.00  0.00    +0.000 A 
ATOM      4  C   UNL     1       1.278   3.304  18.141  0.00  0.00    +0.000 A 
ATOM      5  C   UNL     1       0.784   2.903  19.378  0.00  0.00    +0.000 A 
ATOM      6  C   UNL     1       1.019   3.686  20.506  0.00  0.00    +0.000 A 
ATOM      7  C   UNL     1       1.742   4.876  20.397  0.00  0.00    +0.000 A 
ENDBRANCH   1   2
BRANCH   1   9
ATOM      8  N   UNL     1       1.753   8.577  19.556  0.00  0.00    +0.000 N 
ATOM      9  C   UNL     1       2.315   7.811  18.549  0.00  0.00    +0.000 C 
ATOM     10  O   UNL     1       2.087   8.017  17.356  0.00  0.00    +0.000 OA
ATOM     11  H   UNL     1       1.893   8.287  20.509  0.00  0.00    +0.000 HD
BRANCH   8  12
ATOM     12  CA  UNL     1       0.718   9.581  19.302  0.00  0.00    +0.000 C 
BRANCH  12  14
ATOM     13  CG1 UNL     1       0.038   8.619  21.586  0.00  0.00    +0.000 C 
ATOM     14  CB  UNL     1      -0.311   9.619  20.477  0.00  0.00    +0.000 C 
ATOM     15  CG2 UNL     1      -0.424  11.013  21.114  0.00  0.00    +0.000 C 
ENDBRANCH  12  14
BRANCH  12  16
ATOM     16  C   UNL     1       1.395  10.945  19.032  0.00  0.00    +0.000 C 
BRANCH  16  17
ATOM     17  O   UNL     1       2.039  10.991  17.757  0.00  0.00    +0.000 OA
ATOM     18  H   UNL     1       1.408  11.343  17.112  0.00  0.00    +0.000 HD
ENDBRANCH  16  17
ENDBRANCH  12  16
ENDBRANCH   8  12
ENDBRANCH   1   9
BRANCH   1  19
ATOM     19  N   UNL     1       4.386   6.278  18.339  0.00  0.00    +0.000 N 
ATOM     20  C   UNL     1       5.376   5.485  18.865  0.00  0.00    +0.000 C 
ATOM     21  O   UNL     1       5.232   4.846  19.908  0.00  0.00    +0.000 OA
ATOM     22  H   UNL     1       4.629   6.914  17.588  0.00  0.00    +0.000 HD
BRANCH  20  23
ATOM     23  C   UNL     1       6.718   5.466  18.097  0.00  0.00    +0.000 C 
BRANCH  23  24
ATOM     24  C   UNL     1       6.397   4.886  16.715  0.00  0.00    +0.000 A 
ATOM     25  C   UNL     1       7.244   5.151  15.620  0.00  0.00    +0.000 A 
ATOM     26  C   UNL     1       6.903   4.740  14.335  0.00  0.00    +0.000 A 
ATOM     27  C   UNL     1       5.718   4.044  14.125  0.00  0.00    +0.000 A 
ATOM     28  C   UNL     1       4.882   3.750  15.203  0.00  0.00    +0.000 A 
ATOM     29  C   UNL     1       5.216   4.168  16.493  0.00  0.00    +0.000 A 
ENDBRANCH  23  24
BRANCH  23  30
ATOM     30  C   UNL     1       7.384   6.853  18.090  0.00  0.00    +0.000 A 
ATOM     31  C   UNL     1       8.422   7.147  18.997  0.00  0.00    +0.000 A 
ATOM     32  C   UNL     1       8.939   8.439  19.110  0.00  0.00    +0.000 A 
ATOM     33  C   UNL     1       8.460   9.453  18.288  0.00  0.00    +0.000 A 
ATOM     34  C   UNL     1       7.502   9.163  17.322  0.00  0.00    +0.000 A 
ATOM     35  C   UNL     1       6.982   7.870  17.208  0.00  0.00    +0.000 A 
ENDBRANCH  23  30
ENDBRANCH  20  23
ENDBRANCH   1  19
TORSDOF 10
ENDMDL
MODEL 6
REMARK VINA RESULT:      -7.8      3.196      7.678
REMARK  Name = 
REMARK  12 active torsions:
REMARK  status: ('A' for Active; 'I' for Inactive)
REMARK    1  A    between atoms: CG1_1  and  CB_2
REMARK    2  A    between atoms: CB_2  and  CG2_3
REMARK    3  A    between atoms: CB_2  and  CA_4
REMARK    4  A    between atoms: CA_4  and  C_5
REMARK    5  A    between atoms: CA_4  and  N_7
REMARK    6  A    between atoms: C_5  and  O_6
REMARK    7  A    between atoms: C_8  and  CA_10
REMARK    8  A    between atoms: CA_10  and  N_11
REMARK    9  A    between atoms: CA_10  and  C_27
REMARK   10  A    between atoms: C_12  and  C_14
REMARK   11  A    between atoms: C_14  and  C_15
REMARK   12  A    between atoms: C_14  and  C_21
REMARK                            x       y       z     vdW  Elec       q    Type
REMARK                         _______ _______ _______ _____ _____    ______ ____
ROOT
ATOM      1  CA  UNL     1       1.749   8.715  19.395  0.00  0.00    +0.000 C 
ENDROOT
BRANCH   1   2
ATOM      2  C   UNL     1       1.101   8.845  20.772  0.00  0.00    +0.000 A 
ATOM      3  C   UNL     1       1.830   9.410  21.833  0.00  0.00    +0.000 A 
ATOM      4  C   UNL     1       1.261   9.549  23.100  0.00  0.00    +0.000 A 
ATOM      5  C   UNL     1      -0.051   9.142  23.323  0.00  0.00    +0.000 A 
ATOM      6  C   UNL     1      -0.786   8.572  22.286  0.00  0.00    +0.000 A 
ATOM      7  C   UNL     1      -0.209   8.402  21.026  0.00  0.00    +0.000 A 
ENDBRANCH   1   2
BRANCH   1   9
ATOM      8  N   UNL     1      -0.154  10.089  18.522  0.00  0.00    +0.000 N 
ATOM      9  C   UNL     1       1.130   9.629  18.283  0.00  0.00    +0.000 C 
ATOM     10  O   UNL     1       1.704   9.801  17.206  0.00  0.00    +0.000 OA
ATOM     11  H   UNL     1      -0.604   9.820  19.381  0.00  0.00    +0.000 HD
BRANCH   8  12
ATOM     12  CA  UNL     1      -0.995  10.666  17.473  0.00  0.00    +0.000 C 
BRANCH  12  14
ATOM     13  CG1 UNL     1      -3.286   9.600  17.940  0.00  0.00    +0.000 C 
ATOM     14  CB  UNL     1      -2.073   9.636  17.003  0.00  0.00    +0.000 C 
ATOM     15  CG2 UNL     1      -2.580   9.922  15.581  0.00  0.00    +0.000 C 
ENDBRANCH  12  14
BRANCH  12  16
ATOM     16  C   UNL     1      -1.597  11.996  17.983  0.00  0.00    +0.000 C 
BRANCH  16  17
ATOM     17  O   UNL     1      -0.854  13.134  17.542  0.00  0.00    +0.000 OA
ATOM     18  H   UNL     1      -0.271  12.854  16.821  0.00  0.00    +0.000 HD
ENDBRANCH  16  17
ENDBRANCH  12  16
ENDBRANCH   8  12
ENDBRANCH   1   9
BRANCH   1  19
ATOM     19  N   UNL     1       1.986   7.313  19.048  0.00  0.00    +0.000 N 
ATOM     20  C   UNL     1       3.040   6.887  18.276  0.00  0.00    +0.000 C 
ATOM     21  O   UNL     1       3.936   7.643  17.899  0.00  0.00    +0.000 OA
ATOM     22  H   UNL     1       1.196   6.689  19.166  0.00  0.00    +0.000 HD
BRANCH  20  23
ATOM     23  C   UNL     1       3.025   5.398  17.859  0.00  0.00    +0.000 C 
BRANCH  23  24
ATOM     24  C   UNL     1       4.473   5.055  17.494  0.00  0.00    +0.000 A 
ATOM     25  C   UNL     1       5.490   5.140  18.466  0.00  0.00    +0.000 A 
ATOM     26  C   UNL     1       6.826   4.955  18.124  0.00  0.00    +0.000 A 
ATOM     27  C   UNL     1       7.167   4.666  16.808  0.00  0.00    +0.000 A 
ATOM     28  C   UNL     1       6.169   4.551  15.838  0.00  0.00    +0.000 A 
ATOM     29  C   UNL     1       4.828   4.744  16.175  0.00  0.00    +0.000 A 
ENDBRANCH  23  24
BRANCH  23  30
ATOM     30  C   UNL     1       2.394   4.514  18.949  0.00  0.00    +0.000 A 
ATOM     31  C   UNL     1       1.420   3.553  18.608  0.00  0.00    +0.000 A 
ATOM     32  C   UNL     1       0.729   2.844  19.592  0.00  0.00    +0.000 A 
ATOM     33  C   UNL     1       1.027   3.049  20.934  0.00  0.00    +0.000 A 
ATOM     34  C   UNL     1       2.050   3.924  21.288  0.00  0.00    +0.000 A 
ATOM     35  C   UNL     1       2.743   4.635  20.304  0.00  0.00    +0.000 A 
ENDBRANCH  23  30
ENDBRANCH  20  23
ENDBRANCH   1  19
TORSDOF 10
ENDMDL
MODEL 7
REMARK VINA RESULT:      -7.7      3.281      7.672
REMARK  Name = 
REMARK  12 active torsions:
REMARK  status: ('A' for Active; 'I' for Inactive)
REMARK    1  A    between atoms: CG1_1  and  CB_2
REMARK    2  A    between atoms: CB_2  and  CG2_3
REMARK    3  A    between atoms: CB_2  and  CA_4
REMARK    4  A    between atoms: CA_4  and  C_5
REMARK    5  A    between atoms: CA_4  and  N_7
REMARK    6  A    between atoms: C_5  and  O_6
REMARK    7  A    between atoms: C_8  and  CA_10
REMARK    8  A    between atoms: CA_10  and  N_11
REMARK    9  A    between atoms: CA_10  and  C_27
REMARK   10  A    between atoms: C_12  and  C_14
REMARK   11  A    between atoms: C_14  and  C_15
REMARK   12  A    between atoms: C_14  and  C_21
REMARK                            x       y       z     vdW  Elec       q    Type
REMARK                         _______ _______ _______ _____ _____    ______ ____
ROOT
ATOM      1  CA  UNL     1       1.615   8.965  19.300  0.00  0.00    +0.000 C 
ENDROOT
BRANCH   1   2
ATOM      2  C   UNL     1       0.929   9.107  20.657  0.00  0.00    +0.000 A 
ATOM      3  C   UNL     1       0.260   8.004  21.216  0.00  0.00    +0.000 A 
ATOM      4  C   UNL     1      -0.370   8.101  22.458  0.00  0.00    +0.000 A 
ATOM      5  C   UNL     1      -0.326   9.297  23.169  0.00  0.00    +0.000 A 
ATOM      6  C   UNL     1       0.326  10.403  22.628  0.00  0.00    +0.000 A 
ATOM      7  C   UNL     1       0.928  10.318  21.371  0.00  0.00    +0.000 A 
ENDBRANCH   1   2
BRANCH   1   9
ATOM      8  N   UNL     1      -0.335  10.184  18.307  0.00  0.00    +0.000 N 
ATOM      9  C   UNL     1       0.996   9.834  18.152  0.00  0.00    +0.000 C 
ATOM     10  O   UNL     1       1.622  10.062  17.116  0.00  0.00    +0.000 OA
ATOM     11  H   UNL     1      -0.816   9.872  19.134  0.00  0.00    +0.000 HD
BRANCH   8  12
ATOM     12  CA  UNL     1      -1.151  10.698  17.207  0.00  0.00    +0.000 C 
BRANCH  12  14
ATOM     13  CG1 UNL     1      -3.388   9.547  17.730  0.00  0.00    +0.000 C 
ATOM     14  CB  UNL     1      -2.204   9.634  16.759  0.00  0.00    +0.000 C 
ATOM     15  CG2 UNL     1      -2.762   9.913  15.355  0.00  0.00    +0.000 C 
ENDBRANCH  12  14
BRANCH  12  16
ATOM     16  C   UNL     1      -1.781  12.045  17.633  0.00  0.00    +0.000 C 
BRANCH  16  17
ATOM     17  O   UNL     1      -0.855  13.130  17.549  0.00  0.00    +0.000 OA
ATOM     18  H   UNL     1       0.017  12.768  17.331  0.00  0.00    +0.000 HD
ENDBRANCH  16  17
ENDBRANCH  12  16
ENDBRANCH   8  12
ENDBRANCH   1   9
BRANCH   1  19
ATOM     19  N   UNL     1       1.903   7.564  18.991  0.00  0.00    +0.000 N 
ATOM     20  C   UNL     1       2.997   7.152  18.269  0.00  0.00    +0.000 C 
ATOM     21  O   UNL     1       3.886   7.925  17.911  0.00  0.00    +0.000 OA
ATOM     22  H   UNL     1       1.126   6.921  19.092  0.00  0.00    +0.000 HD
BRANCH  20  23
ATOM     23  C   UNL     1       3.038   5.656  17.883  0.00  0.00    +0.000 C 
BRANCH  23  24
ATOM     24  C   UNL     1       4.499   5.359  17.527  0.00  0.00    +0.000 A 
ATOM     25  C   UNL     1       4.841   4.937  16.227  0.00  0.00    +0.000 A 
ATOM     26  C   UNL     1       6.140   4.542  15.921  0.00  0.00    +0.000 A 
ATOM     27  C   UNL     1       7.121   4.577  16.905  0.00  0.00    +0.000 A 
ATOM     28  C   UNL     1       6.805   5.019  18.190  0.00  0.00    +0.000 A 
ATOM     29  C   UNL     1       5.501   5.408  18.505  0.00  0.00    +0.000 A 
ENDBRANCH  23  24
BRANCH  23  30
ATOM     30  C   UNL     1       2.438   4.771  18.990  0.00  0.00    +0.000 A 
ATOM     31  C   UNL     1       1.495   3.773  18.669  0.00  0.00    +0.000 A 
ATOM     32  C   UNL     1       0.829   3.060  19.667  0.00  0.00    +0.000 A 
ATOM     33  C   UNL     1       1.122   3.299  21.005  0.00  0.00    +0.000 A 
ATOM     34  C   UNL     1       2.117   4.213  21.340  0.00  0.00    +0.000 A 
ATOM     35  C   UNL     1       2.784   4.928  20.342  0.00  0.00    +0.000 A 
ENDBRANCH  23  30
ENDBRANCH  20  23
ENDBRANCH   1  19
TORSDOF 10
ENDMDL
MODEL 8
REMARK VINA RESULT:      -7.7      1.933      7.555
REMARK  Name = 
REMARK  12 active torsions:
REMARK  status: ('A' for Active; 'I' for Inactive)
REMARK    1  A    between atoms: CG1_1  and  CB_2
REMARK    2  A    between atoms: CB_2  and  CG2_3
REMARK    3  A    between atoms: CB_2  and  CA_4
REMARK    4  A    between atoms: CA_4  and  C_5
REMARK    5  A    between atoms: CA_4  and  N_7
REMARK    6  A    between atoms: C_5  and  O_6
REMARK    7  A    between atoms: C_8  and  CA_10
REMARK    8  A    between atoms: CA_10  and  N_11
REMARK    9  A    between atoms: CA_10  and  C_27
REMARK   10  A    between atoms: C_12  and  C_14
REMARK   11  A    between atoms: C_14  and  C_15
REMARK   12  A    between atoms: C_14  and  C_21
REMARK                            x       y       z     vdW  Elec       q    Type
REMARK                         _______ _______ _______ _____ _____    ______ ____
ROOT
ATOM      1  CA  UNL     1       3.214   6.230  19.208  0.00  0.00    +0.000 C 
ENDROOT
BRANCH   1   2
ATOM      2  C   UNL     1       2.393   4.943  19.256  0.00  0.00    +0.000 A 
ATOM      3  C   UNL     1       1.907   4.474  20.490  0.00  0.00    +0.000 A 
ATOM      4  C   UNL     1       1.148   3.305  20.563  0.00  0.00    +0.000 A 
ATOM      5  C   UNL     1       0.846   2.596  19.404  0.00  0.00    +0.000 A 
ATOM      6  C   UNL     1       1.326   3.041  18.174  0.00  0.00    +0.000 A 
ATOM      7  C   UNL     1       2.114   4.191  18.102  0.00  0.00    +0.000 A 
ENDBRANCH   1   2
BRANCH   1   9
ATOM      8  N   UNL     1       1.941   8.225  20.028  0.00  0.00    +0.000 N 
ATOM      9  C   UNL     1       2.389   7.530  18.917  0.00  0.00    +0.000 C 
ATOM     10  O   UNL     1       2.046   7.824  17.771  0.00  0.00    +0.000 OA
ATOM     11  H   UNL     1       2.170   7.865  20.939  0.00  0.00    +0.000 HD
BRANCH   8  12
ATOM     12  CA  UNL     1       0.901   9.252  19.952  0.00  0.00    +0.000 C 
BRANCH  12  14
ATOM     13  CG1 UNL     1       0.097  11.292  21.291  0.00  0.00    +0.000 C 
ATOM     14  CB  UNL     1       0.614   9.851  21.366  0.00  0.00    +0.000 C 
ATOM     15  CG2 UNL     1      -0.407   9.021  22.160  0.00  0.00    +0.000 C 
ENDBRANCH  12  14
BRANCH  12  16
ATOM     16  C   UNL     1       1.317  10.314  18.907  0.00  0.00    +0.000 C 
BRANCH  16  17
ATOM     17  O   UNL     1       0.462  10.315  17.762  0.00  0.00    +0.000 OA
ATOM     18  H   UNL     1       0.955   9.940  17.016  0.00  0.00    +0.000 HD
ENDBRANCH  16  17
ENDBRANCH  12  16
ENDBRANCH   8  12
ENDBRANCH   1   9
BRANCH   1  19
ATOM     19  N   UNL     1       4.452   6.045  18.451  0.00  0.00    +0.000 N 
ATOM     20  C   UNL     1       5.496   5.259  18.877  0.00  0.00    +0.000 C 
ATOM     21  O   UNL     1       5.431   4.558  19.888  0.00  0.00    +0.000 OA
ATOM     22  H   UNL     1       4.633   6.730  17.726  0.00  0.00    +0.000 HD
BRANCH  20  23
ATOM     23  C   UNL     1       6.793   5.331  18.039  0.00  0.00    +0.000 C 
BRANCH  23  24
ATOM     24  C   UNL     1       6.423   4.789  16.654  0.00  0.00    +0.000 A 
ATOM     25  C   UNL     1       7.237   5.074  15.540  0.00  0.00    +0.000 A 
ATOM     26  C   UNL     1       6.851   4.698  14.256  0.00  0.00    +0.000 A 
ATOM     27  C   UNL     1       5.654   4.018  14.067  0.00  0.00    +0.000 A 
ATOM     28  C   UNL     1       4.849   3.704  15.164  0.00  0.00    +0.000 A 
ATOM     29  C   UNL     1       5.228   4.086  16.453  0.00  0.00    +0.000 A 
ENDBRANCH  23  24
BRANCH  23  30
ATOM     30  C   UNL     1       7.395   6.747  18.051  0.00  0.00    +0.000 A 
ATOM     31  C   UNL     1       8.430   7.071  18.953  0.00  0.00    +0.000 A 
ATOM     32  C   UNL     1       8.889   8.382  19.086  0.00  0.00    +0.000 A 
ATOM     33  C   UNL     1       8.355   9.389  18.289  0.00  0.00    +0.000 A 
ATOM     34  C   UNL     1       7.400   9.074  17.327  0.00  0.00    +0.000 A 
ATOM     35  C   UNL     1       6.938   7.761  17.193  0.00  0.00    +0.000 A 
ENDBRANCH  23  30
ENDBRANCH  20  23
ENDBRANCH   1  19
TORSDOF 10
ENDMDL
MODEL 9
REMARK VINA RESULT:      -7.6      0.545      1.184
REMARK  Name = 
REMARK  12 active torsions:
REMARK  status: ('A' for Active; 'I' for Inactive)
REMARK    1  A    between atoms: CG1_1  and  CB_2
REMARK    2  A    between atoms: CB_2  and  CG2_3
REMARK    3  A    between atoms: CB_2  and  CA_4
REMARK    4  A    between atoms: CA_4  and  C_5
REMARK    5  A    between atoms: CA_4  and  N_7
REMARK    6  A    between atoms: C_5  and  O_6
REMARK    7  A    between atoms: C_8  and  CA_10
REMARK    8  A    between atoms: CA_10  and  N_11
REMARK    9  A    between atoms: CA_10  and  C_27
REMARK   10  A    between atoms: C_12  and  C_14
REMARK   11  A    between atoms: C_14  and  C_15
REMARK   12  A    between atoms: C_14  and  C_21
REMARK                            x       y       z     vdW  Elec       q    Type
REMARK                         _______ _______ _______ _____ _____    ______ ____
ROOT
ATOM      1  CA  UNL     1       6.733   6.010  17.479  0.00  0.00    +0.000 C 
ENDROOT
BRANCH   1   2
ATOM      2  C   UNL     1       7.424   7.324  17.838  0.00  0.00    +0.000 A 
ATOM      3  C   UNL     1       7.073   8.503  17.157  0.00  0.00    +0.000 A 
ATOM      4  C   UNL     1       7.682   9.719  17.469  0.00  0.00    +0.000 A 
ATOM      5  C   UNL     1       8.638   9.781  18.478  0.00  0.00    +0.000 A 
ATOM      6  C   UNL     1       9.005   8.622  19.159  0.00  0.00    +0.000 A 
ATOM      7  C   UNL     1       8.421   7.398  18.826  0.00  0.00    +0.000 A 
ENDBRANCH   1   2
BRANCH   1   9
ATOM      8  N   UNL     1       7.212   5.608  15.054  0.00  0.00    +0.000 N 
ATOM      9  C   UNL     1       7.436   5.180  16.351  0.00  0.00    +0.000 C 
ATOM     10  O   UNL     1       8.029   4.131  16.608  0.00  0.00    +0.000 OA
ATOM     11  H   UNL     1       6.628   6.414  14.913  0.00  0.00    +0.000 HD
BRANCH   8  12
ATOM     12  CA  UNL     1       7.509   4.779  13.885  0.00  0.00    +0.000 C 
BRANCH  12  14
ATOM     13  CG1 UNL     1       6.396   3.160  12.229  0.00  0.00    +0.000 C 
ATOM     14  CB  UNL     1       6.191   4.363  13.156  0.00  0.00    +0.000 C 
ATOM     15  CG2 UNL     1       5.060   4.018  14.137  0.00  0.00    +0.000 C 
ENDBRANCH  12  14
BRANCH  12  16
ATOM     16  C   UNL     1       8.505   5.532  12.973  0.00  0.00    +0.000 C 
BRANCH  16  17
ATOM     17  O   UNL     1       7.846   6.299  11.963  0.00  0.00    +0.000 OA
ATOM     18  H   UNL     1       7.964   5.847  11.114  0.00  0.00    +0.000 HD
ENDBRANCH  16  17
ENDBRANCH  12  16
ENDBRANCH   8  12
ENDBRANCH   1   9
BRANCH   1  19
ATOM     19  N   UNL     1       5.284   6.181  17.372  0.00  0.00    +0.000 N 
ATOM     20  C   UNL     1       4.407   5.916  18.397  0.00  0.00    +0.000 C 
ATOM     21  O   UNL     1       4.782   5.611  19.529  0.00  0.00    +0.000 OA
ATOM     22  H   UNL     1       4.914   6.243  16.430  0.00  0.00    +0.000 HD
BRANCH  20  23
ATOM     23  C   UNL     1       2.903   5.976  18.044  0.00  0.00    +0.000 C 
BRANCH  23  24
ATOM     24  C   UNL     1       2.330   4.609  18.432  0.00  0.00    +0.000 A 
ATOM     25  C   UNL     1       2.632   3.468  17.662  0.00  0.00    +0.000 A 
ATOM     26  C   UNL     1       2.021   2.245  17.924  0.00  0.00    +0.000 A 
ATOM     27  C   UNL     1       1.112   2.139  18.969  0.00  0.00    +0.000 A 
ATOM     28  C   UNL     1       0.822   3.253  19.759  0.00  0.00    +0.000 A 
ATOM     29  C   UNL     1       1.426   4.484  19.494  0.00  0.00    +0.000 A 
ENDBRANCH  23  24
BRANCH  23  30
ATOM     30  C   UNL     1       2.218   7.188  18.701  0.00  0.00    +0.000 A 
ATOM     31  C   UNL     1       1.855   8.306  17.923  0.00  0.00    +0.000 A 
ATOM     32  C   UNL     1       1.370   9.472  18.517  0.00  0.00    +0.000 A 
ATOM     33  C   UNL     1       1.194   9.529  19.895  0.00  0.00    +0.000 A 
ATOM     34  C   UNL     1       1.457   8.403  20.670  0.00  0.00    +0.000 A 
ATOM     35  C   UNL     1       1.945   7.235  20.077  0.00  0.00    +0.000 A 
ENDBRANCH  23  30
ENDBRANCH  20  23
ENDBRANCH   1  19
TORSDOF 10
ENDMDL
