MODEL 1
REMARK VINA RESULT:      -7.9      0.000      0.000
REMARK  Name = 
REMARK  5 active torsions:
REMARK  status: ('A' for Active; 'I' for Inactive)
REMARK    1  A    between atoms: C_1  and  C_2
REMARK    2  A    between atoms: C_5  and  C_6
REMARK    3  A    between atoms: C_7  and  O_8
REMARK    4  A    between atoms: O_8  and  C_9
REMARK    5  A    between atoms: C_9  and  C_10
REMARK                            x       y       z     vdW  Elec       q    Type
REMARK                         _______ _______ _______ _____ _____    ______ ____
ROOT
ATOM      1  C   UNL     1       1.741   8.883  18.493  0.00  0.00    +0.000 C 
ATOM      2  O   UNL     1       2.063   9.182  17.352  0.00  0.00    +0.000 OA
ATOM      3  N   UNL     1       0.894   9.681  19.274  0.00  0.00    +0.000 N 
ATOM      4  C   UNL     1       0.588   9.333  20.665  0.00  0.00    +0.000 C 
ATOM      5  C   UNL     1       0.330  10.571  21.529  0.00  0.00    +0.000 C 
ATOM      6  N   UNL     1      -0.655  11.416  20.866  0.00  0.00    +0.000 N 
ATOM      7  C   UNL     1      -1.716  11.924  21.532  0.00  0.00    +0.000 A 
ATOM      8  N   UNL     1      -1.875  11.649  22.840  0.00  0.00    +0.000 NA
ATOM      9  C   UNL     1      -2.934  12.177  23.462  0.00  0.00    +0.000 A 
ATOM     10  C   UNL     1      -3.882  12.933  22.831  0.00  0.00    +0.000 A 
ATOM     11  C   UNL     1      -3.664  13.145  21.492  0.00  0.00    +0.000 A 
ATOM     12  N   UNL     1      -2.596  12.677  20.846  0.00  0.00    +0.000 NA
ATOM     13  C   UNL     1      -0.388  11.807  19.488  0.00  0.00    +0.000 C 
ATOM     14  C   UNL     1      -0.106  10.560  18.638  0.00  0.00    +0.000 C 
ENDROOT
BRANCH   1  15
ATOM     15  C   UNL     1       2.266   7.605  19.197  0.00  0.00    +0.000 C 
BRANCH  15  16
ATOM     16  O   UNL     1       3.276   6.944  18.435  0.00  0.00    +0.000 OA
BRANCH  16  23
ATOM     17  C   UNL     1       0.831   2.634  18.902  0.00  0.00    +0.000 C 
ATOM     18  C   UNL     1       1.935   3.466  18.318  0.00  0.00    +0.000 A 
ATOM     19  C   UNL     1       2.844   2.912  17.415  0.00  0.00    +0.000 A 
ATOM     20  C   UNL     1       3.866   3.694  16.879  0.00  0.00    +0.000 A 
ATOM     21  C   UNL     1       3.996   5.046  17.235  0.00  0.00    +0.000 A 
ATOM     22  C   UNL     1       5.111   5.860  16.645  0.00  0.00    +0.000 C 
ATOM     23  C   UNL     1       3.082   5.617  18.140  0.00  0.00    +0.000 A 
ATOM     24  C   UNL     1       2.060   4.820  18.674  0.00  0.00    +0.000 A 
ENDBRANCH  16  23
ENDBRANCH  15  16
ENDBRANCH   1  15
TORSDOF 3
ENDMDL
MODEL 2
REMARK VINA RESULT:      -7.8      1.571      2.086
REMARK  Name = 
REMARK  5 active torsions:
REMARK  status: ('A' for Active; 'I' for Inactive)
REMARK    1  A    between atoms: C_1  and  C_2
REMARK    2  A    between atoms: C_5  and  C_6
REMARK    3  A    between atoms: C_7  and  O_8
REMARK    4  A    between atoms: O_8  and  C_9
REMARK    5  A    between atoms: C_9  and  C_10
REMARK                            x       y       z     vdW  Elec       q    Type
REMARK                         _______ _______ _______ _____ _____    ______ ____
ROOT
ATOM      1  C   UNL     1       0.783   9.634  20.203  0.00  0.00    +0.000 C 
ATOM      2  O   UNL     1       1.262   9.998  19.138  0.00  0.00    +0.000 OA
ATOM      3  N   UNL     1      -0.210  10.361  20.874  0.00  0.00    +0.000 N 
ATOM      4  C   UNL     1      -0.709   9.937  22.185  0.00  0.00    +0.000 C 
ATOM      5  C   UNL     1      -1.155  11.122  23.047  0.00  0.00    +0.000 C 
ATOM      6  N   UNL     1      -2.065  11.956  22.273  0.00  0.00    +0.000 N 
ATOM      7  C   UNL     1      -3.238  12.390  22.786  0.00  0.00    +0.000 A 
ATOM      8  N   UNL     1      -3.583  12.049  24.041  0.00  0.00    +0.000 NA
ATOM      9  C   UNL     1      -4.749  12.504  24.511  0.00  0.00    +0.000 A 
ATOM     10  C   UNL     1      -5.623  13.250  23.770  0.00  0.00    +0.000 A 
ATOM     11  C   UNL     1      -5.212  13.532  22.492  0.00  0.00    +0.000 A 
ATOM     12  N   UNL     1      -4.037  13.138  22.001  0.00  0.00    +0.000 NA
ATOM     13  C   UNL     1      -1.608  12.421  20.970  0.00  0.00    +0.000 C 
ATOM     14  C   UNL     1      -1.140  11.228  20.125  0.00  0.00    +0.000 C 
ENDROOT
BRANCH   1  15
ATOM     15  C   UNL     1       1.254   8.347  20.928  0.00  0.00    +0.000 C 
BRANCH  15  16
ATOM     16  O   UNL     1       2.369   7.738  20.280  0.00  0.00    +0.000 OA
BRANCH  16  23
ATOM     17  C   UNL     1       1.117   2.956  20.858  0.00  0.00    +0.000 C 
ATOM     18  C   UNL     1       1.615   4.095  20.017  0.00  0.00    +0.000 A 
ATOM     19  C   UNL     1       1.947   3.899  18.676  0.00  0.00    +0.000 A 
ATOM     20  C   UNL     1       2.410   4.965  17.905  0.00  0.00    +0.000 A 
ATOM     21  C   UNL     1       2.546   6.247  18.462  0.00  0.00    +0.000 A 
ATOM     22  C   UNL     1       3.053   7.373  17.607  0.00  0.00    +0.000 C 
ATOM     23  C   UNL     1       2.209   6.457  19.812  0.00  0.00    +0.000 A 
ATOM     24  C   UNL     1       1.748   5.377  20.577  0.00  0.00    +0.000 A 
ENDBRANCH  16  23
ENDBRANCH  15  16
ENDBRANCH   1  15
TORSDOF 3
ENDMDL
MODEL 3
REMARK VINA RESULT:      -7.7      1.017      1.112
REMARK  Name = 
REMARK  5 active torsions:
REMARK  status: ('A' for Active; 'I' for Inactive)
REMARK    1  A    between atoms: C_1  and  C_2
REMARK    2  A    between atoms: C_5  and  C_6
REMARK    3  A    between atoms: C_7  and  O_8
REMARK    4  A    between atoms: O_8  and  C_9
REMARK    5  A    between atoms: C_9  and  C_10
REMARK                            x       y       z     vdW  Elec       q    Type
REMARK                         _______ _______ _______ _____ _____    ______ ____
ROOT
ATOM      1  C   UNL     1       1.960   8.647  18.373  0.00  0.00    +0.000 C 
ATOM      2  O   UNL     1       2.279   8.954  17.233  0.00  0.00    +0.000 OA
ATOM      3  N   UNL     1       1.138   9.455  19.171  0.00  0.00    +0.000 N 
ATOM      4  C   UNL     1       0.835   9.095  20.560  0.00  0.00    +0.000 C 
ATOM      5  C   UNL     1       0.612  10.327  21.442  0.00  0.00    +0.000 C 
ATOM      6  N   UNL     1      -0.358  11.203  20.799  0.00  0.00    +0.000 N 
ATOM      7  C   UNL     1      -1.401  11.727  21.481  0.00  0.00    +0.000 A 
ATOM      8  N   UNL     1      -1.556  11.439  22.786  0.00  0.00    +0.000 NA
ATOM      9  C   UNL     1      -2.598  11.982  23.423  0.00  0.00    +0.000 A 
ATOM     10  C   UNL     1      -3.533  12.769  22.810  0.00  0.00    +0.000 A 
ATOM     11  C   UNL     1      -3.321  12.993  21.473  0.00  0.00    +0.000 A 
ATOM     12  N   UNL     1      -2.269  12.509  20.812  0.00  0.00    +0.000 NA
ATOM     13  C   UNL     1      -0.093  11.606  19.424  0.00  0.00    +0.000 C 
ATOM     14  C   UNL     1       0.154  10.365  18.555  0.00  0.00    +0.000 C 
ENDROOT
BRANCH   1  15
ATOM     15  C   UNL     1       2.461   7.348  19.055  0.00  0.00    +0.000 C 
BRANCH  15  16
ATOM     16  O   UNL     1       2.480   6.239  18.158  0.00  0.00    +0.000 OA
BRANCH  16  23
ATOM     17  C   UNL     1       1.398   2.730  21.517  0.00  0.00    +0.000 C 
ATOM     18  C   UNL     1       2.154   3.214  20.314  0.00  0.00    +0.000 A 
ATOM     19  C   UNL     1       3.072   2.385  19.669  0.00  0.00    +0.000 A 
ATOM     20  C   UNL     1       3.768   2.846  18.552  0.00  0.00    +0.000 A 
ATOM     21  C   UNL     1       3.557   4.144  18.060  0.00  0.00    +0.000 A 
ATOM     22  C   UNL     1       4.328   4.613  16.859  0.00  0.00    +0.000 C 
ATOM     23  C   UNL     1       2.630   4.986  18.700  0.00  0.00    +0.000 A 
ATOM     24  C   UNL     1       1.937   4.513  19.823  0.00  0.00    +0.000 A 
ENDBRANCH  16  23
ENDBRANCH  15  16
ENDBRANCH   1  15
TORSDOF 3
ENDMDL
MODEL 4
REMARK VINA RESULT:      -7.7      0.779      2.243
REMARK  Name = 
REMARK  5 active torsions:
REMARK  status: ('A' for Active; 'I' for Inactive)
REMARK    1  A    between atoms: C_1  and  C_2
REMARK    2  A    between atoms: C_5  and  C_6
REMARK    3  A    between atoms: C_7  and  O_8
REMARK    4  A    between atoms: O_8  and  C_9
REMARK    5  A    between atoms: C_9  and  C_10
REMARK                            x       y       z     vdW  Elec       q    Type
REMARK                         _______ _______ _______ _____ _____    ______ ____
ROOT
ATOM      1  C   UNL     1       1.886   8.700  18.389  0.00  0.00    +0.000 C 
ATOM      2  O   UNL     1       2.178   8.978  17.234  0.00  0.00    +0.000 OA
ATOM      3  N   UNL     1       1.051   9.507  19.173  0.00  0.00    +0.000 N 
ATOM      4  C   UNL     1       0.781   9.185  20.578  0.00  0.00    +0.000 C 
ATOM      5  C   UNL     1       0.532  10.438  21.422  0.00  0.00    +0.000 C 
ATOM      6  N   UNL     1      -0.476  11.260  20.766  0.00  0.00    +0.000 N 
ATOM      7  C   UNL     1      -1.526  11.773  21.446  0.00  0.00    +0.000 A 
ATOM      8  N   UNL     1      -1.651  11.524  22.763  0.00  0.00    +0.000 NA
ATOM      9  C   UNL     1      -2.700  12.056  23.399  0.00  0.00    +0.000 A 
ATOM     10  C   UNL     1      -3.670  12.790  22.775  0.00  0.00    +0.000 A 
ATOM     11  C   UNL     1      -3.485  12.976  21.428  0.00  0.00    +0.000 A 
ATOM     12  N   UNL     1      -2.429  12.504  20.766  0.00  0.00    +0.000 NA
ATOM     13  C   UNL     1      -0.246  11.625  19.374  0.00  0.00    +0.000 C 
ATOM     14  C   UNL     1       0.028  10.364  18.543  0.00  0.00    +0.000 C 
ENDROOT
BRANCH   1  15
ATOM     15  C   UNL     1       2.440   7.441  19.106  0.00  0.00    +0.000 C 
BRANCH  15  16
ATOM     16  O   UNL     1       2.335   6.269  18.299  0.00  0.00    +0.000 OA
BRANCH  16  23
ATOM     17  C   UNL     1       7.161   6.512  17.108  0.00  0.00    +0.000 C 
ATOM     18  C   UNL     1       5.867   5.760  17.214  0.00  0.00    +0.000 A 
ATOM     19  C   UNL     1       5.786   4.422  16.826  0.00  0.00    +0.000 A 
ATOM     20  C   UNL     1       4.577   3.734  16.929  0.00  0.00    +0.000 A 
ATOM     21  C   UNL     1       3.429   4.372  17.425  0.00  0.00    +0.000 A 
ATOM     22  C   UNL     1       2.141   3.605  17.517  0.00  0.00    +0.000 C 
ATOM     23  C   UNL     1       3.501   5.719  17.824  0.00  0.00    +0.000 A 
ATOM     24  C   UNL     1       4.720   6.401  17.714  0.00  0.00    +0.000 A 
ENDBRANCH  16  23
ENDBRANCH  15  16
ENDBRANCH   1  15
TORSDOF 3
ENDMDL
MODEL 5
REMARK VINA RESULT:      -7.6      0.820      2.000
REMARK  Name = 
REMARK  5 active torsions:
REMARK  status: ('A' for Active; 'I' for Inactive)
REMARK    1  A    between atoms: C_1  and  C_2
REMARK    2  A    between atoms: C_5  and  C_6
REMARK    3  A    between atoms: C_7  and  O_8
REMARK    4  A    between atoms: O_8  and  C_9
REMARK    5  A    between atoms: C_9  and  C_10
REMARK                            x       y       z     vdW  Elec       q    Type
REMARK                         _______ _______ _______ _____ _____    ______ ____
ROOT
ATOM      1  C   UNL     1       2.062   8.429  18.458  0.00  0.00    +0.000 C 
ATOM      2  O   UNL     1       2.354   8.645  17.290  0.00  0.00    +0.000 OA
ATOM      3  N   UNL     1       1.226   9.277  19.197  0.00  0.00    +0.000 N 
ATOM      4  C   UNL     1       0.956   9.031  20.617  0.00  0.00    +0.000 C 
ATOM      5  C   UNL     1       0.706  10.328  21.392  0.00  0.00    +0.000 C 
ATOM      6  N   UNL     1      -0.303  11.113  20.692  0.00  0.00    +0.000 N 
ATOM      7  C   UNL     1      -1.353  11.661  21.344  0.00  0.00    +0.000 A 
ATOM      8  N   UNL     1      -1.478  11.483  22.673  0.00  0.00    +0.000 NA
ATOM      9  C   UNL     1      -2.528  12.047  23.278  0.00  0.00    +0.000 A 
ATOM     10  C   UNL     1      -3.498  12.746  22.616  0.00  0.00    +0.000 A 
ATOM     11  C   UNL     1      -3.314  12.859  21.260  0.00  0.00    +0.000 A 
ATOM     12  N   UNL     1      -2.256  12.353  20.625  0.00  0.00    +0.000 NA
ATOM     13  C   UNL     1      -0.073  11.402  19.283  0.00  0.00    +0.000 C 
ATOM     14  C   UNL     1       0.203  10.098  18.522  0.00  0.00    +0.000 C 
ENDROOT
BRANCH   1  15
ATOM     15  C   UNL     1       2.617   7.212  19.241  0.00  0.00    +0.000 C 
BRANCH  15  16
ATOM     16  O   UNL     1       1.848   6.030  19.020  0.00  0.00    +0.000 OA
BRANCH  16  23
ATOM     17  C   UNL     1       5.297   3.914  16.123  0.00  0.00    +0.000 C 
ATOM     18  C   UNL     1       4.166   3.824  17.105  0.00  0.00    +0.000 A 
ATOM     19  C   UNL     1       3.710   2.584  17.555  0.00  0.00    +0.000 A 
ATOM     20  C   UNL     1       2.657   2.513  18.466  0.00  0.00    +0.000 A 
ATOM     21  C   UNL     1       2.043   3.682  18.946  0.00  0.00    +0.000 A 
ATOM     22  C   UNL     1       0.908   3.571  19.923  0.00  0.00    +0.000 C 
ATOM     23  C   UNL     1       2.499   4.937  18.503  0.00  0.00    +0.000 A 
ATOM     24  C   UNL     1       3.556   4.996  17.585  0.00  0.00    +0.000 A 
ENDBRANCH  16  23
ENDBRANCH  15  16
ENDBRANCH   1  15
TORSDOF 3
ENDMDL
MODEL 6
REMARK VINA RESULT:      -7.4      2.788      4.143
REMARK  Name = 
REMARK  5 active torsions:
REMARK  status: ('A' for Active; 'I' for Inactive)
REMARK    1  A    between atoms: C_1  and  C_2
REMARK    2  A    between atoms: C_5  and  C_6
REMARK    3  A    between atoms: C_7  and  O_8
REMARK    4  A    between atoms: O_8  and  C_9
REMARK    5  A    between atoms: C_9  and  C_10
REMARK                            x       y       z     vdW  Elec       q    Type
REMARK                         _______ _______ _______ _____ _____    ______ ____
ROOT
ATOM      1  C   UNL     1       2.152   5.947  19.490  0.00  0.00    +0.000 C 
ATOM      2  O   UNL     1       1.812   5.172  20.374  0.00  0.00    +0.000 OA
ATOM      3  N   UNL     1       1.859   7.317  19.532  0.00  0.00    +0.000 N 
ATOM      4  C   UNL     1       2.215   8.206  18.421  0.00  0.00    +0.000 C 
ATOM      5  C   UNL     1       1.235   9.374  18.277  0.00  0.00    +0.000 C 
ATOM      6  N   UNL     1       1.079  10.025  19.571  0.00  0.00    +0.000 N 
ATOM      7  C   UNL     1       1.152  11.369  19.703  0.00  0.00    +0.000 A 
ATOM      8  N   UNL     1       1.375  12.132  18.617  0.00  0.00    +0.000 NA
ATOM      9  C   UNL     1       1.434  13.456  18.791  0.00  0.00    +0.000 A 
ATOM     10  C   UNL     1       1.331  14.065  20.010  0.00  0.00    +0.000 A 
ATOM     11  C   UNL     1       1.133  13.216  21.071  0.00  0.00    +0.000 A 
ATOM     12  N   UNL     1       1.021  11.894  20.934  0.00  0.00    +0.000 NA
ATOM     13  C   UNL     1       0.706   9.189  20.704  0.00  0.00    +0.000 C 
ATOM     14  C   UNL     1       1.679   8.007  20.823  0.00  0.00    +0.000 C 
ENDROOT
BRANCH   1  15
ATOM     15  C   UNL     1       2.914   5.479  18.223  0.00  0.00    +0.000 C 
BRANCH  15  16
ATOM     16  O   UNL     1       4.117   4.781  18.542  0.00  0.00    +0.000 OA
BRANCH  16  23
ATOM     17  C   UNL     1       5.628   3.914  13.880  0.00  0.00    +0.000 C 
ATOM     18  C   UNL     1       5.904   4.298  15.305  0.00  0.00    +0.000 A 
ATOM     19  C   UNL     1       7.199   4.610  15.721  0.00  0.00    +0.000 A 
ATOM     20  C   UNL     1       7.443   4.965  17.047  0.00  0.00    +0.000 A 
ATOM     21  C   UNL     1       6.395   5.015  17.981  0.00  0.00    +0.000 A 
ATOM     22  C   UNL     1       6.692   5.395  19.403  0.00  0.00    +0.000 C 
ATOM     23  C   UNL     1       5.085   4.708  17.571  0.00  0.00    +0.000 A 
ATOM     24  C   UNL     1       4.852   4.350  16.236  0.00  0.00    +0.000 A 
ENDBRANCH  16  23
ENDBRANCH  15  16
ENDBRANCH   1  15
TORSDOF 3
ENDMDL
MODEL 7
REMARK VINA RESULT:      -7.2      3.833      9.116
REMARK  Name = 
REMARK  5 active torsions:
REMARK  status: ('A' for Active; 'I' for Inactive)
REMARK    1  A    between atoms: C_1  and  C_2
REMARK    2  A    between atoms: C_5  and  C_6
REMARK    3  A    between atoms: C_7  and  O_8
REMARK    4  A    between atoms: O_8  and  C_9
REMARK    5  A    between atoms: C_9  and  C_10
REMARK                            x       y       z     vdW  Elec       q    Type
REMARK                         _______ _______ _______ _____ _____    ______ ____
ROOT
ATOM      1  C   UNL     1       1.650   4.900  19.981  0.00  0.00    +0.000 C 
ATOM      2  O   UNL     1       0.719   4.113  20.086  0.00  0.00    +0.000 OA
ATOM      3  N   UNL     1       2.665   4.747  19.027  0.00  0.00    +0.000 N 
ATOM      4  C   UNL     1       3.807   5.666  18.977  0.00  0.00    +0.000 C 
ATOM      5  C   UNL     1       5.079   4.982  18.468  0.00  0.00    +0.000 C 
ATOM      6  N   UNL     1       4.780   4.290  17.221  0.00  0.00    +0.000 N 
ATOM      7  C   UNL     1       5.574   4.414  16.133  0.00  0.00    +0.000 A 
ATOM      8  N   UNL     1       6.670   5.193  16.194  0.00  0.00    +0.000 NA
ATOM      9  C   UNL     1       7.430   5.282  15.098  0.00  0.00    +0.000 A 
ATOM     10  C   UNL     1       7.126   4.670  13.915  0.00  0.00    +0.000 A 
ATOM     11  C   UNL     1       5.978   3.917  13.925  0.00  0.00    +0.000 A 
ATOM     12  N   UNL     1       5.218   3.763  15.010  0.00  0.00    +0.000 NA
ATOM     13  C   UNL     1       3.666   3.351  17.222  0.00  0.00    +0.000 C 
ATOM     14  C   UNL     1       2.404   4.040  17.759  0.00  0.00    +0.000 C 
ENDROOT
BRANCH   1  15
ATOM     15  C   UNL     1       1.811   6.125  20.918  0.00  0.00    +0.000 C 
BRANCH  15  16
ATOM     16  O   UNL     1       2.101   7.322  20.198  0.00  0.00    +0.000 OA
BRANCH  16  23
ATOM     17  C   UNL     1      -0.743  10.156  23.139  0.00  0.00    +0.000 C 
ATOM     18  C   UNL     1      -0.111   9.854  21.811  0.00  0.00    +0.000 A 
ATOM     19  C   UNL     1      -0.312  10.697  20.718  0.00  0.00    +0.000 A 
ATOM     20  C   UNL     1       0.280  10.406  19.490  0.00  0.00    +0.000 A 
ATOM     21  C   UNL     1       1.086   9.267  19.334  0.00  0.00    +0.000 A 
ATOM     22  C   UNL     1       1.704   8.978  17.996  0.00  0.00    +0.000 C 
ATOM     23  C   UNL     1       1.300   8.413  20.431  0.00  0.00    +0.000 A 
ATOM     24  C   UNL     1       0.698   8.714  21.660  0.00  0.00    +0.000 A 
ENDBRANCH  16  23
ENDBRANCH  15  16
ENDBRANCH   1  15
TORSDOF 3
ENDMDL
MODEL 8
REMARK VINA RESULT:      -7.2      1.673      3.149
REMARK  Name = 
REMARK  5 active torsions:
REMARK  status: ('A' for Active; 'I' for Inactive)
REMARK    1  A    between atoms: C_1  and  C_2
REMARK    2  A    between atoms: C_5  and  C_6
REMARK    3  A    between atoms: C_7  and  O_8
REMARK    4  A    between atoms: O_8  and  C_9
REMARK    5  A    between atoms: C_9  and  C_10
REMARK                            x       y       z     vdW  Elec       q    Type
REMARK                         _______ _______ _______ _____ _____    ______ ____
ROOT
ATOM      1  C   UNL     1       1.806   7.328  20.193  0.00  0.00    +0.000 C 
ATOM      2  O   UNL     1       1.913   6.371  20.948  0.00  0.00    +0.000 OA
ATOM      3  N   UNL     1       1.121   8.498  20.549  0.00  0.00    +0.000 N 
ATOM      4  C   UNL     1       0.946   9.597  19.594  0.00  0.00    +0.000 C 
ATOM      5  C   UNL     1      -0.353  10.372  19.836  0.00  0.00    +0.000 C 
ATOM      6  N   UNL     1      -0.427  10.749  21.242  0.00  0.00    +0.000 N 
ATOM      7  C   UNL     1      -0.744  12.007  21.623  0.00  0.00    +0.000 A 
ATOM      8  N   UNL     1      -1.000  12.941  20.688  0.00  0.00    +0.000 NA
ATOM      9  C   UNL     1      -1.316  14.170  21.109  0.00  0.00    +0.000 A 
ATOM     10  C   UNL     1      -1.342  14.535  22.426  0.00  0.00    +0.000 A 
ATOM     11  C   UNL     1      -1.043  13.534  23.316  0.00  0.00    +0.000 A 
ATOM     12  N   UNL     1      -0.769  12.284  22.940  0.00  0.00    +0.000 NA
ATOM     13  C   UNL     1      -0.278   9.690  22.231  0.00  0.00    +0.000 C 
ATOM     14  C   UNL     1       1.013   8.904  21.964  0.00  0.00    +0.000 C 
ENDROOT
BRANCH   1  15
ATOM     15  C   UNL     1       2.391   7.323  18.758  0.00  0.00    +0.000 C 
BRANCH  15  16
ATOM     16  O   UNL     1       2.487   6.006  18.217  0.00  0.00    +0.000 OA
BRANCH  16  23
ATOM     17  C   UNL     1       7.302   6.776  17.219  0.00  0.00    +0.000 C 
ATOM     18  C   UNL     1       6.079   5.904  17.222  0.00  0.00    +0.000 A 
ATOM     19  C   UNL     1       6.133   4.600  16.729  0.00  0.00    +0.000 A 
ATOM     20  C   UNL     1       4.991   3.800  16.736  0.00  0.00    +0.000 A 
ATOM     21  C   UNL     1       3.775   4.290  17.238  0.00  0.00    +0.000 A 
ATOM     22  C   UNL     1       2.561   3.406  17.226  0.00  0.00    +0.000 C 
ATOM     23  C   UNL     1       3.711   5.602  17.743  0.00  0.00    +0.000 A 
ATOM     24  C   UNL     1       4.865   6.398  17.728  0.00  0.00    +0.000 A 
ENDBRANCH  16  23
ENDBRANCH  15  16
ENDBRANCH   1  15
TORSDOF 3
ENDMDL
MODEL 9
REMARK VINA RESULT:      -7.1      2.820      8.099
REMARK  Name = 
REMARK  5 active torsions:
REMARK  status: ('A' for Active; 'I' for Inactive)
REMARK    1  A    between atoms: C_1  and  C_2
REMARK    2  A    between atoms: C_5  and  C_6
REMARK    3  A    between atoms: C_7  and  O_8
REMARK    4  A    between atoms: O_8  and  C_9
REMARK    5  A    between atoms: C_9  and  C_10
REMARK                            x       y       z     vdW  Elec       q    Type
REMARK                         _______ _______ _______ _____ _____    ______ ____
ROOT
ATOM      1  C   UNL     1       0.645  11.059  20.451  0.00  0.00    +0.000 C 
ATOM      2  O   UNL     1       0.567  11.481  21.596  0.00  0.00    +0.000 OA
ATOM      3  N   UNL     1       1.035   9.746  20.153  0.00  0.00    +0.000 N 
ATOM      4  C   UNL     1       1.193   9.294  18.767  0.00  0.00    +0.000 C 
ATOM      5  C   UNL     1       2.267   8.211  18.629  0.00  0.00    +0.000 C 
ATOM      6  N   UNL     1       2.008   7.159  19.603  0.00  0.00    +0.000 N 
ATOM      7  C   UNL     1       2.023   5.852  19.256  0.00  0.00    +0.000 A 
ATOM      8  N   UNL     1       2.283   5.505  17.982  0.00  0.00    +0.000 NA
ATOM      9  C   UNL     1       2.294   4.202  17.683  0.00  0.00    +0.000 A 
ATOM     10  C   UNL     1       2.008   3.217  18.586  0.00  0.00    +0.000 A 
ATOM     11  C   UNL     1       1.726   3.653  19.856  0.00  0.00    +0.000 A 
ATOM     12  N   UNL     1       1.751   4.939  20.206  0.00  0.00    +0.000 NA
ATOM     13  C   UNL     1       1.863   7.553  20.998  0.00  0.00    +0.000 C 
ATOM     14  C   UNL     1       0.803   8.656  21.121  0.00  0.00    +0.000 C 
ENDROOT
BRANCH   1  15
ATOM     15  C   UNL     1       0.351  11.949  19.216  0.00  0.00    +0.000 C 
BRANCH  15  16
ATOM     16  O   UNL     1      -0.923  12.587  19.300  0.00  0.00    +0.000 OA
BRANCH  16  23
ATOM     17  C   UNL     1      -2.827   9.958  15.528  0.00  0.00    +0.000 C 
ATOM     18  C   UNL     1      -2.980  10.724  16.810  0.00  0.00    +0.000 A 
ATOM     19  C   UNL     1      -4.234  10.881  17.400  0.00  0.00    +0.000 A 
ATOM     20  C   UNL     1      -4.364  11.595  18.591  0.00  0.00    +0.000 A 
ATOM     21  C   UNL     1      -3.240  12.162  19.214  0.00  0.00    +0.000 A 
ATOM     22  C   UNL     1      -3.414  12.930  20.492  0.00  0.00    +0.000 C 
ATOM     23  C   UNL     1      -1.970  12.004  18.630  0.00  0.00    +0.000 A 
ATOM     24  C   UNL     1      -1.852  11.287  17.431  0.00  0.00    +0.000 A 
ENDBRANCH  16  23
ENDBRANCH  15  16
ENDBRANCH   1  15
TORSDOF 3
ENDMDL
