MODEL 1
REMARK VINA RESULT:      -6.3      0.000      0.000
REMARK  Name = 
REMARK  6 active torsions:
REMARK  status: ('A' for Active; 'I' for Inactive)
REMARK    1  A    between atoms: C_1  and  C_2
REMARK    2  A    between atoms: C_2  and  C_3
REMARK    3  A    between atoms: C_3  and  C_4
REMARK    4  A    between atoms: C_4  and  O_5
REMARK    5  A    between atoms: O_5  and  C_6
REMARK    6  A    between atoms: C_9  and  C_10
REMARK                            x       y       z     vdW  Elec       q    Type
REMARK                         _______ _______ _______ _____ _____    ______ ____
ROOT
ATOM      1  C   UNL     1       2.869   3.902  17.639  0.00  0.00    +0.000 A 
ATOM      2  C   UNL     1       4.138   3.344  17.472  0.00  0.00    +0.000 A 
ATOM      3  C   UNL     1       5.282   4.131  17.602  0.00  0.00    +0.000 A 
ATOM      4  C   UNL     1       5.180   5.495  17.884  0.00  0.00    +0.000 A 
ATOM      5  C   UNL     1       3.907   6.055  18.063  0.00  0.00    +0.000 A 
ATOM      6  C   UNL     1       2.759   5.260  17.939  0.00  0.00    +0.000 A 
ENDROOT
BRANCH   4   7
ATOM      7  C   UNL     1       6.395   6.278  17.971  0.00  0.00    +0.000 A 
ATOM      8  C   UNL     1       7.429   6.084  18.861  0.00  0.00    +0.000 A 
ATOM      9  N   UNL     1       8.313   7.093  18.606  0.00  0.00    +0.000 N 
ATOM     10  C   UNL     1       7.797   7.853  17.594  0.00  0.00    +0.000 A 
ATOM     11  N   UNL     1       6.635   7.393  17.195  0.00  0.00    +0.000 NA
ATOM     12  H   UNL     1       9.183   7.266  19.088  0.00  0.00    +0.000 HD
ENDBRANCH   4   7
BRANCH   1  13
ATOM     13  O   UNL     1       1.685   3.212  17.532  0.00  0.00    +0.000 OA
BRANCH  13  14
ATOM     14  C   UNL     1       1.394   2.363  18.645  0.00  0.00    +0.000 C 
BRANCH  14  15
ATOM     15  C   UNL     1       0.659   3.132  19.734  0.00  0.00    +0.000 C 
BRANCH  15  17
ATOM     16  C   UNL     1       2.805   2.709  20.994  0.00  0.00    +0.000 C 
ATOM     17  C   UNL     1       1.298   2.831  21.090  0.00  0.00    +0.000 C 
ENDBRANCH  15  17
ENDBRANCH  14  15
ENDBRANCH  13  14
ENDBRANCH   1  13
TORSDOF 5
ENDMDL
MODEL 2
REMARK VINA RESULT:      -6.2      3.283      6.083
REMARK  Name = 
REMARK  6 active torsions:
REMARK  status: ('A' for Active; 'I' for Inactive)
REMARK    1  A    between atoms: C_1  and  C_2
REMARK    2  A    between atoms: C_2  and  C_3
REMARK    3  A    between atoms: C_3  and  C_4
REMARK    4  A    between atoms: C_4  and  O_5
REMARK    5  A    between atoms: O_5  and  C_6
REMARK    6  A    between atoms: C_9  and  C_10
REMARK                            x       y       z     vdW  Elec       q    Type
REMARK                         _______ _______ _______ _____ _____    ______ ____
ROOT
ATOM      1  C   UNL     1       4.883   6.165  16.690  0.00  0.00    +0.000 A 
ATOM      2  C   UNL     1       3.968   6.754  17.566  0.00  0.00    +0.000 A 
ATOM      3  C   UNL     1       3.006   5.980  18.214  0.00  0.00    +0.000 A 
ATOM      4  C   UNL     1       2.927   4.604  17.986  0.00  0.00    +0.000 A 
ATOM      5  C   UNL     1       3.851   4.009  17.115  0.00  0.00    +0.000 A 
ATOM      6  C   UNL     1       4.822   4.789  16.471  0.00  0.00    +0.000 A 
ENDROOT
BRANCH   4   7
ATOM      7  C   UNL     1       1.886   3.849  18.651  0.00  0.00    +0.000 A 
ATOM      8  C   UNL     1       1.350   4.117  19.892  0.00  0.00    +0.000 A 
ATOM      9  N   UNL     1       0.458   3.109  20.120  0.00  0.00    +0.000 N 
ATOM     10  C   UNL     1       0.483   2.278  19.036  0.00  0.00    +0.000 A 
ATOM     11  N   UNL     1       1.342   2.692  18.135  0.00  0.00    +0.000 NA
ATOM     12  H   UNL     1      -0.107   2.982  20.948  0.00  0.00    +0.000 HD
ENDBRANCH   4   7
BRANCH   1  13
ATOM     13  O   UNL     1       5.866   6.840  16.007  0.00  0.00    +0.000 OA
BRANCH  13  14
ATOM     14  C   UNL     1       7.196   6.525  16.422  0.00  0.00    +0.000 C 
BRANCH  14  15
ATOM     15  C   UNL     1       7.592   7.346  17.641  0.00  0.00    +0.000 C 
BRANCH  15  17
ATOM     16  C   UNL     1       7.826   4.949  18.402  0.00  0.00    +0.000 C 
ATOM     17  C   UNL     1       7.904   6.408  18.808  0.00  0.00    +0.000 C 
ENDBRANCH  15  17
ENDBRANCH  14  15
ENDBRANCH  13  14
ENDBRANCH   1  13
TORSDOF 5
ENDMDL
MODEL 3
REMARK VINA RESULT:      -6.2      0.917      1.676
REMARK  Name = 
REMARK  6 active torsions:
REMARK  status: ('A' for Active; 'I' for Inactive)
REMARK    1  A    between atoms: C_1  and  C_2
REMARK    2  A    between atoms: C_2  and  C_3
REMARK    3  A    between atoms: C_3  and  C_4
REMARK    4  A    between atoms: C_4  and  O_5
REMARK    5  A    between atoms: O_5  and  C_6
REMARK    6  A    between atoms: C_9  and  C_10
REMARK                            x       y       z     vdW  Elec       q    Type
REMARK                         _______ _______ _______ _____ _____    ______ ____
ROOT
ATOM      1  C   UNL     1       2.114   4.024  17.707  0.00  0.00    +0.000 A 
ATOM      2  C   UNL     1       2.236   5.379  18.025  0.00  0.00    +0.000 A 
ATOM      3  C   UNL     1       3.482   6.004  18.005  0.00  0.00    +0.000 A 
ATOM      4  C   UNL     1       4.635   5.284  17.682  0.00  0.00    +0.000 A 
ATOM      5  C   UNL     1       4.514   3.927  17.351  0.00  0.00    +0.000 A 
ATOM      6  C   UNL     1       3.259   3.303  17.365  0.00  0.00    +0.000 A 
ENDROOT
BRANCH   4   7
ATOM      7  C   UNL     1       5.911   5.967  17.712  0.00  0.00    +0.000 A 
ATOM      8  C   UNL     1       6.444   6.744  16.706  0.00  0.00    +0.000 A 
ATOM      9  N   UNL     1       7.675   7.119  17.161  0.00  0.00    +0.000 N 
ATOM     10  C   UNL     1       7.848   6.568  18.399  0.00  0.00    +0.000 A 
ATOM     11  N   UNL     1       6.805   5.859  18.756  0.00  0.00    +0.000 NA
ATOM     12  H   UNL     1       8.351   7.686  16.667  0.00  0.00    +0.000 HD
ENDBRANCH   4   7
BRANCH   1  13
ATOM     13  O   UNL     1       0.934   3.320  17.698  0.00  0.00    +0.000 OA
BRANCH  13  14
ATOM     14  C   UNL     1       0.811   2.361  18.750  0.00  0.00    +0.000 C 
BRANCH  14  15
ATOM     15  C   UNL     1       0.572   3.051  20.085  0.00  0.00    +0.000 C 
BRANCH  15  17
ATOM     16  C   UNL     1       2.408   3.842  21.628  0.00  0.00    +0.000 C 
ATOM     17  C   UNL     1       1.664   2.642  21.074  0.00  0.00    +0.000 C 
ENDBRANCH  15  17
ENDBRANCH  14  15
ENDBRANCH  13  14
ENDBRANCH   1  13
TORSDOF 5
ENDMDL
MODEL 4
REMARK VINA RESULT:      -6.2      3.891      6.170
REMARK  Name = 
REMARK  6 active torsions:
REMARK  status: ('A' for Active; 'I' for Inactive)
REMARK    1  A    between atoms: C_1  and  C_2
REMARK    2  A    between atoms: C_2  and  C_3
REMARK    3  A    between atoms: C_3  and  C_4
REMARK    4  A    between atoms: C_4  and  O_5
REMARK    5  A    between atoms: O_5  and  C_6
REMARK    6  A    between atoms: C_9  and  C_10
REMARK                            x       y       z     vdW  Elec       q    Type
REMARK                         _______ _______ _______ _____ _____    ______ ____
ROOT
ATOM      1  C   UNL     1       5.426   5.437  15.674  0.00  0.00    +0.000 A 
ATOM      2  C   UNL     1       5.083   6.556  16.437  0.00  0.00    +0.000 A 
ATOM      3  C   UNL     1       4.203   6.441  17.512  0.00  0.00    +0.000 A 
ATOM      4  C   UNL     1       3.632   5.208  17.835  0.00  0.00    +0.000 A 
ATOM      5  C   UNL     1       3.982   4.080  17.078  0.00  0.00    +0.000 A 
ATOM      6  C   UNL     1       4.874   4.198  16.003  0.00  0.00    +0.000 A 
ENDROOT
BRANCH   4   7
ATOM      7  C   UNL     1       2.693   5.145  18.936  0.00  0.00    +0.000 A 
ATOM      8  C   UNL     1       2.506   6.107  19.904  0.00  0.00    +0.000 A 
ATOM      9  N   UNL     1       1.574   5.582  20.753  0.00  0.00    +0.000 N 
ATOM     10  C   UNL     1       1.235   4.344  20.285  0.00  0.00    +0.000 A 
ATOM     11  N   UNL     1       1.900   4.047  19.194  0.00  0.00    +0.000 NA
ATOM     12  H   UNL     1       1.210   6.016  21.589  0.00  0.00    +0.000 HD
ENDBRANCH   4   7
BRANCH   1  13
ATOM     13  O   UNL     1       6.282   5.448  14.600  0.00  0.00    +0.000 OA
BRANCH  13  14
ATOM     14  C   UNL     1       6.644   4.151  14.119  0.00  0.00    +0.000 C 
BRANCH  14  15
ATOM     15  C   UNL     1       6.662   4.124  12.598  0.00  0.00    +0.000 C 
BRANCH  15  17
ATOM     16  C   UNL     1       4.475   3.367  11.587  0.00  0.00    +0.000 C 
ATOM     17  C   UNL     1       5.835   2.937  12.099  0.00  0.00    +0.000 C 
ENDBRANCH  15  17
ENDBRANCH  14  15
ENDBRANCH  13  14
ENDBRANCH   1  13
TORSDOF 5
ENDMDL
MODEL 5
REMARK VINA RESULT:      -6.2      3.876      5.955
REMARK  Name = 
REMARK  6 active torsions:
REMARK  status: ('A' for Active; 'I' for Inactive)
REMARK    1  A    between atoms: C_1  and  C_2
REMARK    2  A    between atoms: C_2  and  C_3
REMARK    3  A    between atoms: C_3  and  C_4
REMARK    4  A    between atoms: C_4  and  O_5
REMARK    5  A    between atoms: O_5  and  C_6
REMARK    6  A    between atoms: C_9  and  C_10
REMARK                            x       y       z     vdW  Elec       q    Type
REMARK                         _______ _______ _______ _____ _____    ______ ____
ROOT
ATOM      1  C   UNL     1       5.445   5.430  15.515  0.00  0.00    +0.000 A 
ATOM      2  C   UNL     1       5.100   6.683  16.026  0.00  0.00    +0.000 A 
ATOM      3  C   UNL     1       4.370   6.791  17.209  0.00  0.00    +0.000 A 
ATOM      4  C   UNL     1       3.955   5.648  17.896  0.00  0.00    +0.000 A 
ATOM      5  C   UNL     1       4.310   4.389  17.391  0.00  0.00    +0.000 A 
ATOM      6  C   UNL     1       5.051   4.284  16.206  0.00  0.00    +0.000 A 
ENDROOT
BRANCH   4   7
ATOM      7  C   UNL     1       3.166   5.810  19.099  0.00  0.00    +0.000 A 
ATOM      8  C   UNL     1       2.924   4.844  20.052  0.00  0.00    +0.000 A 
ATOM      9  N   UNL     1       2.089   5.435  20.956  0.00  0.00    +0.000 N 
ATOM     10  C   UNL     1       1.853   6.712  20.531  0.00  0.00    +0.000 A 
ATOM     11  N   UNL     1       2.481   6.966  19.408  0.00  0.00    +0.000 NA
ATOM     12  H   UNL     1       1.696   5.007  21.782  0.00  0.00    +0.000 HD
ENDBRANCH   4   7
BRANCH   1  13
ATOM     13  O   UNL     1       6.161   5.221  14.360  0.00  0.00    +0.000 OA
BRANCH  13  14
ATOM     14  C   UNL     1       6.232   3.854  13.950  0.00  0.00    +0.000 C 
BRANCH  14  15
ATOM     15  C   UNL     1       6.464   3.751  12.449  0.00  0.00    +0.000 C 
BRANCH  15  17
ATOM     16  C   UNL     1       4.253   3.255  11.335  0.00  0.00    +0.000 C 
ATOM     17  C   UNL     1       5.549   2.674  11.864  0.00  0.00    +0.000 C 
ENDBRANCH  15  17
ENDBRANCH  14  15
ENDBRANCH  13  14
ENDBRANCH   1  13
TORSDOF 5
ENDMDL
MODEL 6
REMARK VINA RESULT:      -6.1      1.281      1.784
REMARK  Name = 
REMARK  6 active torsions:
REMARK  status: ('A' for Active; 'I' for Inactive)
REMARK    1  A    between atoms: C_1  and  C_2
REMARK    2  A    between atoms: C_2  and  C_3
REMARK    3  A    between atoms: C_3  and  C_4
REMARK    4  A    between atoms: C_4  and  O_5
REMARK    5  A    between atoms: O_5  and  C_6
REMARK    6  A    between atoms: C_9  and  C_10
REMARK                            x       y       z     vdW  Elec       q    Type
REMARK                         _______ _______ _______ _____ _____    ______ ____
ROOT
ATOM      1  C   UNL     1       3.271   2.858  18.262  0.00  0.00    +0.000 A 
ATOM      2  C   UNL     1       3.184   3.828  17.260  0.00  0.00    +0.000 A 
ATOM      3  C   UNL     1       4.153   4.825  17.151  0.00  0.00    +0.000 A 
ATOM      4  C   UNL     1       5.219   4.884  18.052  0.00  0.00    +0.000 A 
ATOM      5  C   UNL     1       5.314   3.905  19.051  0.00  0.00    +0.000 A 
ATOM      6  C   UNL     1       4.343   2.899  19.154  0.00  0.00    +0.000 A 
ENDROOT
BRANCH   4   7
ATOM      7  C   UNL     1       6.178   5.961  17.922  0.00  0.00    +0.000 A 
ATOM      8  C   UNL     1       6.131   6.989  17.006  0.00  0.00    +0.000 A 
ATOM      9  N   UNL     1       7.268   7.713  17.225  0.00  0.00    +0.000 N 
ATOM     10  C   UNL     1       7.955   7.113  18.242  0.00  0.00    +0.000 A 
ATOM     11  N   UNL     1       7.327   6.047  18.679  0.00  0.00    +0.000 NA
ATOM     12  H   UNL     1       7.565   8.534  16.717  0.00  0.00    +0.000 HD
ENDBRANCH   4   7
BRANCH   1  13
ATOM     13  O   UNL     1       2.370   1.838  18.450  0.00  0.00    +0.000 OA
BRANCH  13  14
ATOM     14  C   UNL     1       1.082   2.263  18.899  0.00  0.00    +0.000 C 
BRANCH  14  15
ATOM     15  C   UNL     1       1.155   2.802  20.321  0.00  0.00    +0.000 C 
BRANCH  15  17
ATOM     16  C   UNL     1       1.984   5.135  20.814  0.00  0.00    +0.000 C 
ATOM     17  C   UNL     1       0.824   4.295  20.318  0.00  0.00    +0.000 C 
ENDBRANCH  15  17
ENDBRANCH  14  15
ENDBRANCH  13  14
ENDBRANCH   1  13
TORSDOF 5
ENDMDL
MODEL 7
REMARK VINA RESULT:      -6.1      0.542      1.391
REMARK  Name = 
REMARK  6 active torsions:
REMARK  status: ('A' for Active; 'I' for Inactive)
REMARK    1  A    between atoms: C_1  and  C_2
REMARK    2  A    between atoms: C_2  and  C_3
REMARK    3  A    between atoms: C_3  and  C_4
REMARK    4  A    between atoms: C_4  and  O_5
REMARK    5  A    between atoms: O_5  and  C_6
REMARK    6  A    between atoms: C_9  and  C_10
REMARK                            x       y       z     vdW  Elec       q    Type
REMARK                         _______ _______ _______ _____ _____    ______ ____
ROOT
ATOM      1  C   UNL     1       2.575   4.259  17.560  0.00  0.00    +0.000 A 
ATOM      2  C   UNL     1       2.660   5.516  18.163  0.00  0.00    +0.000 A 
ATOM      3  C   UNL     1       3.883   6.179  18.254  0.00  0.00    +0.000 A 
ATOM      4  C   UNL     1       5.050   5.591  17.759  0.00  0.00    +0.000 A 
ATOM      5  C   UNL     1       4.965   4.334  17.144  0.00  0.00    +0.000 A 
ATOM      6  C   UNL     1       3.733   3.673  17.047  0.00  0.00    +0.000 A 
ENDROOT
BRANCH   4   7
ATOM      7  C   UNL     1       6.302   6.301  17.911  0.00  0.00    +0.000 A 
ATOM      8  C   UNL     1       7.288   6.027  18.835  0.00  0.00    +0.000 A 
ATOM      9  N   UNL     1       8.237   6.989  18.639  0.00  0.00    +0.000 N 
ATOM     10  C   UNL     1       7.806   7.799  17.627  0.00  0.00    +0.000 A 
ATOM     11  N   UNL     1       6.637   7.416  17.173  0.00  0.00    +0.000 NA
ATOM     12  H   UNL     1       9.097   7.100  19.158  0.00  0.00    +0.000 HD
ENDBRANCH   4   7
BRANCH   1  13
ATOM     13  O   UNL     1       1.419   3.528  17.422  0.00  0.00    +0.000 OA
BRANCH  13  14
ATOM     14  C   UNL     1       0.835   3.108  18.657  0.00  0.00    +0.000 C 
BRANCH  14  15
ATOM     15  C   UNL     1       1.671   2.013  19.305  0.00  0.00    +0.000 C 
BRANCH  15  17
ATOM     16  C   UNL     1       1.509   3.756  21.125  0.00  0.00    +0.000 C 
ATOM     17  C   UNL     1       2.238   2.521  20.631  0.00  0.00    +0.000 C 
ENDBRANCH  15  17
ENDBRANCH  14  15
ENDBRANCH  13  14
ENDBRANCH   1  13
TORSDOF 5
ENDMDL
MODEL 8
REMARK VINA RESULT:      -6.1      3.797      6.347
REMARK  Name = 
REMARK  6 active torsions:
REMARK  status: ('A' for Active; 'I' for Inactive)
REMARK    1  A    between atoms: C_1  and  C_2
REMARK    2  A    between atoms: C_2  and  C_3
REMARK    3  A    between atoms: C_3  and  C_4
REMARK    4  A    between atoms: C_4  and  O_5
REMARK    5  A    between atoms: O_5  and  C_6
REMARK    6  A    between atoms: C_9  and  C_10
REMARK                            x       y       z     vdW  Elec       q    Type
REMARK                         _______ _______ _______ _____ _____    ______ ____
ROOT
ATOM      1  C   UNL     1       5.393   5.136  17.164  0.00  0.00    +0.000 A 
ATOM      2  C   UNL     1       5.308   5.565  18.491  0.00  0.00    +0.000 A 
ATOM      3  C   UNL     1       4.367   5.011  19.358  0.00  0.00    +0.000 A 
ATOM      4  C   UNL     1       3.479   4.029  18.912  0.00  0.00    +0.000 A 
ATOM      5  C   UNL     1       3.569   3.589  17.583  0.00  0.00    +0.000 A 
ATOM      6  C   UNL     1       4.522   4.142  16.716  0.00  0.00    +0.000 A 
ENDROOT
BRANCH   4   7
ATOM      7  C   UNL     1       2.494   3.512  19.838  0.00  0.00    +0.000 A 
ATOM      8  C   UNL     1       1.125   3.604  19.708  0.00  0.00    +0.000 A 
ATOM      9  N   UNL     1       0.621   3.035  20.842  0.00  0.00    +0.000 N 
ATOM     10  C   UNL     1       1.676   2.628  21.609  0.00  0.00    +0.000 A 
ATOM     11  N   UNL     1       2.821   2.910  21.035  0.00  0.00    +0.000 NA
ATOM     12  H   UNL     1      -0.355   2.945  21.087  0.00  0.00    +0.000 HD
ENDBRANCH   4   7
BRANCH   1  13
ATOM     13  O   UNL     1       6.284   5.618  16.235  0.00  0.00    +0.000 OA
BRANCH  13  14
ATOM     14  C   UNL     1       7.007   4.607  15.531  0.00  0.00    +0.000 C 
BRANCH  14  15
ATOM     15  C   UNL     1       6.914   4.824  14.027  0.00  0.00    +0.000 C 
BRANCH  15  17
ATOM     16  C   UNL     1       6.360   3.284  12.104  0.00  0.00    +0.000 C 
ATOM     17  C   UNL     1       5.897   3.848  13.433  0.00  0.00    +0.000 C 
ENDBRANCH  15  17
ENDBRANCH  14  15
ENDBRANCH  13  14
ENDBRANCH   1  13
TORSDOF 5
ENDMDL
MODEL 9
REMARK VINA RESULT:      -6.1      1.247      1.601
REMARK  Name = 
REMARK  6 active torsions:
REMARK  status: ('A' for Active; 'I' for Inactive)
REMARK    1  A    between atoms: C_1  and  C_2
REMARK    2  A    between atoms: C_2  and  C_3
REMARK    3  A    between atoms: C_3  and  C_4
REMARK    4  A    between atoms: C_4  and  O_5
REMARK    5  A    between atoms: O_5  and  C_6
REMARK    6  A    between atoms: C_9  and  C_10
REMARK                            x       y       z     vdW  Elec       q    Type
REMARK                         _______ _______ _______ _____ _____    ______ ____
ROOT
ATOM      1  C   UNL     1       3.567   2.833  18.295  0.00  0.00    +0.000 A 
ATOM      2  C   UNL     1       4.580   3.054  19.231  0.00  0.00    +0.000 A 
ATOM      3  C   UNL     1       5.449   4.135  19.096  0.00  0.00    +0.000 A 
ATOM      4  C   UNL     1       5.336   5.009  18.012  0.00  0.00    +0.000 A 
ATOM      5  C   UNL     1       4.314   4.796  17.076  0.00  0.00    +0.000 A 
ATOM      6  C   UNL     1       3.436   3.712  17.219  0.00  0.00    +0.000 A 
ENDROOT
BRANCH   4   7
ATOM      7  C   UNL     1       6.286   6.094  17.893  0.00  0.00    +0.000 A 
ATOM      8  C   UNL     1       6.219   7.143  17.002  0.00  0.00    +0.000 A 
ATOM      9  N   UNL     1       7.354   7.870  17.220  0.00  0.00    +0.000 N 
ATOM     10  C   UNL     1       8.060   7.251  18.213  0.00  0.00    +0.000 A 
ATOM     11  N   UNL     1       7.447   6.171  18.634  0.00  0.00    +0.000 NA
ATOM     12  H   UNL     1       7.638   8.704  16.727  0.00  0.00    +0.000 HD
ENDBRANCH   4   7
BRANCH   1  13
ATOM     13  O   UNL     1       2.663   1.799  18.341  0.00  0.00    +0.000 OA
BRANCH  13  14
ATOM     14  C   UNL     1       1.333   2.193  18.687  0.00  0.00    +0.000 C 
BRANCH  14  15
ATOM     15  C   UNL     1       1.251   2.589  20.154  0.00  0.00    +0.000 C 
BRANCH  15  17
ATOM     16  C   UNL     1       2.005   4.911  20.801  0.00  0.00    +0.000 C 
ATOM     17  C   UNL     1       0.867   4.066  20.263  0.00  0.00    +0.000 C 
ENDBRANCH  15  17
ENDBRANCH  14  15
ENDBRANCH  13  14
ENDBRANCH   1  13
TORSDOF 5
ENDMDL
