MODEL 1
REMARK VINA RESULT:      -7.2      0.000      0.000
REMARK  Name = 
REMARK  3 active torsions:
REMARK  status: ('A' for Active; 'I' for Inactive)
REMARK    1  A    between atoms: C_2  and  C_3
REMARK    2  A    between atoms: C_3  and  N_4
REMARK    3  A    between atoms: N_15  and  C_16
REMARK                            x       y       z     vdW  Elec       q    Type
REMARK                         _______ _______ _______ _____ _____    ______ ____
ROOT
ATOM      1  C   UNL     1       5.142   6.116  17.769  0.00  0.00    +0.000 C 
ENDROOT
BRANCH   1   2
ATOM      2  N   UNL     1       5.764   5.456  16.640  0.00  0.00    +0.000 N 
ATOM      3  C   UNL     1       6.972   5.794  16.110  0.00  0.00    +0.000 C 
ATOM      4  O   UNL     1       7.635   6.786  16.388  0.00  0.00    +0.000 OA
ATOM      5  C   UNL     1       7.388   4.732  15.111  0.00  0.00    +0.000 C 
ATOM      6  C   UNL     1       7.853   5.308  13.773  0.00  0.00    +0.000 C 
ATOM      7  C   UNL     1       7.114   4.846  12.559  0.00  0.00    +0.000 C 
ATOM      8  C   UNL     1       6.156   3.915  12.569  0.00  0.00    +0.000 C 
ATOM      9  C   UNL     1       5.690   3.204  13.795  0.00  0.00    +0.000 C 
ATOM     10  C   UNL     1       6.212   3.749  15.120  0.00  0.00    +0.000 C 
ATOM     11  C   UNL     1       5.168   4.424  15.976  0.00  0.00    +0.000 C 
ATOM     12  O   UNL     1       4.020   4.038  16.146  0.00  0.00    +0.000 OA
ENDBRANCH   1   2
BRANCH   1  14
ATOM     13  O   UNL     1       6.042   4.567  19.419  0.00  0.00    +0.000 OA
ATOM     14  C   UNL     1       5.050   5.076  18.900  0.00  0.00    +0.000 C 
ATOM     15  N   UNL     1       3.757   4.692  19.210  0.00  0.00    +0.000 N 
ATOM     16  H   UNL     1       3.044   4.897  18.513  0.00  0.00    +0.000 HD
BRANCH  15  17
ATOM     17  C   UNL     1       3.440   3.679  20.221  0.00  0.00    +0.000 C 
ATOM     18  C   UNL     1       2.255   4.134  21.087  0.00  0.00    +0.000 C 
ATOM     19  C   UNL     1       0.929   4.119  20.326  0.00  0.00    +0.000 C 
ATOM     20  C   UNL     1       0.652   2.754  19.705  0.00  0.00    +0.000 C 
ATOM     21  C   UNL     1       1.815   2.274  18.842  0.00  0.00    +0.000 C 
ATOM     22  C   UNL     1       3.144   2.306  19.599  0.00  0.00    +0.000 C 
ENDBRANCH  15  17
ENDBRANCH   1  14
TORSDOF 3
ENDMDL
MODEL 2
REMARK VINA RESULT:      -6.9      2.008      6.791
REMARK  Name = 
REMARK  3 active torsions:
REMARK  status: ('A' for Active; 'I' for Inactive)
REMARK    1  A    between atoms: C_2  and  C_3
REMARK    2  A    between atoms: C_3  and  N_4
REMARK    3  A    between atoms: N_15  and  C_16
REMARK                            x       y       z     vdW  Elec       q    Type
REMARK                         _______ _______ _______ _____ _____    ______ ____
ROOT
ATOM      1  C   UNL     1       5.825   3.935  16.369  0.00  0.00    +0.000 C 
ENDROOT
BRANCH   1   2
ATOM      2  N   UNL     1       4.630   4.366  17.066  0.00  0.00    +0.000 N 
ATOM      3  C   UNL     1       4.459   5.593  17.632  0.00  0.00    +0.000 C 
ATOM      4  O   UNL     1       5.323   6.448  17.785  0.00  0.00    +0.000 OA
ATOM      5  C   UNL     1       3.009   5.749  18.045  0.00  0.00    +0.000 C 
ATOM      6  C   UNL     1       2.838   6.258  19.476  0.00  0.00    +0.000 C 
ATOM      7  C   UNL     1       2.045   5.391  20.399  0.00  0.00    +0.000 C 
ATOM      8  C   UNL     1       1.419   4.271  20.029  0.00  0.00    +0.000 C 
ATOM      9  C   UNL     1       1.423   3.729  18.638  0.00  0.00    +0.000 C 
ATOM     10  C   UNL     1       2.379   4.405  17.663  0.00  0.00    +0.000 C 
ATOM     11  C   UNL     1       3.549   3.551  17.239  0.00  0.00    +0.000 C 
ATOM     12  O   UNL     1       3.509   2.358  16.971  0.00  0.00    +0.000 OA
ENDBRANCH   1   2
BRANCH   1  14
ATOM     13  O   UNL     1       5.635   5.767  14.777  0.00  0.00    +0.000 OA
ATOM     14  C   UNL     1       5.774   4.560  14.964  0.00  0.00    +0.000 C 
ATOM     15  N   UNL     1       5.798   3.636  13.935  0.00  0.00    +0.000 N 
ATOM     16  H   UNL     1       5.567   2.676  14.181  0.00  0.00    +0.000 HD
BRANCH  15  17
ATOM     17  C   UNL     1       5.710   4.007  12.519  0.00  0.00    +0.000 C 
ATOM     18  C   UNL     1       7.112   4.095  11.896  0.00  0.00    +0.000 C 
ATOM     19  C   UNL     1       7.769   2.724  11.731  0.00  0.00    +0.000 C 
ATOM     20  C   UNL     1       6.884   1.767  10.939  0.00  0.00    +0.000 C 
ATOM     21  C   UNL     1       5.482   1.664  11.533  0.00  0.00    +0.000 C 
ATOM     22  C   UNL     1       4.833   3.036  11.714  0.00  0.00    +0.000 C 
ENDBRANCH  15  17
ENDBRANCH   1  14
TORSDOF 3
ENDMDL
MODEL 3
REMARK VINA RESULT:      -6.6      2.287      3.743
REMARK  Name = 
REMARK  3 active torsions:
REMARK  status: ('A' for Active; 'I' for Inactive)
REMARK    1  A    between atoms: C_2  and  C_3
REMARK    2  A    between atoms: C_3  and  N_4
REMARK    3  A    between atoms: N_15  and  C_16
REMARK                            x       y       z     vdW  Elec       q    Type
REMARK                         _______ _______ _______ _____ _____    ______ ____
ROOT
ATOM      1  C   UNL     1       3.887   4.400  16.667  0.00  0.00    +0.000 C 
ENDROOT
BRANCH   1   2
ATOM      2  N   UNL     1       5.189   4.934  17.011  0.00  0.00    +0.000 N 
ATOM      3  C   UNL     1       5.975   4.478  18.025  0.00  0.00    +0.000 C 
ATOM      4  O   UNL     1       5.648   3.676  18.891  0.00  0.00    +0.000 OA
ATOM      5  C   UNL     1       7.344   5.118  17.915  0.00  0.00    +0.000 C 
ATOM      6  C   UNL     1       7.847   5.706  19.234  0.00  0.00    +0.000 C 
ATOM      7  C   UNL     1       8.186   7.161  19.225  0.00  0.00    +0.000 C 
ATOM      8  C   UNL     1       8.160   7.935  18.137  0.00  0.00    +0.000 C 
ATOM      9  C   UNL     1       7.791   7.452  16.774  0.00  0.00    +0.000 C 
ATOM     10  C   UNL     1       7.213   6.044  16.700  0.00  0.00    +0.000 C 
ATOM     11  C   UNL     1       5.748   5.984  16.342  0.00  0.00    +0.000 C 
ATOM     12  O   UNL     1       5.185   6.674  15.504  0.00  0.00    +0.000 OA
ENDBRANCH   1   2
BRANCH   1  14
ATOM     13  O   UNL     1       2.704   6.221  17.768  0.00  0.00    +0.000 OA
ATOM     14  C   UNL     1       2.877   5.009  17.656  0.00  0.00    +0.000 C 
ATOM     15  N   UNL     1       2.257   4.080  18.473  0.00  0.00    +0.000 N 
ATOM     16  H   UNL     1       2.706   3.169  18.547  0.00  0.00    +0.000 HD
BRANCH  15  17
ATOM     17  C   UNL     1       1.297   4.444  19.519  0.00  0.00    +0.000 C 
ATOM     18  C   UNL     1       0.472   3.219  19.945  0.00  0.00    +0.000 C 
ATOM     19  C   UNL     1       1.295   2.202  20.735  0.00  0.00    +0.000 C 
ATOM     20  C   UNL     1       1.974   2.842  21.941  0.00  0.00    +0.000 C 
ATOM     21  C   UNL     1       2.797   4.065  21.549  0.00  0.00    +0.000 C 
ATOM     22  C   UNL     1       1.978   5.074  20.744  0.00  0.00    +0.000 C 
ENDBRANCH  15  17
ENDBRANCH   1  14
TORSDOF 3
ENDMDL
MODEL 4
REMARK VINA RESULT:      -6.5      2.303      6.189
REMARK  Name = 
REMARK  3 active torsions:
REMARK  status: ('A' for Active; 'I' for Inactive)
REMARK    1  A    between atoms: C_2  and  C_3
REMARK    2  A    between atoms: C_3  and  N_4
REMARK    3  A    between atoms: N_15  and  C_16
REMARK                            x       y       z     vdW  Elec       q    Type
REMARK                         _______ _______ _______ _____ _____    ______ ____
ROOT
ATOM      1  C   UNL     1       3.033   7.216  17.508  0.00  0.00    +0.000 C 
ENDROOT
BRANCH   1   2
ATOM      2  N   UNL     1       3.006   6.019  18.323  0.00  0.00    +0.000 N 
ATOM      3  C   UNL     1       3.372   4.779  17.897  0.00  0.00    +0.000 C 
ATOM      4  O   UNL     1       3.620   4.452  16.742  0.00  0.00    +0.000 OA
ATOM      5  C   UNL     1       3.439   3.847  19.089  0.00  0.00    +0.000 C 
ATOM      6  C   UNL     1       2.703   2.525  18.868  0.00  0.00    +0.000 C 
ATOM      7  C   UNL     1       1.619   2.197  19.842  0.00  0.00    +0.000 C 
ATOM      8  C   UNL     1       1.325   2.931  20.918  0.00  0.00    +0.000 C 
ATOM      9  C   UNL     1       2.043   4.182  21.300  0.00  0.00    +0.000 C 
ATOM     10  C   UNL     1       3.016   4.735  20.266  0.00  0.00    +0.000 C 
ATOM     11  C   UNL     1       2.579   6.026  19.619  0.00  0.00    +0.000 C 
ATOM     12  O   UNL     1       2.048   6.970  20.187  0.00  0.00    +0.000 OA
ENDBRANCH   1   2
BRANCH   1  14
ATOM     13  O   UNL     1       4.475   7.309  15.548  0.00  0.00    +0.000 OA
ATOM     14  C   UNL     1       4.385   7.227  16.771  0.00  0.00    +0.000 C 
ATOM     15  N   UNL     1       5.478   7.035  17.596  0.00  0.00    +0.000 N 
ATOM     16  H   UNL     1       5.290   6.637  18.514  0.00  0.00    +0.000 HD
BRANCH  15  17
ATOM     17  C   UNL     1       6.856   6.960  17.100  0.00  0.00    +0.000 C 
ATOM     18  C   UNL     1       7.854   7.065  18.263  0.00  0.00    +0.000 C 
ATOM     19  C   UNL     1       7.863   5.816  19.146  0.00  0.00    +0.000 C 
ATOM     20  C   UNL     1       8.113   4.552  18.331  0.00  0.00    +0.000 C 
ATOM     21  C   UNL     1       7.137   4.424  17.164  0.00  0.00    +0.000 C 
ATOM     22  C   UNL     1       7.117   5.679  16.292  0.00  0.00    +0.000 C 
ENDBRANCH  15  17
ENDBRANCH   1  14
TORSDOF 3
ENDMDL
MODEL 5
REMARK VINA RESULT:      -6.4      4.373      6.738
REMARK  Name = 
REMARK  3 active torsions:
REMARK  status: ('A' for Active; 'I' for Inactive)
REMARK    1  A    between atoms: C_2  and  C_3
REMARK    2  A    between atoms: C_3  and  N_4
REMARK    3  A    between atoms: N_15  and  C_16
REMARK                            x       y       z     vdW  Elec       q    Type
REMARK                         _______ _______ _______ _____ _____    ______ ____
ROOT
ATOM      1  C   UNL     1       3.310   7.442  18.905  0.00  0.00    +0.000 C 
ENDROOT
BRANCH   1   2
ATOM      2  N   UNL     1       2.729   6.117  18.842  0.00  0.00    +0.000 N 
ATOM      3  C   UNL     1       1.839   5.613  19.742  0.00  0.00    +0.000 C 
ATOM      4  O   UNL     1       1.522   6.122  20.810  0.00  0.00    +0.000 OA
ATOM      5  C   UNL     1       1.282   4.308  19.209  0.00  0.00    +0.000 C 
ATOM      6  C   UNL     1       1.314   3.173  20.233  0.00  0.00    +0.000 C 
ATOM      7  C   UNL     1       2.066   1.944  19.838  0.00  0.00    +0.000 C 
ATOM      8  C   UNL     1       2.621   1.753  18.638  0.00  0.00    +0.000 C 
ATOM      9  C   UNL     1       2.564   2.741  17.521  0.00  0.00    +0.000 C 
ATOM     10  C   UNL     1       2.019   4.119  17.878  0.00  0.00    +0.000 C 
ATOM     11  C   UNL     1       3.046   5.224  17.859  0.00  0.00    +0.000 C 
ATOM     12  O   UNL     1       3.933   5.367  17.029  0.00  0.00    +0.000 OA
ENDBRANCH   1   2
BRANCH   1  14
ATOM     13  O   UNL     1       2.229   8.666  17.100  0.00  0.00    +0.000 OA
ATOM     14  C   UNL     1       2.280   8.413  18.302  0.00  0.00    +0.000 C 
ATOM     15  N   UNL     1       1.486   9.048  19.240  0.00  0.00    +0.000 N 
ATOM     16  H   UNL     1       1.824   9.041  20.200  0.00  0.00    +0.000 HD
BRANCH  15  17
ATOM     17  C   UNL     1       0.473  10.048  18.891  0.00  0.00    +0.000 C 
ATOM     18  C   UNL     1      -0.710   9.982  19.869  0.00  0.00    +0.000 C 
ATOM     19  C   UNL     1      -0.351  10.499  21.262  0.00  0.00    +0.000 C 
ATOM     20  C   UNL     1       0.228  11.909  21.208  0.00  0.00    +0.000 C 
ATOM     21  C   UNL     1       1.403  12.006  20.239  0.00  0.00    +0.000 C 
ATOM     22  C   UNL     1       1.048  11.473  18.851  0.00  0.00    +0.000 C 
ENDBRANCH  15  17
ENDBRANCH   1  14
TORSDOF 3
ENDMDL
MODEL 6
REMARK VINA RESULT:      -6.4      9.240     11.705
REMARK  Name = 
REMARK  3 active torsions:
REMARK  status: ('A' for Active; 'I' for Inactive)
REMARK    1  A    between atoms: C_2  and  C_3
REMARK    2  A    between atoms: C_3  and  N_4
REMARK    3  A    between atoms: N_15  and  C_16
REMARK                            x       y       z     vdW  Elec       q    Type
REMARK                         _______ _______ _______ _____ _____    ______ ____
ROOT
ATOM      1  C   UNL     1      -1.809  11.887  17.791  0.00  0.00    +0.000 C 
ENDROOT
BRANCH   1   2
ATOM      2  N   UNL     1      -1.178  11.525  19.044  0.00  0.00    +0.000 N 
ATOM      3  C   UNL     1      -0.216  10.573  19.184  0.00  0.00    +0.000 C 
ATOM      4  O   UNL     1       0.145   9.773  18.328  0.00  0.00    +0.000 OA
ATOM      5  C   UNL     1       0.362  10.655  20.583  0.00  0.00    +0.000 C 
ATOM      6  C   UNL     1       0.439   9.301  21.288  0.00  0.00    +0.000 C 
ATOM      7  C   UNL     1      -0.284   9.188  22.591  0.00  0.00    +0.000 C 
ATOM      8  C   UNL     1      -0.902  10.203  23.200  0.00  0.00    +0.000 C 
ATOM      9  C   UNL     1      -0.954  11.596  22.665  0.00  0.00    +0.000 C 
ATOM     10  C   UNL     1      -0.446  11.781  21.240  0.00  0.00    +0.000 C 
ATOM     11  C   UNL     1      -1.517  12.111  20.229  0.00  0.00    +0.000 C 
ATOM     12  O   UNL     1      -2.458  12.873  20.402  0.00  0.00    +0.000 OA
ENDBRANCH   1   2
BRANCH   1  14
ATOM     13  O   UNL     1      -3.284   9.968  17.527  0.00  0.00    +0.000 OA
ATOM     14  C   UNL     1      -3.171  11.171  17.752  0.00  0.00    +0.000 C 
ATOM     15  N   UNL     1      -4.257  12.017  17.893  0.00  0.00    +0.000 N 
ATOM     16  H   UNL     1      -4.086  13.007  17.728  0.00  0.00    +0.000 HD
BRANCH  15  17
ATOM     17  C   UNL     1      -5.647  11.556  17.838  0.00  0.00    +0.000 C 
ATOM     18  C   UNL     1      -6.156  11.203  19.244  0.00  0.00    +0.000 C 
ATOM     19  C   UNL     1      -6.361  12.438  20.123  0.00  0.00    +0.000 C 
ATOM     20  C   UNL     1      -7.278  13.457  19.456  0.00  0.00    +0.000 C 
ATOM     21  C   UNL     1      -6.800  13.823  18.053  0.00  0.00    +0.000 C 
ATOM     22  C   UNL     1      -6.579  12.587  17.181  0.00  0.00    +0.000 C 
ENDBRANCH  15  17
ENDBRANCH   1  14
TORSDOF 3
ENDMDL
MODEL 7
REMARK VINA RESULT:      -6.3      1.206      2.335
REMARK  Name = 
REMARK  3 active torsions:
REMARK  status: ('A' for Active; 'I' for Inactive)
REMARK    1  A    between atoms: C_2  and  C_3
REMARK    2  A    between atoms: C_3  and  N_4
REMARK    3  A    between atoms: N_15  and  C_16
REMARK                            x       y       z     vdW  Elec       q    Type
REMARK                         _______ _______ _______ _____ _____    ______ ____
ROOT
ATOM      1  C   UNL     1       6.070   4.098  18.194  0.00  0.00    +0.000 C 
ENDROOT
BRANCH   1   2
ATOM      2  N   UNL     1       6.012   4.318  16.763  0.00  0.00    +0.000 N 
ATOM      3  C   UNL     1       4.908   4.124  15.990  0.00  0.00    +0.000 C 
ATOM      4  O   UNL     1       3.863   3.588  16.339  0.00  0.00    +0.000 OA
ATOM      5  C   UNL     1       5.167   4.689  14.608  0.00  0.00    +0.000 C 
ATOM      6  C   UNL     1       4.801   3.724  13.480  0.00  0.00    +0.000 C 
ATOM      7  C   UNL     1       5.898   3.366  12.530  0.00  0.00    +0.000 C 
ATOM      8  C   UNL     1       7.122   3.898  12.557  0.00  0.00    +0.000 C 
ATOM      9  C   UNL     1       7.567   4.928  13.541  0.00  0.00    +0.000 C 
ATOM     10  C   UNL     1       6.608   5.205  14.694  0.00  0.00    +0.000 C 
ATOM     11  C   UNL     1       7.094   4.732  16.042  0.00  0.00    +0.000 C 
ATOM     12  O   UNL     1       8.238   4.822  16.465  0.00  0.00    +0.000 OA
ENDBRANCH   1   2
BRANCH   1  14
ATOM     13  O   UNL     1       4.863   6.132  18.769  0.00  0.00    +0.000 OA
ATOM     14  C   UNL     1       4.919   4.905  18.819  0.00  0.00    +0.000 C 
ATOM     15  N   UNL     1       4.011   4.138  19.525  0.00  0.00    +0.000 N 
ATOM     16  H   UNL     1       4.319   3.207  19.800  0.00  0.00    +0.000 HD
BRANCH  15  17
ATOM     17  C   UNL     1       2.864   4.705  20.242  0.00  0.00    +0.000 C 
ATOM     18  C   UNL     1       1.706   4.985  19.272  0.00  0.00    +0.000 C 
ATOM     19  C   UNL     1       1.044   3.705  18.762  0.00  0.00    +0.000 C 
ATOM     20  C   UNL     1       0.584   2.813  19.910  0.00  0.00    +0.000 C 
ATOM     21  C   UNL     1       1.714   2.522  20.893  0.00  0.00    +0.000 C 
ATOM     22  C   UNL     1       2.387   3.802  21.390  0.00  0.00    +0.000 C 
ENDBRANCH  15  17
ENDBRANCH   1  14
TORSDOF 3
ENDMDL
MODEL 8
REMARK VINA RESULT:      -6.2      2.227      6.402
REMARK  Name = 
REMARK  3 active torsions:
REMARK  status: ('A' for Active; 'I' for Inactive)
REMARK    1  A    between atoms: C_2  and  C_3
REMARK    2  A    between atoms: C_3  and  N_4
REMARK    3  A    between atoms: N_15  and  C_16
REMARK                            x       y       z     vdW  Elec       q    Type
REMARK                         _______ _______ _______ _____ _____    ______ ____
ROOT
ATOM      1  C   UNL     1       3.173   6.567  17.451  0.00  0.00    +0.000 C 
ENDROOT
BRANCH   1   2
ATOM      2  N   UNL     1       2.916   5.324  18.149  0.00  0.00    +0.000 N 
ATOM      3  C   UNL     1       1.880   4.482  17.882  0.00  0.00    +0.000 C 
ATOM      4  O   UNL     1       0.929   4.711  17.144  0.00  0.00    +0.000 OA
ATOM      5  C   UNL     1       2.086   3.188  18.644  0.00  0.00    +0.000 C 
ATOM      6  C   UNL     1       0.846   2.732  19.414  0.00  0.00    +0.000 C 
ATOM      7  C   UNL     1       1.010   2.547  20.887  0.00  0.00    +0.000 C 
ATOM      8  C   UNL     1       2.170   2.667  21.537  0.00  0.00    +0.000 C 
ATOM      9  C   UNL     1       3.468   3.001  20.881  0.00  0.00    +0.000 C 
ATOM     10  C   UNL     1       3.385   3.431  19.421  0.00  0.00    +0.000 C 
ATOM     11  C   UNL     1       3.700   4.886  19.176  0.00  0.00    +0.000 C 
ATOM     12  O   UNL     1       4.591   5.529  19.714  0.00  0.00    +0.000 OA
ENDBRANCH   1   2
BRANCH   1  14
ATOM     13  O   UNL     1       4.698   5.770  15.728  0.00  0.00    +0.000 OA
ATOM     14  C   UNL     1       4.540   6.420  16.760  0.00  0.00    +0.000 C 
ATOM     15  N   UNL     1       5.588   6.996  17.455  0.00  0.00    +0.000 N 
ATOM     16  H   UNL     1       5.423   7.199  18.440  0.00  0.00    +0.000 HD
BRANCH  15  17
ATOM     17  C   UNL     1       6.982   6.933  17.006  0.00  0.00    +0.000 C 
ATOM     18  C   UNL     1       7.938   7.267  18.162  0.00  0.00    +0.000 C 
ATOM     19  C   UNL     1       7.990   6.165  19.220  0.00  0.00    +0.000 C 
ATOM     20  C   UNL     1       8.335   4.812  18.607  0.00  0.00    +0.000 C 
ATOM     21  C   UNL     1       7.404   4.455  17.452  0.00  0.00    +0.000 C 
ATOM     22  C   UNL     1       7.340   5.566  16.402  0.00  0.00    +0.000 C 
ENDBRANCH  15  17
ENDBRANCH   1  14
TORSDOF 3
ENDMDL
MODEL 9
REMARK VINA RESULT:      -6.2      1.268      2.233
REMARK  Name = 
REMARK  3 active torsions:
REMARK  status: ('A' for Active; 'I' for Inactive)
REMARK    1  A    between atoms: C_2  and  C_3
REMARK    2  A    between atoms: C_3  and  N_4
REMARK    3  A    between atoms: N_15  and  C_16
REMARK                            x       y       z     vdW  Elec       q    Type
REMARK                         _______ _______ _______ _____ _____    ______ ____
ROOT
ATOM      1  C   UNL     1       5.590   5.160  19.354  0.00  0.00    +0.000 C 
ENDROOT
BRANCH   1   2
ATOM      2  N   UNL     1       5.733   5.241  17.915  0.00  0.00    +0.000 N 
ATOM      3  C   UNL     1       4.703   5.395  17.038  0.00  0.00    +0.000 C 
ATOM      4  O   UNL     1       3.508   5.325  17.302  0.00  0.00    +0.000 OA
ATOM      5  C   UNL     1       5.266   5.681  15.660  0.00  0.00    +0.000 C 
ATOM      6  C   UNL     1       4.650   4.813  14.561  0.00  0.00    +0.000 C 
ATOM      7  C   UNL     1       5.600   3.980  13.764  0.00  0.00    +0.000 C 
ATOM      8  C   UNL     1       6.928   4.018  13.894  0.00  0.00    +0.000 C 
ATOM      9  C   UNL     1       7.652   4.902  14.854  0.00  0.00    +0.000 C 
ATOM     10  C   UNL     1       6.783   5.630  15.873  0.00  0.00    +0.000 C 
ATOM     11  C   UNL     1       6.944   5.148  17.294  0.00  0.00    +0.000 C 
ATOM     12  O   UNL     1       7.999   4.848  17.835  0.00  0.00    +0.000 OA
ENDBRANCH   1   2
BRANCH   1  14
ATOM     13  O   UNL     1       5.503   2.727  19.397  0.00  0.00    +0.000 OA
ATOM     14  C   UNL     1       4.953   3.793  19.665  0.00  0.00    +0.000 C 
ATOM     15  N   UNL     1       3.671   3.872  20.177  0.00  0.00    +0.000 N 
ATOM     16  H   UNL     1       3.180   4.754  20.040  0.00  0.00    +0.000 HD
BRANCH  15  17
ATOM     17  C   UNL     1       2.859   2.694  20.498  0.00  0.00    +0.000 C 
ATOM     18  C   UNL     1       1.533   3.113  21.150  0.00  0.00    +0.000 C 
ATOM     19  C   UNL     1       0.578   3.785  20.163  0.00  0.00    +0.000 C 
ATOM     20  C   UNL     1       0.326   2.909  18.940  0.00  0.00    +0.000 C 
ATOM     21  C   UNL     1       1.628   2.473  18.273  0.00  0.00    +0.000 C 
ATOM     22  C   UNL     1       2.589   1.817  19.266  0.00  0.00    +0.000 C 
ENDBRANCH  15  17
ENDBRANCH   1  14
TORSDOF 3
ENDMDL
