MODEL 1
REMARK VINA RESULT:      -8.2      0.000      0.000
REMARK  Name = 
REMARK  7 active torsions:
REMARK  status: ('A' for Active; 'I' for Inactive)
REMARK    1  A    between atoms: C_1  and  C_2
REMARK    2  A    between atoms: C_3  and  S_4
REMARK    3  A    between atoms: S_4  and  C_7
REMARK    4  A    between atoms: C_13  and  N_14
REMARK    5  A    between atoms: N_15  and  C_16
REMARK    6  A    between atoms: C_16  and  C_17
REMARK    7  A    between atoms: C_23  and  C_24
REMARK                            x       y       z     vdW  Elec       q    Type
REMARK                         _______ _______ _______ _____ _____    ______ ____
ROOT
ATOM      1  C   UNL     1       4.612   7.293  15.324  0.00  0.00    +0.000 C 
ATOM      2  C   UNL     1       4.734   6.642  16.661  0.00  0.00    +0.000 A 
ATOM      3  C   UNL     1       5.774   5.794  17.155  0.00  0.00    +0.000 A 
ATOM      4  C   UNL     1       5.397   5.353  18.412  0.00  0.00    +0.000 A 
ATOM      5  N   UNL     1       4.203   5.963  18.734  0.00  0.00    +0.000 N 
ATOM      6  C   UNL     1       3.833   6.815  17.708  0.00  0.00    +0.000 A 
ATOM      7  C   UNL     1       2.665   7.743  17.779  0.00  0.00    +0.000 C 
ENDROOT
BRANCH   3   8
ATOM      8  S   UNL     1       7.265   5.399  16.358  0.00  0.00    +0.000 S 
ATOM      9  O   UNL     1       7.978   6.657  16.243  0.00  0.00    +0.000 OA
ATOM     10  O   UNL     1       7.820   4.282  17.103  0.00  0.00    +0.000 OA
BRANCH   8  11
ATOM     11  C   UNL     1       6.910   4.807  14.729  0.00  0.00    +0.000 A 
ATOM     12  C   UNL     1       7.711   5.263  13.673  0.00  0.00    +0.000 A 
ATOM     13  C   UNL     1       7.508   4.767  12.385  0.00  0.00    +0.000 A 
ATOM     14  C   UNL     1       6.506   3.824  12.154  0.00  0.00    +0.000 A 
ATOM     15  C   UNL     1       5.703   3.380  13.207  0.00  0.00    +0.000 A 
ATOM     16  C   UNL     1       5.902   3.868  14.501  0.00  0.00    +0.000 A 
ENDBRANCH   8  11
ENDBRANCH   3   8
BRANCH   4  17
ATOM     17  N   UNL     1       6.015   4.497  19.262  0.00  0.00    +0.000 N 
ATOM     18  H   UNL     1       5.571   4.359  20.178  0.00  0.00    +0.000 HD
ATOM     19  H   UNL     1       6.388   3.613  18.920  0.00  0.00    +0.000 HD
ENDBRANCH   4  17
BRANCH   5  20
ATOM     20  C   UNL     1       3.416   5.701  19.942  0.00  0.00    +0.000 C 
BRANCH  20  21
ATOM     21  C   UNL     1       2.438   4.548  19.842  0.00  0.00    +0.000 A 
ATOM     22  C   UNL     1       1.849   4.122  18.643  0.00  0.00    +0.000 A 
ATOM     23  C   UNL     1       1.016   2.999  18.615  0.00  0.00    +0.000 A 
ATOM     24  C   UNL     1       0.749   2.294  19.786  0.00  0.00    +0.000 A 
ATOM     25  C   UNL     1       1.294   2.725  20.991  0.00  0.00    +0.000 A 
ATOM     26  C   UNL     1       2.128   3.845  21.021  0.00  0.00    +0.000 A 
ENDBRANCH  20  21
ENDBRANCH   5  20
TORSDOF 5
ENDMDL
MODEL 2
REMARK VINA RESULT:      -8.1      0.129      1.399
REMARK  Name = 
REMARK  7 active torsions:
REMARK  status: ('A' for Active; 'I' for Inactive)
REMARK    1  A    between atoms: C_1  and  C_2
REMARK    2  A    between atoms: C_3  and  S_4
REMARK    3  A    between atoms: S_4  and  C_7
REMARK    4  A    between atoms: C_13  and  N_14
REMARK    5  A    between atoms: N_15  and  C_16
REMARK    6  A    between atoms: C_16  and  C_17
REMARK    7  A    between atoms: C_23  and  C_24
REMARK                            x       y       z     vdW  Elec       q    Type
REMARK                         _______ _______ _______ _____ _____    ______ ____
ROOT
ATOM      1  C   UNL     1       4.652   7.267  15.325  0.00  0.00    +0.000 C 
ATOM      2  C   UNL     1       4.764   6.619  16.664  0.00  0.00    +0.000 A 
ATOM      3  C   UNL     1       5.809   5.788  17.175  0.00  0.00    +0.000 A 
ATOM      4  C   UNL     1       5.420   5.342  18.427  0.00  0.00    +0.000 A 
ATOM      5  N   UNL     1       4.211   5.934  18.730  0.00  0.00    +0.000 N 
ATOM      6  C   UNL     1       3.844   6.780  17.697  0.00  0.00    +0.000 A 
ATOM      7  C   UNL     1       2.662   7.689  17.749  0.00  0.00    +0.000 C 
ENDROOT
BRANCH   3   8
ATOM      8  S   UNL     1       7.318   5.414  16.401  0.00  0.00    +0.000 S 
ATOM      9  O   UNL     1       7.993   6.689  16.254  0.00  0.00    +0.000 OA
ATOM     10  O   UNL     1       7.899   4.337  17.184  0.00  0.00    +0.000 OA
BRANCH   8  11
ATOM     11  C   UNL     1       6.995   4.764  14.788  0.00  0.00    +0.000 A 
ATOM     12  C   UNL     1       5.938   3.855  14.643  0.00  0.00    +0.000 A 
ATOM     13  C   UNL     1       5.607   3.373  13.377  0.00  0.00    +0.000 A 
ATOM     14  C   UNL     1       6.333   3.794  12.262  0.00  0.00    +0.000 A 
ATOM     15  C   UNL     1       7.393   4.692  12.412  0.00  0.00    +0.000 A 
ATOM     16  C   UNL     1       7.727   5.183  13.676  0.00  0.00    +0.000 A 
ENDBRANCH   8  11
ENDBRANCH   3   8
BRANCH   4  17
ATOM     17  N   UNL     1       6.037   4.497  19.287  0.00  0.00    +0.000 N 
ATOM     18  H   UNL     1       5.450   4.075  20.018  0.00  0.00    +0.000 HD
ATOM     19  H   UNL     1       6.708   3.812  18.943  0.00  0.00    +0.000 HD
ENDBRANCH   4  17
BRANCH   5  20
ATOM     20  C   UNL     1       3.410   5.661  19.926  0.00  0.00    +0.000 C 
BRANCH  20  21
ATOM     21  C   UNL     1       2.511   4.446  19.841  0.00  0.00    +0.000 A 
ATOM     22  C   UNL     1       2.172   3.643  20.941  0.00  0.00    +0.000 A 
ATOM     23  C   UNL     1       1.273   2.582  20.801  0.00  0.00    +0.000 A 
ATOM     24  C   UNL     1       0.708   2.299  19.560  0.00  0.00    +0.000 A 
ATOM     25  C   UNL     1       1.060   3.061  18.451  0.00  0.00    +0.000 A 
ATOM     26  C   UNL     1       1.958   4.122  18.588  0.00  0.00    +0.000 A 
ENDBRANCH  20  21
ENDBRANCH   5  20
TORSDOF 5
ENDMDL
MODEL 3
REMARK VINA RESULT:      -7.2      1.292      1.660
REMARK  Name = 
REMARK  7 active torsions:
REMARK  status: ('A' for Active; 'I' for Inactive)
REMARK    1  A    between atoms: C_1  and  C_2
REMARK    2  A    between atoms: C_3  and  S_4
REMARK    3  A    between atoms: S_4  and  C_7
REMARK    4  A    between atoms: C_13  and  N_14
REMARK    5  A    between atoms: N_15  and  C_16
REMARK    6  A    between atoms: C_16  and  C_17
REMARK    7  A    between atoms: C_23  and  C_24
REMARK                            x       y       z     vdW  Elec       q    Type
REMARK                         _______ _______ _______ _____ _____    ______ ____
ROOT
ATOM      1  C   UNL     1       4.993   7.805  16.845  0.00  0.00    +0.000 C 
ATOM      2  C   UNL     1       4.654   6.361  17.012  0.00  0.00    +0.000 A 
ATOM      3  C   UNL     1       5.427   5.212  16.658  0.00  0.00    +0.000 A 
ATOM      4  C   UNL     1       4.654   4.090  16.912  0.00  0.00    +0.000 A 
ATOM      5  N   UNL     1       3.470   4.512  17.479  0.00  0.00    +0.000 N 
ATOM      6  C   UNL     1       3.496   5.889  17.622  0.00  0.00    +0.000 A 
ATOM      7  C   UNL     1       2.438   6.670  18.328  0.00  0.00    +0.000 C 
ENDROOT
BRANCH   3   8
ATOM      8  S   UNL     1       7.053   5.194  16.049  0.00  0.00    +0.000 S 
ATOM      9  O   UNL     1       7.536   6.551  16.222  0.00  0.00    +0.000 OA
ATOM     10  O   UNL     1       7.701   4.071  16.707  0.00  0.00    +0.000 OA
BRANCH   8  11
ATOM     11  C   UNL     1       7.019   4.829  14.319  0.00  0.00    +0.000 A 
ATOM     12  C   UNL     1       7.869   5.555  13.475  0.00  0.00    +0.000 A 
ATOM     13  C   UNL     1       7.923   5.250  12.115  0.00  0.00    +0.000 A 
ATOM     14  C   UNL     1       7.125   4.227  11.601  0.00  0.00    +0.000 A 
ATOM     15  C   UNL     1       6.269   3.513  12.444  0.00  0.00    +0.000 A 
ATOM     16  C   UNL     1       6.214   3.809  13.807  0.00  0.00    +0.000 A 
ENDBRANCH   8  11
ENDBRANCH   3   8
BRANCH   4  17
ATOM     17  N   UNL     1       4.917   2.779  16.697  0.00  0.00    +0.000 N 
ATOM     18  H   UNL     1       4.789   2.147  17.497  0.00  0.00    +0.000 HD
ATOM     19  H   UNL     1       4.602   2.324  15.841  0.00  0.00    +0.000 HD
ENDBRANCH   4  17
BRANCH   5  20
ATOM     20  C   UNL     1       2.338   3.646  17.818  0.00  0.00    +0.000 C 
BRANCH  20  21
ATOM     21  C   UNL     1       2.208   3.290  19.284  0.00  0.00    +0.000 A 
ATOM     22  C   UNL     1       1.015   3.395  20.015  0.00  0.00    +0.000 A 
ATOM     23  C   UNL     1       0.952   2.973  21.345  0.00  0.00    +0.000 A 
ATOM     24  C   UNL     1       2.082   2.451  21.971  0.00  0.00    +0.000 A 
ATOM     25  C   UNL     1       3.284   2.373  21.274  0.00  0.00    +0.000 A 
ATOM     26  C   UNL     1       3.348   2.793  19.944  0.00  0.00    +0.000 A 
ENDBRANCH  20  21
ENDBRANCH   5  20
TORSDOF 5
ENDMDL
MODEL 4
REMARK VINA RESULT:      -7.1      1.339      2.020
REMARK  Name = 
REMARK  7 active torsions:
REMARK  status: ('A' for Active; 'I' for Inactive)
REMARK    1  A    between atoms: C_1  and  C_2
REMARK    2  A    between atoms: C_3  and  S_4
REMARK    3  A    between atoms: S_4  and  C_7
REMARK    4  A    between atoms: C_13  and  N_14
REMARK    5  A    between atoms: N_15  and  C_16
REMARK    6  A    between atoms: C_16  and  C_17
REMARK    7  A    between atoms: C_23  and  C_24
REMARK                            x       y       z     vdW  Elec       q    Type
REMARK                         _______ _______ _______ _____ _____    ______ ____
ROOT
ATOM      1  C   UNL     1       4.785   7.645  16.783  0.00  0.00    +0.000 C 
ATOM      2  C   UNL     1       4.568   6.179  16.958  0.00  0.00    +0.000 A 
ATOM      3  C   UNL     1       5.447   5.097  16.641  0.00  0.00    +0.000 A 
ATOM      4  C   UNL     1       4.767   3.916  16.887  0.00  0.00    +0.000 A 
ATOM      5  N   UNL     1       3.534   4.239  17.415  0.00  0.00    +0.000 N 
ATOM      6  C   UNL     1       3.436   5.614  17.540  0.00  0.00    +0.000 A 
ATOM      7  C   UNL     1       2.294   6.308  18.206  0.00  0.00    +0.000 C 
ENDROOT
BRANCH   3   8
ATOM      8  S   UNL     1       7.086   5.214  16.080  0.00  0.00    +0.000 S 
ATOM      9  O   UNL     1       7.451   6.606  16.265  0.00  0.00    +0.000 OA
ATOM     10  O   UNL     1       7.805   4.148  16.758  0.00  0.00    +0.000 OA
BRANCH   8  11
ATOM     11  C   UNL     1       7.132   4.849  14.350  0.00  0.00    +0.000 A 
ATOM     12  C   UNL     1       6.298   3.832  13.868  0.00  0.00    +0.000 A 
ATOM     13  C   UNL     1       6.254   3.561  12.501  0.00  0.00    +0.000 A 
ATOM     14  C   UNL     1       7.045   4.301  11.621  0.00  0.00    +0.000 A 
ATOM     15  C   UNL     1       7.883   5.307  12.106  0.00  0.00    +0.000 A 
ATOM     16  C   UNL     1       7.930   5.588  13.473  0.00  0.00    +0.000 A 
ENDBRANCH   8  11
ENDBRANCH   3   8
BRANCH   4  17
ATOM     17  N   UNL     1       5.148   2.630  16.696  0.00  0.00    +0.000 N 
ATOM     18  H   UNL     1       6.004   2.481  16.146  0.00  0.00    +0.000 HD
ATOM     19  H   UNL     1       5.109   1.962  17.464  0.00  0.00    +0.000 HD
ENDBRANCH   4  17
BRANCH   5  20
ATOM     20  C   UNL     1       2.471   3.282  17.731  0.00  0.00    +0.000 C 
BRANCH  20  21
ATOM     21  C   UNL     1       2.280   2.987  19.204  0.00  0.00    +0.000 A 
ATOM     22  C   UNL     1       3.313   2.581  20.063  0.00  0.00    +0.000 A 
ATOM     23  C   UNL     1       3.078   2.404  21.429  0.00  0.00    +0.000 A 
ATOM     24  C   UNL     1       1.806   2.616  21.957  0.00  0.00    +0.000 A 
ATOM     25  C   UNL     1       0.762   2.983  21.115  0.00  0.00    +0.000 A 
ATOM     26  C   UNL     1       0.995   3.162  19.750  0.00  0.00    +0.000 A 
ENDBRANCH  20  21
ENDBRANCH   5  20
TORSDOF 5
ENDMDL
MODEL 5
REMARK VINA RESULT:      -6.8      2.635      7.058
REMARK  Name = 
REMARK  7 active torsions:
REMARK  status: ('A' for Active; 'I' for Inactive)
REMARK    1  A    between atoms: C_1  and  C_2
REMARK    2  A    between atoms: C_3  and  S_4
REMARK    3  A    between atoms: S_4  and  C_7
REMARK    4  A    between atoms: C_13  and  N_14
REMARK    5  A    between atoms: N_15  and  C_16
REMARK    6  A    between atoms: C_16  and  C_17
REMARK    7  A    between atoms: C_23  and  C_24
REMARK                            x       y       z     vdW  Elec       q    Type
REMARK                         _______ _______ _______ _____ _____    ______ ____
ROOT
ATOM      1  C   UNL     1       3.011   6.682  18.309  0.00  0.00    +0.000 C 
ATOM      2  C   UNL     1       3.854   5.686  17.584  0.00  0.00    +0.000 A 
ATOM      3  C   UNL     1       3.589   4.306  17.323  0.00  0.00    +0.000 A 
ATOM      4  C   UNL     1       4.708   3.771  16.707  0.00  0.00    +0.000 A 
ATOM      5  N   UNL     1       5.613   4.794  16.514  0.00  0.00    +0.000 N 
ATOM      6  C   UNL     1       5.068   5.981  16.969  0.00  0.00    +0.000 A 
ATOM      7  C   UNL     1       5.714   7.315  16.790  0.00  0.00    +0.000 C 
ENDROOT
BRANCH   3   8
ATOM      8  S   UNL     1       2.125   3.440  17.673  0.00  0.00    +0.000 S 
ATOM      9  O   UNL     1       1.054   4.379  17.398  0.00  0.00    +0.000 OA
ATOM     10  O   UNL     1       2.235   2.185  16.949  0.00  0.00    +0.000 OA
BRANCH   8  11
ATOM     11  C   UNL     1       2.088   3.041  19.396  0.00  0.00    +0.000 A 
ATOM     12  C   UNL     1       3.277   2.607  19.998  0.00  0.00    +0.000 A 
ATOM     13  C   UNL     1       3.307   2.349  21.368  0.00  0.00    +0.000 A 
ATOM     14  C   UNL     1       2.151   2.519  22.131  0.00  0.00    +0.000 A 
ATOM     15  C   UNL     1       0.964   2.940  21.526  0.00  0.00    +0.000 A 
ATOM     16  C   UNL     1       0.928   3.205  20.155  0.00  0.00    +0.000 A 
ENDBRANCH   8  11
ENDBRANCH   3   8
BRANCH   4  17
ATOM     17  N   UNL     1       4.967   2.502  16.311  0.00  0.00    +0.000 N 
ATOM     18  H   UNL     1       4.185   1.837  16.359  0.00  0.00    +0.000 HD
ATOM     19  H   UNL     1       5.521   2.326  15.475  0.00  0.00    +0.000 HD
ENDBRANCH   4  17
BRANCH   5  20
ATOM     20  C   UNL     1       6.966   4.636  15.973  0.00  0.00    +0.000 C 
BRANCH  20  21
ATOM     21  C   UNL     1       7.069   4.671  14.462  0.00  0.00    +0.000 A 
ATOM     22  C   UNL     1       7.898   5.553  13.753  0.00  0.00    +0.000 A 
ATOM     23  C   UNL     1       8.001   5.474  12.361  0.00  0.00    +0.000 A 
ATOM     24  C   UNL     1       7.267   4.523  11.655  0.00  0.00    +0.000 A 
ATOM     25  C   UNL     1       6.411   3.665  12.338  0.00  0.00    +0.000 A 
ATOM     26  C   UNL     1       6.308   3.741  13.729  0.00  0.00    +0.000 A 
ENDBRANCH  20  21
ENDBRANCH   5  20
TORSDOF 5
ENDMDL
MODEL 6
REMARK VINA RESULT:      -6.7      4.571      7.996
REMARK  Name = 
REMARK  7 active torsions:
REMARK  status: ('A' for Active; 'I' for Inactive)
REMARK    1  A    between atoms: C_1  and  C_2
REMARK    2  A    between atoms: C_3  and  S_4
REMARK    3  A    between atoms: S_4  and  C_7
REMARK    4  A    between atoms: C_13  and  N_14
REMARK    5  A    between atoms: N_15  and  C_16
REMARK    6  A    between atoms: C_16  and  C_17
REMARK    7  A    between atoms: C_23  and  C_24
REMARK                            x       y       z     vdW  Elec       q    Type
REMARK                         _______ _______ _______ _____ _____    ______ ____
ROOT
ATOM      1  C   UNL     1       0.363   8.083  21.666  0.00  0.00    +0.000 C 
ATOM      2  C   UNL     1       1.196   7.960  20.434  0.00  0.00    +0.000 A 
ATOM      3  C   UNL     1       1.463   8.940  19.429  0.00  0.00    +0.000 A 
ATOM      4  C   UNL     1       2.204   8.329  18.431  0.00  0.00    +0.000 A 
ATOM      5  N   UNL     1       2.465   7.035  18.830  0.00  0.00    +0.000 N 
ATOM      6  C   UNL     1       1.926   6.826  20.087  0.00  0.00    +0.000 A 
ATOM      7  C   UNL     1       2.137   5.582  20.885  0.00  0.00    +0.000 C 
ENDROOT
BRANCH   3   8
ATOM      8  S   UNL     1       0.985  10.609  19.446  0.00  0.00    +0.000 S 
ATOM      9  O   UNL     1       1.004  10.994  20.844  0.00  0.00    +0.000 OA
ATOM     10  O   UNL     1       1.837  11.267  18.469  0.00  0.00    +0.000 OA
BRANCH   8  11
ATOM     11  C   UNL     1      -0.677  10.740  18.853  0.00  0.00    +0.000 A 
ATOM     12  C   UNL     1      -1.526  11.667  19.472  0.00  0.00    +0.000 A 
ATOM     13  C   UNL     1      -2.821  11.851  18.989  0.00  0.00    +0.000 A 
ATOM     14  C   UNL     1      -3.267  11.106  17.896  0.00  0.00    +0.000 A 
ATOM     15  C   UNL     1      -2.421  10.175  17.288  0.00  0.00    +0.000 A 
ATOM     16  C   UNL     1      -1.120   9.989  17.763  0.00  0.00    +0.000 A 
ENDBRANCH   8  11
ENDBRANCH   3   8
BRANCH   4  17
ATOM     17  N   UNL     1       2.657   8.819  17.252  0.00  0.00    +0.000 N 
ATOM     18  H   UNL     1       3.672   8.781  17.097  0.00  0.00    +0.000 HD
ATOM     19  H   UNL     1       2.165   8.610  16.385  0.00  0.00    +0.000 HD
ENDBRANCH   4  17
BRANCH   5  20
ATOM     20  C   UNL     1       3.147   6.021  18.021  0.00  0.00    +0.000 C 
BRANCH  20  21
ATOM     21  C   UNL     1       4.660   6.053  18.081  0.00  0.00    +0.000 A 
ATOM     22  C   UNL     1       5.465   6.753  17.170  0.00  0.00    +0.000 A 
ATOM     23  C   UNL     1       6.852   6.803  17.334  0.00  0.00    +0.000 A 
ATOM     24  C   UNL     1       7.457   6.144  18.402  0.00  0.00    +0.000 A 
ATOM     25  C   UNL     1       6.678   5.414  19.294  0.00  0.00    +0.000 A 
ATOM     26  C   UNL     1       5.292   5.365  19.133  0.00  0.00    +0.000 A 
ENDBRANCH  20  21
ENDBRANCH   5  20
TORSDOF 5
ENDMDL
MODEL 7
REMARK VINA RESULT:      -6.6      4.595      8.056
REMARK  Name = 
REMARK  7 active torsions:
REMARK  status: ('A' for Active; 'I' for Inactive)
REMARK    1  A    between atoms: C_1  and  C_2
REMARK    2  A    between atoms: C_3  and  S_4
REMARK    3  A    between atoms: S_4  and  C_7
REMARK    4  A    between atoms: C_13  and  N_14
REMARK    5  A    between atoms: N_15  and  C_16
REMARK    6  A    between atoms: C_16  and  C_17
REMARK    7  A    between atoms: C_23  and  C_24
REMARK                            x       y       z     vdW  Elec       q    Type
REMARK                         _______ _______ _______ _____ _____    ______ ____
ROOT
ATOM      1  C   UNL     1       0.283   8.164  21.648  0.00  0.00    +0.000 C 
ATOM      2  C   UNL     1       1.132   8.040  20.427  0.00  0.00    +0.000 A 
ATOM      3  C   UNL     1       1.421   9.023  19.430  0.00  0.00    +0.000 A 
ATOM      4  C   UNL     1       2.172   8.412  18.440  0.00  0.00    +0.000 A 
ATOM      5  N   UNL     1       2.416   7.113  18.836  0.00  0.00    +0.000 N 
ATOM      6  C   UNL     1       1.858   6.902  20.084  0.00  0.00    +0.000 A 
ATOM      7  C   UNL     1       2.048   5.653  20.878  0.00  0.00    +0.000 C 
ENDROOT
BRANCH   3   8
ATOM      8  S   UNL     1       0.956  10.696  19.449  0.00  0.00    +0.000 S 
ATOM      9  O   UNL     1       0.952  11.072  20.850  0.00  0.00    +0.000 OA
ATOM     10  O   UNL     1       1.831  11.353  18.493  0.00  0.00    +0.000 OA
BRANCH   8  11
ATOM     11  C   UNL     1      -0.693  10.844  18.826  0.00  0.00    +0.000 A 
ATOM     12  C   UNL     1      -1.081   9.997  17.780  0.00  0.00    +0.000 A 
ATOM     13  C   UNL     1      -2.393  10.034  17.308  0.00  0.00    +0.000 A 
ATOM     14  C   UNL     1      -3.310  10.919  17.876  0.00  0.00    +0.000 A 
ATOM     15  C   UNL     1      -2.917  11.771  18.912  0.00  0.00    +0.000 A 
ATOM     16  C   UNL     1      -1.606  11.736  19.393  0.00  0.00    +0.000 A 
ENDBRANCH   8  11
ENDBRANCH   3   8
BRANCH   4  17
ATOM     17  N   UNL     1       2.645   8.904  17.270  0.00  0.00    +0.000 N 
ATOM     18  H   UNL     1       1.950   9.095  16.537  0.00  0.00    +0.000 HD
ATOM     19  H   UNL     1       3.360   9.630  17.268  0.00  0.00    +0.000 HD
ENDBRANCH   4  17
BRANCH   5  20
ATOM     20  C   UNL     1       3.102   6.098  18.032  0.00  0.00    +0.000 C 
BRANCH  20  21
ATOM     21  C   UNL     1       4.610   6.070  18.171  0.00  0.00    +0.000 A 
ATOM     22  C   UNL     1       5.290   5.404  19.201  0.00  0.00    +0.000 A 
ATOM     23  C   UNL     1       6.687   5.354  19.221  0.00  0.00    +0.000 A 
ATOM     24  C   UNL     1       7.426   5.979  18.219  0.00  0.00    +0.000 A 
ATOM     25  C   UNL     1       6.769   6.676  17.209  0.00  0.00    +0.000 A 
ATOM     26  C   UNL     1       5.374   6.725  17.187  0.00  0.00    +0.000 A 
ENDBRANCH  20  21
ENDBRANCH   5  20
TORSDOF 5
ENDMDL
MODEL 8
REMARK VINA RESULT:      -6.6      4.820      7.427
REMARK  Name = 
REMARK  7 active torsions:
REMARK  status: ('A' for Active; 'I' for Inactive)
REMARK    1  A    between atoms: C_1  and  C_2
REMARK    2  A    between atoms: C_3  and  S_4
REMARK    3  A    between atoms: S_4  and  C_7
REMARK    4  A    between atoms: C_13  and  N_14
REMARK    5  A    between atoms: N_15  and  C_16
REMARK    6  A    between atoms: C_16  and  C_17
REMARK    7  A    between atoms: C_23  and  C_24
REMARK                            x       y       z     vdW  Elec       q    Type
REMARK                         _______ _______ _______ _____ _____    ______ ____
ROOT
ATOM      1  C   UNL     1       2.149  10.240  17.535  0.00  0.00    +0.000 C 
ATOM      2  C   UNL     1       2.069   9.125  18.524  0.00  0.00    +0.000 A 
ATOM      3  C   UNL     1       1.312   9.050  19.734  0.00  0.00    +0.000 A 
ATOM      4  C   UNL     1       1.639   7.861  20.364  0.00  0.00    +0.000 A 
ATOM      5  N   UNL     1       2.508   7.173  19.543  0.00  0.00    +0.000 N 
ATOM      6  C   UNL     1       2.710   7.898  18.381  0.00  0.00    +0.000 A 
ATOM      7  C   UNL     1       3.484   7.389  17.210  0.00  0.00    +0.000 C 
ENDROOT
BRANCH   3   8
ATOM      8  S   UNL     1       0.159  10.211  20.317  0.00  0.00    +0.000 S 
ATOM      9  O   UNL     1      -0.468   9.580  21.462  0.00  0.00    +0.000 OA
ATOM     10  O   UNL     1       0.896  11.457  20.449  0.00  0.00    +0.000 OA
BRANCH   8  11
ATOM     11  C   UNL     1      -1.076  10.471  19.077  0.00  0.00    +0.000 A 
ATOM     12  C   UNL     1      -1.915  11.586  19.207  0.00  0.00    +0.000 A 
ATOM     13  C   UNL     1      -2.855  11.865  18.215  0.00  0.00    +0.000 A 
ATOM     14  C   UNL     1      -2.959  11.030  17.102  0.00  0.00    +0.000 A 
ATOM     15  C   UNL     1      -2.128   9.913  16.982  0.00  0.00    +0.000 A 
ATOM     16  C   UNL     1      -1.181   9.630  17.968  0.00  0.00    +0.000 A 
ENDBRANCH   8  11
ENDBRANCH   3   8
BRANCH   4  17
ATOM     17  N   UNL     1       1.231   7.359  21.554  0.00  0.00    +0.000 N 
ATOM     18  H   UNL     1       1.838   6.653  21.987  0.00  0.00    +0.000 HD
ATOM     19  H   UNL     1       0.850   7.976  22.269  0.00  0.00    +0.000 HD
ENDBRANCH   4  17
BRANCH   5  20
ATOM     20  C   UNL     1       3.165   5.907  19.877  0.00  0.00    +0.000 C 
BRANCH  20  21
ATOM     21  C   UNL     1       2.378   4.658  19.540  0.00  0.00    +0.000 A 
ATOM     22  C   UNL     1       1.413   4.088  20.383  0.00  0.00    +0.000 A 
ATOM     23  C   UNL     1       0.668   2.980  19.971  0.00  0.00    +0.000 A 
ATOM     24  C   UNL     1       0.885   2.415  18.716  0.00  0.00    +0.000 A 
ATOM     25  C   UNL     1       1.863   2.944  17.880  0.00  0.00    +0.000 A 
ATOM     26  C   UNL     1       2.607   4.053  18.290  0.00  0.00    +0.000 A 
ENDBRANCH  20  21
ENDBRANCH   5  20
TORSDOF 5
ENDMDL
MODEL 9
REMARK VINA RESULT:      -6.6      2.369      6.811
REMARK  Name = 
REMARK  7 active torsions:
REMARK  status: ('A' for Active; 'I' for Inactive)
REMARK    1  A    between atoms: C_1  and  C_2
REMARK    2  A    between atoms: C_3  and  S_4
REMARK    3  A    between atoms: S_4  and  C_7
REMARK    4  A    between atoms: C_13  and  N_14
REMARK    5  A    between atoms: N_15  and  C_16
REMARK    6  A    between atoms: C_16  and  C_17
REMARK    7  A    between atoms: C_23  and  C_24
REMARK                            x       y       z     vdW  Elec       q    Type
REMARK                         _______ _______ _______ _____ _____    ______ ____
ROOT
ATOM      1  C   UNL     1       5.205   4.024  19.644  0.00  0.00    +0.000 C 
ATOM      2  C   UNL     1       5.344   4.892  18.438  0.00  0.00    +0.000 A 
ATOM      3  C   UNL     1       4.405   5.815  17.883  0.00  0.00    +0.000 A 
ATOM      4  C   UNL     1       4.945   6.309  16.707  0.00  0.00    +0.000 A 
ATOM      5  N   UNL     1       6.210   5.780  16.567  0.00  0.00    +0.000 N 
ATOM      6  C   UNL     1       6.495   4.980  17.660  0.00  0.00    +0.000 A 
ATOM      7  C   UNL     1       7.830   4.359  17.909  0.00  0.00    +0.000 C 
ENDROOT
BRANCH   3   8
ATOM      8  S   UNL     1       2.873   6.277  18.556  0.00  0.00    +0.000 S 
ATOM      9  O   UNL     1       3.197   7.038  19.748  0.00  0.00    +0.000 OA
ATOM     10  O   UNL     1       2.130   6.872  17.458  0.00  0.00    +0.000 OA
BRANCH   8  11
ATOM     11  C   UNL     1       1.994   4.821  19.045  0.00  0.00    +0.000 A 
ATOM     12  C   UNL     1       1.720   3.857  18.066  0.00  0.00    +0.000 A 
ATOM     13  C   UNL     1       1.091   2.665  18.424  0.00  0.00    +0.000 A 
ATOM     14  C   UNL     1       0.733   2.441  19.754  0.00  0.00    +0.000 A 
ATOM     15  C   UNL     1       0.998   3.410  20.726  0.00  0.00    +0.000 A 
ATOM     16  C   UNL     1       1.632   4.604  20.376  0.00  0.00    +0.000 A 
ENDBRANCH   8  11
ENDBRANCH   3   8
BRANCH   4  17
ATOM     17  N   UNL     1       4.424   7.167  15.797  0.00  0.00    +0.000 N 
ATOM     18  H   UNL     1       4.920   8.058  15.668  0.00  0.00    +0.000 HD
ATOM     19  H   UNL     1       4.088   6.823  14.899  0.00  0.00    +0.000 HD
ENDBRANCH   4  17
BRANCH   5  20
ATOM     20  C   UNL     1       7.089   5.979  15.411  0.00  0.00    +0.000 C 
BRANCH  20  21
ATOM     21  C   UNL     1       6.842   5.051  14.240  0.00  0.00    +0.000 A 
ATOM     22  C   UNL     1       5.804   4.109  14.191  0.00  0.00    +0.000 A 
ATOM     23  C   UNL     1       5.588   3.341  13.044  0.00  0.00    +0.000 A 
ATOM     24  C   UNL     1       6.414   3.493  11.932  0.00  0.00    +0.000 A 
ATOM     25  C   UNL     1       7.472   4.395  11.976  0.00  0.00    +0.000 A 
ATOM     26  C   UNL     1       7.688   5.164  13.121  0.00  0.00    +0.000 A 
ENDBRANCH  20  21
ENDBRANCH   5  20
TORSDOF 5
ENDMDL
