MODEL 1
REMARK VINA RESULT:      -7.2      0.000      0.000
REMARK  Name = 
REMARK  6 active torsions:
REMARK  status: ('A' for Active; 'I' for Inactive)
REMARK    1  A    between atoms: C_1  and  O_2
REMARK    2  A    between atoms: O_2  and  C_3
REMARK    3  A    between atoms: C_3  and  C_5
REMARK    4  A    between atoms: C_6  and  C_7
REMARK    5  A    between atoms: N_24  and  C_25
REMARK    6  A    between atoms: C_25  and  C_26
REMARK                            x       y       z     vdW  Elec       q    Type
REMARK                         _______ _______ _______ _____ _____    ______ ____
ROOT
ATOM      1  C   UNL     1       0.891  10.212  20.700  0.00  0.00    +0.000 C 
ATOM      2  C   UNL     1       1.252   9.443  19.635  0.00  0.00    +0.000 C 
ATOM      3  C   UNL     1       1.216  10.058  18.228  0.00  0.00    +0.000 C 
ATOM      4  C   UNL     1       0.879  11.567  18.240  0.00  0.00    +0.000 C 
ATOM      5  C   UNL     1       2.065  12.367  18.806  0.00  0.00    +0.000 C 
ATOM      6  C   UNL     1       1.771  12.490  20.310  0.00  0.00    +0.000 C 
ATOM      7  C   UNL     1       0.493  11.665  20.525  0.00  0.00    +0.000 C 
ATOM      8  N   UNL     1      -0.164  11.788  19.234  0.00  0.00    +0.000 N 
ATOM      9  C   UNL     1      -1.476  11.957  18.899  0.00  0.00    +0.000 C 
ATOM     10  O   UNL     1      -1.831  12.042  17.716  0.00  0.00    +0.000 OA
ATOM     11  N   UNL     1      -2.377  12.051  19.914  0.00  0.00    +0.000 N 
ATOM     12  H   UNL     1      -2.097  11.963  20.877  0.00  0.00    +0.000 HD
ENDROOT
BRANCH   2  13
ATOM     13  C   UNL     1       1.656   8.086  19.824  0.00  0.00    +0.000 A 
ATOM     14  C   UNL     1       1.091   7.112  20.643  0.00  0.00    +0.000 A 
ATOM     15  C   UNL     1       1.819   5.910  20.464  0.00  0.00    +0.000 A 
ATOM     16  C   UNL     1       1.744   4.602  20.972  0.00  0.00    +0.000 A 
ATOM     17  C   UNL     1       2.671   3.655  20.515  0.00  0.00    +0.000 A 
ATOM     18  C   UNL     1       3.650   3.996  19.580  0.00  0.00    +0.000 A 
ATOM     19  C   UNL     1       3.738   5.293  19.064  0.00  0.00    +0.000 A 
ATOM     20  C   UNL     1       2.803   6.210  19.536  0.00  0.00    +0.000 A 
ATOM     21  O   UNL     1       2.710   7.512  19.148  0.00  0.00    +0.000 OA
ENDBRANCH   2  13
BRANCH   1  22
ATOM     22  C   UNL     1       0.844   9.714  22.108  0.00  0.00    +0.000 C 
ATOM     23  O   UNL     1       1.810   9.547  22.823  0.00  0.00    +0.000 OA
BRANCH  22  25
ATOM     24  C   UNL     1      -1.089  10.419  23.243  0.00  0.00    +0.000 C 
ATOM     25  O   UNL     1      -0.437   9.412  22.460  0.00  0.00    +0.000 OA
ENDBRANCH  22  25
ENDBRANCH   1  22
BRANCH  11  26
ATOM     26  C   UNL     1      -3.789  12.270  19.639  0.00  0.00    +0.000 C 
BRANCH  26  27
ATOM     27  C   UNL     1      -4.541  12.603  20.882  0.00  0.00    +0.000 A 
ATOM     28  C   UNL     1      -4.139  12.961  22.155  0.00  0.00    +0.000 A 
ATOM     29  C   UNL     1      -5.312  13.055  22.941  0.00  0.00    +0.000 A 
ATOM     30  C   UNL     1      -6.356  12.742  22.105  0.00  0.00    +0.000 A 
ATOM     31  O   UNL     1      -5.902  12.469  20.852  0.00  0.00    +0.000 OA
ENDBRANCH  26  27
ENDBRANCH  11  26
TORSDOF 5
ENDMDL
MODEL 2
REMARK VINA RESULT:      -7.2      3.818      7.654
REMARK  Name = 
REMARK  6 active torsions:
REMARK  status: ('A' for Active; 'I' for Inactive)
REMARK    1  A    between atoms: C_1  and  O_2
REMARK    2  A    between atoms: O_2  and  C_3
REMARK    3  A    between atoms: C_3  and  C_5
REMARK    4  A    between atoms: C_6  and  C_7
REMARK    5  A    between atoms: N_24  and  C_25
REMARK    6  A    between atoms: C_25  and  C_26
REMARK                            x       y       z     vdW  Elec       q    Type
REMARK                         _______ _______ _______ _____ _____    ______ ____
ROOT
ATOM      1  C   UNL     1      -1.575  13.588  20.731  0.00  0.00    +0.000 C 
ATOM      2  C   UNL     1      -1.502  14.946  20.819  0.00  0.00    +0.000 C 
ATOM      3  C   UNL     1      -2.161  15.650  22.015  0.00  0.00    +0.000 C 
ATOM      4  C   UNL     1      -2.730  14.659  23.056  0.00  0.00    +0.000 C 
ATOM      5  C   UNL     1      -1.580  13.966  23.808  0.00  0.00    +0.000 C 
ATOM      6  C   UNL     1      -1.318  12.675  23.015  0.00  0.00    +0.000 C 
ATOM      7  C   UNL     1      -2.260  12.764  21.805  0.00  0.00    +0.000 C 
ATOM      8  N   UNL     1      -3.356  13.558  22.336  0.00  0.00    +0.000 N 
ATOM      9  C   UNL     1      -4.707  13.460  22.170  0.00  0.00    +0.000 C 
ATOM     10  O   UNL     1      -5.481  14.251  22.723  0.00  0.00    +0.000 OA
ATOM     11  N   UNL     1      -5.173  12.446  21.390  0.00  0.00    +0.000 N 
ATOM     12  H   UNL     1      -4.548  11.812  20.921  0.00  0.00    +0.000 HD
ENDROOT
BRANCH   2  13
ATOM     13  C   UNL     1      -0.823  15.702  19.815  0.00  0.00    +0.000 A 
ATOM     14  C   UNL     1      -1.336  16.671  18.956  0.00  0.00    +0.000 A 
ATOM     15  C   UNL     1      -0.270  17.165  18.164  0.00  0.00    +0.000 A 
ATOM     16  C   UNL     1      -0.129  18.132  17.155  0.00  0.00    +0.000 A 
ATOM     17  C   UNL     1       1.145  18.351  16.613  0.00  0.00    +0.000 A 
ATOM     18  C   UNL     1       2.253  17.627  17.059  0.00  0.00    +0.000 A 
ATOM     19  C   UNL     1       2.130  16.662  18.063  0.00  0.00    +0.000 A 
ATOM     20  C   UNL     1       0.853  16.468  18.582  0.00  0.00    +0.000 A 
ATOM     21  O   UNL     1       0.527  15.591  19.571  0.00  0.00    +0.000 OA
ENDBRANCH   2  13
BRANCH   1  22
ATOM     22  C   UNL     1      -1.013  12.797  19.595  0.00  0.00    +0.000 C 
ATOM     23  O   UNL     1      -1.589  12.565  18.553  0.00  0.00    +0.000 OA
BRANCH  22  25
ATOM     24  C   UNL     1       0.350  10.895  19.805  0.00  0.00    +0.000 C 
ATOM     25  O   UNL     1       0.220  12.317  19.918  0.00  0.00    +0.000 OA
ENDBRANCH  22  25
ENDBRANCH   1  22
BRANCH  11  26
ATOM     26  C   UNL     1      -6.601  12.253  21.196  0.00  0.00    +0.000 C 
BRANCH  26  27
ATOM     27  C   UNL     1      -6.898  10.896  20.653  0.00  0.00    +0.000 A 
ATOM     28  C   UNL     1      -6.747  10.332  19.401  0.00  0.00    +0.000 A 
ATOM     29  C   UNL     1      -7.300   9.032  19.469  0.00  0.00    +0.000 A 
ATOM     30  C   UNL     1      -7.762   8.883  20.755  0.00  0.00    +0.000 A 
ATOM     31  O   UNL     1      -7.521  10.006  21.484  0.00  0.00    +0.000 OA
ENDBRANCH  26  27
ENDBRANCH  11  26
TORSDOF 5
ENDMDL
MODEL 3
REMARK VINA RESULT:      -7.2      1.253      1.853
REMARK  Name = 
REMARK  6 active torsions:
REMARK  status: ('A' for Active; 'I' for Inactive)
REMARK    1  A    between atoms: C_1  and  O_2
REMARK    2  A    between atoms: O_2  and  C_3
REMARK    3  A    between atoms: C_3  and  C_5
REMARK    4  A    between atoms: C_6  and  C_7
REMARK    5  A    between atoms: N_24  and  C_25
REMARK    6  A    between atoms: C_25  and  C_26
REMARK                            x       y       z     vdW  Elec       q    Type
REMARK                         _______ _______ _______ _____ _____    ______ ____
ROOT
ATOM      1  C   UNL     1       0.408   9.757  20.314  0.00  0.00    +0.000 C 
ATOM      2  C   UNL     1       1.234   9.460  19.272  0.00  0.00    +0.000 C 
ATOM      3  C   UNL     1       1.532  10.546  18.227  0.00  0.00    +0.000 C 
ATOM      4  C   UNL     1       0.921  11.917  18.593  0.00  0.00    +0.000 C 
ATOM      5  C   UNL     1       1.681  12.533  19.780  0.00  0.00    +0.000 C 
ATOM      6  C   UNL     1       0.902  12.074  21.024  0.00  0.00    +0.000 C 
ATOM      7  C   UNL     1      -0.189  11.143  20.477  0.00  0.00    +0.000 C 
ATOM      8  N   UNL     1      -0.408  11.686  19.146  0.00  0.00    +0.000 N 
ATOM      9  C   UNL     1      -1.549  11.876  18.423  0.00  0.00    +0.000 C 
ATOM     10  O   UNL     1      -1.516  12.365  17.287  0.00  0.00    +0.000 OA
ATOM     11  N   UNL     1      -2.729  11.528  19.006  0.00  0.00    +0.000 N 
ATOM     12  H   UNL     1      -2.761  11.111  19.922  0.00  0.00    +0.000 HD
ENDROOT
BRANCH   2  13
ATOM     13  C   UNL     1       1.814   8.160  19.155  0.00  0.00    +0.000 A 
ATOM     14  C   UNL     1       2.481   7.596  18.070  0.00  0.00    +0.000 A 
ATOM     15  C   UNL     1       2.907   6.298  18.443  0.00  0.00    +0.000 A 
ATOM     16  C   UNL     1       3.621   5.256  17.827  0.00  0.00    +0.000 A 
ATOM     17  C   UNL     1       3.866   4.088  18.563  0.00  0.00    +0.000 A 
ATOM     18  C   UNL     1       3.414   3.955  19.877  0.00  0.00    +0.000 A 
ATOM     19  C   UNL     1       2.703   4.982  20.506  0.00  0.00    +0.000 A 
ATOM     20  C   UNL     1       2.475   6.129  19.749  0.00  0.00    +0.000 A 
ATOM     21  O   UNL     1       1.821   7.242  20.181  0.00  0.00    +0.000 OA
ENDBRANCH   2  13
BRANCH   1  22
ATOM     22  C   UNL     1       0.010   8.775  21.366  0.00  0.00    +0.000 C 
ATOM     23  O   UNL     1      -0.906   7.984  21.273  0.00  0.00    +0.000 OA
BRANCH  22  25
ATOM     24  C   UNL     1       0.093   9.482  23.605  0.00  0.00    +0.000 C 
ATOM     25  O   UNL     1       0.782   8.932  22.477  0.00  0.00    +0.000 OA
ENDBRANCH  22  25
ENDBRANCH   1  22
BRANCH  11  26
ATOM     26  C   UNL     1      -3.992  11.735  18.314  0.00  0.00    +0.000 C 
BRANCH  26  27
ATOM     27  C   UNL     1      -5.147  11.655  19.253  0.00  0.00    +0.000 A 
ATOM     28  C   UNL     1      -6.371  11.018  19.183  0.00  0.00    +0.000 A 
ATOM     29  C   UNL     1      -7.091  11.390  20.343  0.00  0.00    +0.000 A 
ATOM     30  C   UNL     1      -6.267  12.236  21.046  0.00  0.00    +0.000 A 
ATOM     31  O   UNL     1      -5.084  12.401  20.398  0.00  0.00    +0.000 OA
ENDBRANCH  26  27
ENDBRANCH  11  26
TORSDOF 5
ENDMDL
MODEL 4
REMARK VINA RESULT:      -7.1      3.197      5.536
REMARK  Name = 
REMARK  6 active torsions:
REMARK  status: ('A' for Active; 'I' for Inactive)
REMARK    1  A    between atoms: C_1  and  O_2
REMARK    2  A    between atoms: O_2  and  C_3
REMARK    3  A    between atoms: C_3  and  C_5
REMARK    4  A    between atoms: C_6  and  C_7
REMARK    5  A    between atoms: N_24  and  C_25
REMARK    6  A    between atoms: C_25  and  C_26
REMARK                            x       y       z     vdW  Elec       q    Type
REMARK                         _______ _______ _______ _____ _____    ______ ____
ROOT
ATOM      1  C   UNL     1      -2.075  12.250  19.971  0.00  0.00    +0.000 C 
ATOM      2  C   UNL     1      -1.090  11.787  20.791  0.00  0.00    +0.000 C 
ATOM      3  C   UNL     1      -0.963  12.374  22.204  0.00  0.00    +0.000 C 
ATOM      4  C   UNL     1      -2.102  13.361  22.550  0.00  0.00    +0.000 C 
ATOM      5  C   UNL     1      -3.423  12.596  22.741  0.00  0.00    +0.000 C 
ATOM      6  C   UNL     1      -4.091  12.618  21.356  0.00  0.00    +0.000 C 
ATOM      7  C   UNL     1      -3.064  13.301  20.440  0.00  0.00    +0.000 C 
ATOM      8  N   UNL     1      -2.367  14.175  21.370  0.00  0.00    +0.000 N 
ATOM      9  C   UNL     1      -1.908  15.453  21.238  0.00  0.00    +0.000 C 
ATOM     10  O   UNL     1      -1.331  16.027  22.171  0.00  0.00    +0.000 OA
ATOM     11  N   UNL     1      -2.126  16.081  20.051  0.00  0.00    +0.000 N 
ATOM     12  H   UNL     1      -2.576  15.612  19.282  0.00  0.00    +0.000 HD
ENDROOT
BRANCH   2  13
ATOM     13  C   UNL     1      -0.190  10.773  20.342  0.00  0.00    +0.000 A 
ATOM     14  C   UNL     1       0.177   9.588  20.975  0.00  0.00    +0.000 A 
ATOM     15  C   UNL     1       1.067   8.891  20.122  0.00  0.00    +0.000 A 
ATOM     16  C   UNL     1       1.759   7.669  20.169  0.00  0.00    +0.000 A 
ATOM     17  C   UNL     1       2.558   7.311  19.074  0.00  0.00    +0.000 A 
ATOM     18  C   UNL     1       2.671   8.145  17.960  0.00  0.00    +0.000 A 
ATOM     19  C   UNL     1       1.989   9.364  17.896  0.00  0.00    +0.000 A 
ATOM     20  C   UNL     1       1.203   9.691  18.998  0.00  0.00    +0.000 A 
ATOM     21  O   UNL     1       0.451  10.819  19.124  0.00  0.00    +0.000 OA
ENDBRANCH   2  13
BRANCH   1  22
ATOM     22  C   UNL     1      -2.270  11.789  18.563  0.00  0.00    +0.000 C 
ATOM     23  O   UNL     1      -1.700  12.244  17.594  0.00  0.00    +0.000 OA
BRANCH  22  25
ATOM     24  C   UNL     1      -4.360  11.156  17.696  0.00  0.00    +0.000 C 
ATOM     25  O   UNL     1      -3.229  10.824  18.510  0.00  0.00    +0.000 OA
ENDBRANCH  22  25
ENDBRANCH   1  22
BRANCH  11  26
ATOM     26  C   UNL     1      -1.699  17.456  19.846  0.00  0.00    +0.000 C 
BRANCH  26  27
ATOM     27  C   UNL     1      -0.529  17.533  18.926  0.00  0.00    +0.000 A 
ATOM     28  C   UNL     1      -0.347  18.113  17.685  0.00  0.00    +0.000 A 
ATOM     29  C   UNL     1       0.958  17.767  17.261  0.00  0.00    +0.000 A 
ATOM     30  C   UNL     1       1.490  16.992  18.263  0.00  0.00    +0.000 A 
ATOM     31  O   UNL     1       0.599  16.846  19.280  0.00  0.00    +0.000 OA
ENDBRANCH  26  27
ENDBRANCH  11  26
TORSDOF 5
ENDMDL
MODEL 5
REMARK VINA RESULT:      -7.1      3.098      5.406
REMARK  Name = 
REMARK  6 active torsions:
REMARK  status: ('A' for Active; 'I' for Inactive)
REMARK    1  A    between atoms: C_1  and  O_2
REMARK    2  A    between atoms: O_2  and  C_3
REMARK    3  A    between atoms: C_3  and  C_5
REMARK    4  A    between atoms: C_6  and  C_7
REMARK    5  A    between atoms: N_24  and  C_25
REMARK    6  A    between atoms: C_25  and  C_26
REMARK                            x       y       z     vdW  Elec       q    Type
REMARK                         _______ _______ _______ _____ _____    ______ ____
ROOT
ATOM      1  C   UNL     1      -1.587  11.985  19.765  0.00  0.00    +0.000 C 
ATOM      2  C   UNL     1      -0.583  11.539  20.570  0.00  0.00    +0.000 C 
ATOM      3  C   UNL     1      -0.357  12.225  21.926  0.00  0.00    +0.000 C 
ATOM      4  C   UNL     1      -1.431  13.289  22.248  0.00  0.00    +0.000 C 
ATOM      5  C   UNL     1      -2.773  12.605  22.561  0.00  0.00    +0.000 C 
ATOM      6  C   UNL     1      -3.510  12.554  21.212  0.00  0.00    +0.000 C 
ATOM      7  C   UNL     1      -2.502  13.115  20.198  0.00  0.00    +0.000 C 
ATOM      8  N   UNL     1      -1.720  14.022  21.022  0.00  0.00    +0.000 N 
ATOM      9  C   UNL     1      -1.212  15.263  20.769  0.00  0.00    +0.000 C 
ATOM     10  O   UNL     1      -0.564  15.878  21.626  0.00  0.00    +0.000 OA
ATOM     11  N   UNL     1      -1.463  15.809  19.548  0.00  0.00    +0.000 N 
ATOM     12  H   UNL     1      -1.972  15.306  18.841  0.00  0.00    +0.000 HD
ENDROOT
BRANCH   2  13
ATOM     13  C   UNL     1       0.248  10.451  20.159  0.00  0.00    +0.000 A 
ATOM     14  C   UNL     1       0.519   9.260  20.826  0.00  0.00    +0.000 A 
ATOM     15  C   UNL     1       1.368   8.479  20.003  0.00  0.00    +0.000 A 
ATOM     16  C   UNL     1       1.968   7.211  20.090  0.00  0.00    +0.000 A 
ATOM     17  C   UNL     1       2.753   6.769  19.016  0.00  0.00    +0.000 A 
ATOM     18  C   UNL     1       2.941   7.565  17.884  0.00  0.00    +0.000 A 
ATOM     19  C   UNL     1       2.350   8.828  17.781  0.00  0.00    +0.000 A 
ATOM     20  C   UNL     1       1.576   9.239  18.863  0.00  0.00    +0.000 A 
ATOM     21  O   UNL     1       0.906  10.421  18.950  0.00  0.00    +0.000 OA
ENDBRANCH   2  13
BRANCH   1  22
ATOM     22  C   UNL     1      -1.874  11.429  18.408  0.00  0.00    +0.000 C 
ATOM     23  O   UNL     1      -1.665  12.003  17.360  0.00  0.00    +0.000 OA
BRANCH  22  25
ATOM     24  C   UNL     1      -3.371   9.893  17.449  0.00  0.00    +0.000 C 
ATOM     25  O   UNL     1      -2.466  10.207  18.513  0.00  0.00    +0.000 OA
ENDBRANCH  22  25
ENDBRANCH   1  22
BRANCH  11  26
ATOM     26  C   UNL     1      -0.987  17.143  19.217  0.00  0.00    +0.000 C 
BRANCH  26  27
ATOM     27  C   UNL     1       0.314  17.093  18.491  0.00  0.00    +0.000 A 
ATOM     28  C   UNL     1       1.455  16.334  18.662  0.00  0.00    +0.000 A 
ATOM     29  C   UNL     1       2.403  16.805  17.723  0.00  0.00    +0.000 A 
ATOM     30  C   UNL     1       1.787  17.827  17.041  0.00  0.00    +0.000 A 
ATOM     31  O   UNL     1       0.517  18.008  17.495  0.00  0.00    +0.000 OA
ENDBRANCH  26  27
ENDBRANCH  11  26
TORSDOF 5
ENDMDL
MODEL 6
REMARK VINA RESULT:      -7.0      0.939      1.394
REMARK  Name = 
REMARK  6 active torsions:
REMARK  status: ('A' for Active; 'I' for Inactive)
REMARK    1  A    between atoms: C_1  and  O_2
REMARK    2  A    between atoms: O_2  and  C_3
REMARK    3  A    between atoms: C_3  and  C_5
REMARK    4  A    between atoms: C_6  and  C_7
REMARK    5  A    between atoms: N_24  and  C_25
REMARK    6  A    between atoms: C_25  and  C_26
REMARK                            x       y       z     vdW  Elec       q    Type
REMARK                         _______ _______ _______ _____ _____    ______ ____
ROOT
ATOM      1  C   UNL     1       1.044  10.369  20.861  0.00  0.00    +0.000 C 
ATOM      2  C   UNL     1       1.203   9.778  19.643  0.00  0.00    +0.000 C 
ATOM      3  C   UNL     1       0.930  10.603  18.376  0.00  0.00    +0.000 C 
ATOM      4  C   UNL     1       0.621  12.087  18.679  0.00  0.00    +0.000 C 
ATOM      5  C   UNL     1       1.898  12.806  19.146  0.00  0.00    +0.000 C 
ATOM      6  C   UNL     1       1.873  12.692  20.679  0.00  0.00    +0.000 C 
ATOM      7  C   UNL     1       0.641  11.826  20.984  0.00  0.00    +0.000 C 
ATOM      8  N   UNL     1      -0.229  12.138  19.862  0.00  0.00    +0.000 N 
ATOM      9  C   UNL     1      -1.577  12.339  19.792  0.00  0.00    +0.000 C 
ATOM     10  O   UNL     1      -2.132  12.600  18.717  0.00  0.00    +0.000 OA
ATOM     11  N   UNL     1      -2.286  12.262  20.952  0.00  0.00    +0.000 N 
ATOM     12  H   UNL     1      -1.843  12.030  21.825  0.00  0.00    +0.000 HD
ENDROOT
BRANCH   2  13
ATOM     13  C   UNL     1       1.616   8.414  19.547  0.00  0.00    +0.000 A 
ATOM     14  C   UNL     1       2.341   7.791  18.535  0.00  0.00    +0.000 A 
ATOM     15  C   UNL     1       2.538   6.437  18.905  0.00  0.00    +0.000 A 
ATOM     16  C   UNL     1       3.183   5.323  18.343  0.00  0.00    +0.000 A 
ATOM     17  C   UNL     1       3.171   4.115  19.055  0.00  0.00    +0.000 A 
ATOM     18  C   UNL     1       2.533   4.014  20.294  0.00  0.00    +0.000 A 
ATOM     19  C   UNL     1       1.887   5.113  20.867  0.00  0.00    +0.000 A 
ATOM     20  C   UNL     1       1.917   6.298  20.136  0.00  0.00    +0.000 A 
ATOM     21  O   UNL     1       1.364   7.480  20.526  0.00  0.00    +0.000 OA
ENDBRANCH   2  13
BRANCH   1  22
ATOM     22  C   UNL     1       1.237   9.659  22.161  0.00  0.00    +0.000 C 
ATOM     23  O   UNL     1       2.295   9.543  22.744  0.00  0.00    +0.000 OA
BRANCH  22  25
ATOM     24  C   UNL     1      -0.797   9.995  23.289  0.00  0.00    +0.000 C 
ATOM     25  O   UNL     1       0.065   9.102  22.574  0.00  0.00    +0.000 OA
ENDBRANCH  22  25
ENDBRANCH   1  22
BRANCH  11  26
ATOM     26  C   UNL     1      -3.721  12.501  20.965  0.00  0.00    +0.000 C 
BRANCH  26  27
ATOM     27  C   UNL     1      -4.242  12.607  22.357  0.00  0.00    +0.000 A 
ATOM     28  C   UNL     1      -3.625  12.612  23.593  0.00  0.00    +0.000 A 
ATOM     29  C   UNL     1      -4.655  12.638  24.563  0.00  0.00    +0.000 A 
ATOM     30  C   UNL     1      -5.837  12.639  23.862  0.00  0.00    +0.000 A 
ATOM     31  O   UNL     1      -5.600  12.625  22.523  0.00  0.00    +0.000 OA
ENDBRANCH  26  27
ENDBRANCH  11  26
TORSDOF 5
ENDMDL
MODEL 7
REMARK VINA RESULT:      -7.0      1.297      1.697
REMARK  Name = 
REMARK  6 active torsions:
REMARK  status: ('A' for Active; 'I' for Inactive)
REMARK    1  A    between atoms: C_1  and  O_2
REMARK    2  A    between atoms: O_2  and  C_3
REMARK    3  A    between atoms: C_3  and  C_5
REMARK    4  A    between atoms: C_6  and  C_7
REMARK    5  A    between atoms: N_24  and  C_25
REMARK    6  A    between atoms: C_25  and  C_26
REMARK                            x       y       z     vdW  Elec       q    Type
REMARK                         _______ _______ _______ _____ _____    ______ ____
ROOT
ATOM      1  C   UNL     1       0.361   9.762  20.341  0.00  0.00    +0.000 C 
ATOM      2  C   UNL     1       1.230   9.447  19.341  0.00  0.00    +0.000 C 
ATOM      3  C   UNL     1       1.533  10.497  18.261  0.00  0.00    +0.000 C 
ATOM      4  C   UNL     1       0.872  11.865  18.551  0.00  0.00    +0.000 C 
ATOM      5  C   UNL     1       1.575  12.549  19.736  0.00  0.00    +0.000 C 
ATOM      6  C   UNL     1       0.766  12.119  20.971  0.00  0.00    +0.000 C 
ATOM      7  C   UNL     1      -0.280  11.134  20.427  0.00  0.00    +0.000 C 
ATOM      8  N   UNL     1      -0.468  11.617  19.069  0.00  0.00    +0.000 N 
ATOM      9  C   UNL     1      -1.589  11.744  18.301  0.00  0.00    +0.000 C 
ATOM     10  O   UNL     1      -1.530  12.188  17.147  0.00  0.00    +0.000 OA
ATOM     11  N   UNL     1      -2.777  11.386  18.860  0.00  0.00    +0.000 N 
ATOM     12  H   UNL     1      -2.829  11.006  19.790  0.00  0.00    +0.000 HD
ENDROOT
BRANCH   2  13
ATOM     13  C   UNL     1       1.849   8.160  19.296  0.00  0.00    +0.000 A 
ATOM     14  C   UNL     1       1.934   7.197  20.297  0.00  0.00    +0.000 A 
ATOM     15  C   UNL     1       2.611   6.071  19.767  0.00  0.00    +0.000 A 
ATOM     16  C   UNL     1       2.988   4.805  20.246  0.00  0.00    +0.000 A 
ATOM     17  C   UNL     1       3.652   3.931  19.373  0.00  0.00    +0.000 A 
ATOM     18  C   UNL     1       3.937   4.304  18.058  0.00  0.00    +0.000 A 
ATOM     19  C   UNL     1       3.567   5.559  17.565  0.00  0.00    +0.000 A 
ATOM     20  C   UNL     1       2.909   6.404  18.455  0.00  0.00    +0.000 A 
ATOM     21  O   UNL     1       2.454   7.654  18.167  0.00  0.00    +0.000 OA
ENDBRANCH   2  13
BRANCH   1  22
ATOM     22  C   UNL     1      -0.045   8.811  21.420  0.00  0.00    +0.000 C 
ATOM     23  O   UNL     1      -0.948   8.004  21.336  0.00  0.00    +0.000 OA
BRANCH  22  25
ATOM     24  C   UNL     1      -0.028   9.558  23.647  0.00  0.00    +0.000 C 
ATOM     25  O   UNL     1       0.702   9.018  22.539  0.00  0.00    +0.000 OA
ENDBRANCH  22  25
ENDBRANCH   1  22
BRANCH  11  26
ATOM     26  C   UNL     1      -4.021  11.529  18.119  0.00  0.00    +0.000 C 
BRANCH  26  27
ATOM     27  C   UNL     1      -5.205  11.444  19.021  0.00  0.00    +0.000 A 
ATOM     28  C   UNL     1      -6.413  10.780  18.925  0.00  0.00    +0.000 A 
ATOM     29  C   UNL     1      -7.179  11.162  20.052  0.00  0.00    +0.000 A 
ATOM     30  C   UNL     1      -6.397  12.041  20.762  0.00  0.00    +0.000 A 
ATOM     31  O   UNL     1      -5.196  12.217  20.149  0.00  0.00    +0.000 OA
ENDBRANCH  26  27
ENDBRANCH  11  26
TORSDOF 5
ENDMDL
MODEL 8
REMARK VINA RESULT:      -7.0      0.928      1.113
REMARK  Name = 
REMARK  6 active torsions:
REMARK  status: ('A' for Active; 'I' for Inactive)
REMARK    1  A    between atoms: C_1  and  O_2
REMARK    2  A    between atoms: O_2  and  C_3
REMARK    3  A    between atoms: C_3  and  C_5
REMARK    4  A    between atoms: C_6  and  C_7
REMARK    5  A    between atoms: N_24  and  C_25
REMARK    6  A    between atoms: C_25  and  C_26
REMARK                            x       y       z     vdW  Elec       q    Type
REMARK                         _______ _______ _______ _____ _____    ______ ____
ROOT
ATOM      1  C   UNL     1       0.985  10.419  20.924  0.00  0.00    +0.000 C 
ATOM      2  C   UNL     1       1.088   9.607  19.835  0.00  0.00    +0.000 C 
ATOM      3  C   UNL     1       0.749  10.176  18.449  0.00  0.00    +0.000 C 
ATOM      4  C   UNL     1       0.447  11.692  18.479  0.00  0.00    +0.000 C 
ATOM      5  C   UNL     1       1.741  12.483  18.737  0.00  0.00    +0.000 C 
ATOM      6  C   UNL     1       1.791  12.663  20.264  0.00  0.00    +0.000 C 
ATOM      7  C   UNL     1       0.580  11.875  20.787  0.00  0.00    +0.000 C 
ATOM      8  N   UNL     1      -0.345  11.970  19.670  0.00  0.00    +0.000 N 
ATOM      9  C   UNL     1      -1.696  12.159  19.628  0.00  0.00    +0.000 C 
ATOM     10  O   UNL     1      -2.304  12.213  18.551  0.00  0.00    +0.000 OA
ATOM     11  N   UNL     1      -2.347  12.308  20.814  0.00  0.00    +0.000 N 
ATOM     12  H   UNL     1      -1.862  12.245  21.693  0.00  0.00    +0.000 HD
ENDROOT
BRANCH   2  13
ATOM     13  C   UNL     1       1.504   8.248  19.981  0.00  0.00    +0.000 A 
ATOM     14  C   UNL     1       0.905   7.226  20.713  0.00  0.00    +0.000 A 
ATOM     15  C   UNL     1       1.664   6.045  20.519  0.00  0.00    +0.000 A 
ATOM     16  C   UNL     1       1.580   4.712  20.955  0.00  0.00    +0.000 A 
ATOM     17  C   UNL     1       2.550   3.802  20.509  0.00  0.00    +0.000 A 
ATOM     18  C   UNL     1       3.579   4.205  19.655  0.00  0.00    +0.000 A 
ATOM     19  C   UNL     1       3.676   5.527  19.212  0.00  0.00    +0.000 A 
ATOM     20  C   UNL     1       2.698   6.407  19.670  0.00  0.00    +0.000 A 
ATOM     21  O   UNL     1       2.606   7.725  19.344  0.00  0.00    +0.000 OA
ENDBRANCH   2  13
BRANCH   1  22
ATOM     22  C   UNL     1       1.244   9.969  22.325  0.00  0.00    +0.000 C 
ATOM     23  O   UNL     1       2.228   9.363  22.693  0.00  0.00    +0.000 OA
BRANCH  22  25
ATOM     24  C   UNL     1      -0.892   9.342  23.076  0.00  0.00    +0.000 C 
ATOM     25  O   UNL     1       0.188  10.282  23.126  0.00  0.00    +0.000 OA
ENDBRANCH  22  25
ENDBRANCH   1  22
BRANCH  11  26
ATOM     26  C   UNL     1      -3.781  12.550  20.851  0.00  0.00    +0.000 C 
BRANCH  26  27
ATOM     27  C   UNL     1      -4.287  12.616  22.252  0.00  0.00    +0.000 A 
ATOM     28  C   UNL     1      -5.430  13.150  22.813  0.00  0.00    +0.000 A 
ATOM     29  C   UNL     1      -5.309  12.993  24.214  0.00  0.00    +0.000 A 
ATOM     30  C   UNL     1      -4.097  12.380  24.424  0.00  0.00    +0.000 A 
ATOM     31  O   UNL     1      -3.470  12.142  23.241  0.00  0.00    +0.000 OA
ENDBRANCH  26  27
ENDBRANCH  11  26
TORSDOF 5
ENDMDL
MODEL 9
REMARK VINA RESULT:      -6.9      3.362      5.470
REMARK  Name = 
REMARK  6 active torsions:
REMARK  status: ('A' for Active; 'I' for Inactive)
REMARK    1  A    between atoms: C_1  and  O_2
REMARK    2  A    between atoms: O_2  and  C_3
REMARK    3  A    between atoms: C_3  and  C_5
REMARK    4  A    between atoms: C_6  and  C_7
REMARK    5  A    between atoms: N_24  and  C_25
REMARK    6  A    between atoms: C_25  and  C_26
REMARK                            x       y       z     vdW  Elec       q    Type
REMARK                         _______ _______ _______ _____ _____    ______ ____
ROOT
ATOM      1  C   UNL     1      -1.638  12.208  20.076  0.00  0.00    +0.000 C 
ATOM      2  C   UNL     1      -0.677  11.573  20.804  0.00  0.00    +0.000 C 
ATOM      3  C   UNL     1      -0.465  11.980  22.270  0.00  0.00    +0.000 C 
ATOM      4  C   UNL     1      -1.505  13.011  22.764  0.00  0.00    +0.000 C 
ATOM      5  C   UNL     1      -2.882  12.340  22.913  0.00  0.00    +0.000 C 
ATOM      6  C   UNL     1      -3.580  12.578  21.563  0.00  0.00    +0.000 C 
ATOM      7  C   UNL     1      -2.521  13.275  20.696  0.00  0.00    +0.000 C 
ATOM      8  N   UNL     1      -1.729  13.975  21.694  0.00  0.00    +0.000 N 
ATOM      9  C   UNL     1      -1.165  15.217  21.693  0.00  0.00    +0.000 C 
ATOM     10  O   UNL     1      -0.519  15.630  22.664  0.00  0.00    +0.000 OA
ATOM     11  N   UNL     1      -1.357  15.994  20.592  0.00  0.00    +0.000 N 
ATOM     12  H   UNL     1      -1.865  15.657  19.791  0.00  0.00    +0.000 HD
ENDROOT
BRANCH   2  13
ATOM     13  C   UNL     1       0.122  10.547  20.212  0.00  0.00    +0.000 A 
ATOM     14  C   UNL     1       0.755  10.540  18.972  0.00  0.00    +0.000 A 
ATOM     15  C   UNL     1       1.460   9.317  18.846  0.00  0.00    +0.000 A 
ATOM     16  C   UNL     1       2.283   8.725  17.874  0.00  0.00    +0.000 A 
ATOM     17  C   UNL     1       2.828   7.461  18.141  0.00  0.00    +0.000 A 
ATOM     18  C   UNL     1       2.562   6.799  19.341  0.00  0.00    +0.000 A 
ATOM     19  C   UNL     1       1.746   7.375  20.320  0.00  0.00    +0.000 A 
ATOM     20  C   UNL     1       1.220   8.630  20.026  0.00  0.00    +0.000 A 
ATOM     21  O   UNL     1       0.420   9.363  20.848  0.00  0.00    +0.000 OA
ENDBRANCH   2  13
BRANCH   1  22
ATOM     22  C   UNL     1      -1.907  11.931  18.633  0.00  0.00    +0.000 C 
ATOM     23  O   UNL     1      -1.385  12.508  17.702  0.00  0.00    +0.000 OA
BRANCH  22  25
ATOM     24  C   UNL     1      -2.601   9.992  17.502  0.00  0.00    +0.000 C 
ATOM     25  O   UNL     1      -2.871  10.978  18.505  0.00  0.00    +0.000 OA
ENDBRANCH  22  25
ENDBRANCH   1  22
BRANCH  11  26
ATOM     26  C   UNL     1      -0.820  17.345  20.530  0.00  0.00    +0.000 C 
BRANCH  26  27
ATOM     27  C   UNL     1      -0.394  17.699  19.146  0.00  0.00    +0.000 A 
ATOM     28  C   UNL     1      -1.095  18.068  18.015  0.00  0.00    +0.000 A 
ATOM     29  C   UNL     1      -0.149  18.183  16.968  0.00  0.00    +0.000 A 
ATOM     30  C   UNL     1       1.069  17.869  17.522  0.00  0.00    +0.000 A 
ATOM     31  O   UNL     1       0.934  17.578  18.844  0.00  0.00    +0.000 OA
ENDBRANCH  26  27
ENDBRANCH  11  26
TORSDOF 5
ENDMDL
