MODEL 1
REMARK VINA RESULT:      -8.1      0.000      0.000
REMARK  Name = 
REMARK  6 active torsions:
REMARK  status: ('A' for Active; 'I' for Inactive)
REMARK    1  A    between atoms: C_1  and  C_2
REMARK    2  A    between atoms: C_4  and  C_5
REMARK    3  A    between atoms: C_9  and  N_10
REMARK    4  A    between atoms: N_10  and  C_11
REMARK    5  A    between atoms: C_11  and  C_12
REMARK    6  A    between atoms: C_20  and  C_21
REMARK                            x       y       z     vdW  Elec       q    Type
REMARK                         _______ _______ _______ _____ _____    ______ ____
ROOT
ATOM      1  C   UNL     1       6.492   4.958  16.596  0.00  0.00    +0.000 A 
ATOM      2  C   UNL     1       7.510   4.649  17.500  0.00  0.00    +0.000 A 
ATOM      3  C   UNL     1       7.323   4.867  18.859  0.00  0.00    +0.000 A 
ATOM      4  C   UNL     1       6.115   5.400  19.330  0.00  0.00    +0.000 A 
ATOM      5  C   UNL     1       5.066   5.705  18.454  0.00  0.00    +0.000 A 
ATOM      6  C   UNL     1       5.286   5.499  17.086  0.00  0.00    +0.000 A 
ENDROOT
BRANCH   1  10
ATOM      7  C   UNL     1       5.836   3.053  12.119  0.00  0.00    +0.000 C 
ATOM      8  C   UNL     1       6.404   3.922  13.173  0.00  0.00    +0.000 A 
ATOM      9  N   UNL     1       6.017   3.765  14.478  0.00  0.00    +0.000 NA
ATOM     10  C   UNL     1       6.638   4.707  15.167  0.00  0.00    +0.000 A 
ATOM     11  N   UNL     1       7.445   5.439  14.332  0.00  0.00    +0.000 N 
ATOM     12  C   UNL     1       7.301   4.964  13.056  0.00  0.00    +0.000 A 
ATOM     13  C   UNL     1       8.002   5.538  11.884  0.00  0.00    +0.000 C 
ATOM     14  H   UNL     1       8.010   6.230  14.618  0.00  0.00    +0.000 HD
ENDBRANCH   1  10
BRANCH   5  15
ATOM     15  N   UNL     1       3.900   6.302  18.958  0.00  0.00    +0.000 N 
ATOM     16  H   UNL     1       3.809   6.210  19.970  0.00  0.00    +0.000 HD
BRANCH  15  17
ATOM     17  C   UNL     1       2.646   6.021  18.259  0.00  0.00    +0.000 C 
BRANCH  17  18
ATOM     18  C   UNL     1       2.007   4.765  18.807  0.00  0.00    +0.000 A 
ATOM     19  C   UNL     1       1.611   4.690  20.150  0.00  0.00    +0.000 A 
ATOM     20  C   UNL     1       1.101   3.501  20.674  0.00  0.00    +0.000 A 
ATOM     21  C   UNL     1       0.964   2.381  19.856  0.00  0.00    +0.000 A 
ATOM     22  C   UNL     1       1.299   2.457  18.506  0.00  0.00    +0.000 A 
ATOM     23  C   UNL     1       1.812   3.646  17.982  0.00  0.00    +0.000 A 
ENDBRANCH  17  18
ENDBRANCH  15  17
ENDBRANCH   5  15
TORSDOF 4
ENDMDL
MODEL 2
REMARK VINA RESULT:      -8.0      1.441      2.599
REMARK  Name = 
REMARK  6 active torsions:
REMARK  status: ('A' for Active; 'I' for Inactive)
REMARK    1  A    between atoms: C_1  and  C_2
REMARK    2  A    between atoms: C_4  and  C_5
REMARK    3  A    between atoms: C_9  and  N_10
REMARK    4  A    between atoms: N_10  and  C_11
REMARK    5  A    between atoms: C_11  and  C_12
REMARK    6  A    between atoms: C_20  and  C_21
REMARK                            x       y       z     vdW  Elec       q    Type
REMARK                         _______ _______ _______ _____ _____    ______ ____
ROOT
ATOM      1  C   UNL     1       5.356   5.063  16.493  0.00  0.00    +0.000 A 
ATOM      2  C   UNL     1       4.598   6.193  16.803  0.00  0.00    +0.000 A 
ATOM      3  C   UNL     1       4.105   6.368  18.089  0.00  0.00    +0.000 A 
ATOM      4  C   UNL     1       4.363   5.412  19.081  0.00  0.00    +0.000 A 
ATOM      5  C   UNL     1       5.134   4.274  18.810  0.00  0.00    +0.000 A 
ATOM      6  C   UNL     1       5.600   4.107  17.500  0.00  0.00    +0.000 A 
ENDROOT
BRANCH   1  10
ATOM      7  C   UNL     1       8.259   5.519  12.559  0.00  0.00    +0.000 C 
ATOM      8  C   UNL     1       7.154   5.007  13.400  0.00  0.00    +0.000 A 
ATOM      9  N   UNL     1       6.914   5.558  14.631  0.00  0.00    +0.000 NA
ATOM     10  C   UNL     1       5.921   4.864  15.162  0.00  0.00    +0.000 A 
ATOM     11  N   UNL     1       5.496   3.906  14.277  0.00  0.00    +0.000 N 
ATOM     12  C   UNL     1       6.277   3.971  13.154  0.00  0.00    +0.000 A 
ATOM     13  C   UNL     1       6.123   3.061  11.995  0.00  0.00    +0.000 C 
ATOM     14  H   UNL     1       4.760   3.234  14.458  0.00  0.00    +0.000 HD
ENDBRANCH   1  10
BRANCH   5  15
ATOM     15  N   UNL     1       5.310   3.307  19.812  0.00  0.00    +0.000 N 
ATOM     16  H   UNL     1       6.291   3.128  20.026  0.00  0.00    +0.000 HD
BRANCH  15  17
ATOM     17  C   UNL     1       4.531   2.075  19.699  0.00  0.00    +0.000 C 
BRANCH  17  18
ATOM     18  C   UNL     1       3.051   2.376  19.786  0.00  0.00    +0.000 A 
ATOM     19  C   UNL     1       2.218   2.197  18.672  0.00  0.00    +0.000 A 
ATOM     20  C   UNL     1       0.871   2.558  18.730  0.00  0.00    +0.000 A 
ATOM     21  C   UNL     1       0.339   3.083  19.907  0.00  0.00    +0.000 A 
ATOM     22  C   UNL     1       1.141   3.213  21.038  0.00  0.00    +0.000 A 
ATOM     23  C   UNL     1       2.490   2.855  20.981  0.00  0.00    +0.000 A 
ENDBRANCH  17  18
ENDBRANCH  15  17
ENDBRANCH   5  15
TORSDOF 4
ENDMDL
MODEL 3
REMARK VINA RESULT:      -8.0      0.171      1.055
REMARK  Name = 
REMARK  6 active torsions:
REMARK  status: ('A' for Active; 'I' for Inactive)
REMARK    1  A    between atoms: C_1  and  C_2
REMARK    2  A    between atoms: C_4  and  C_5
REMARK    3  A    between atoms: C_9  and  N_10
REMARK    4  A    between atoms: N_10  and  C_11
REMARK    5  A    between atoms: C_11  and  C_12
REMARK    6  A    between atoms: C_20  and  C_21
REMARK                            x       y       z     vdW  Elec       q    Type
REMARK                         _______ _______ _______ _____ _____    ______ ____
ROOT
ATOM      1  C   UNL     1       6.459   4.988  16.533  0.00  0.00    +0.000 A 
ATOM      2  C   UNL     1       7.458   4.677  17.457  0.00  0.00    +0.000 A 
ATOM      3  C   UNL     1       7.251   4.910  18.810  0.00  0.00    +0.000 A 
ATOM      4  C   UNL     1       6.041   5.461  19.255  0.00  0.00    +0.000 A 
ATOM      5  C   UNL     1       5.010   5.769  18.359  0.00  0.00    +0.000 A 
ATOM      6  C   UNL     1       5.251   5.547  16.997  0.00  0.00    +0.000 A 
ENDROOT
BRANCH   1  10
ATOM      7  C   UNL     1       5.895   3.009  12.075  0.00  0.00    +0.000 C 
ATOM      8  C   UNL     1       6.432   3.904  13.124  0.00  0.00    +0.000 A 
ATOM      9  N   UNL     1       6.034   3.756  14.426  0.00  0.00    +0.000 NA
ATOM     10  C   UNL     1       6.627   4.721  15.109  0.00  0.00    +0.000 A 
ATOM     11  N   UNL     1       7.427   5.459  14.273  0.00  0.00    +0.000 N 
ATOM     12  C   UNL     1       7.308   4.964  13.002  0.00  0.00    +0.000 A 
ATOM     13  C   UNL     1       8.009   5.537  11.830  0.00  0.00    +0.000 C 
ATOM     14  H   UNL     1       7.971   6.266  14.554  0.00  0.00    +0.000 HD
ENDBRANCH   1  10
BRANCH   5  15
ATOM     15  N   UNL     1       3.842   6.383  18.837  0.00  0.00    +0.000 N 
ATOM     16  H   UNL     1       3.782   6.389  19.856  0.00  0.00    +0.000 HD
BRANCH  15  17
ATOM     17  C   UNL     1       2.578   6.003  18.207  0.00  0.00    +0.000 C 
BRANCH  17  18
ATOM     18  C   UNL     1       2.014   4.763  18.862  0.00  0.00    +0.000 A 
ATOM     19  C   UNL     1       1.577   3.679  18.086  0.00  0.00    +0.000 A 
ATOM     20  C   UNL     1       0.977   2.572  18.688  0.00  0.00    +0.000 A 
ATOM     21  C   UNL     1       0.826   2.528  20.073  0.00  0.00    +0.000 A 
ATOM     22  C   UNL     1       1.307   3.571  20.861  0.00  0.00    +0.000 A 
ATOM     23  C   UNL     1       1.905   4.681  20.259  0.00  0.00    +0.000 A 
ENDBRANCH  17  18
ENDBRANCH  15  17
ENDBRANCH   5  15
TORSDOF 4
ENDMDL
MODEL 4
REMARK VINA RESULT:      -8.0      1.430      2.249
REMARK  Name = 
REMARK  6 active torsions:
REMARK  status: ('A' for Active; 'I' for Inactive)
REMARK    1  A    between atoms: C_1  and  C_2
REMARK    2  A    between atoms: C_4  and  C_5
REMARK    3  A    between atoms: C_9  and  N_10
REMARK    4  A    between atoms: N_10  and  C_11
REMARK    5  A    between atoms: C_11  and  C_12
REMARK    6  A    between atoms: C_20  and  C_21
REMARK                            x       y       z     vdW  Elec       q    Type
REMARK                         _______ _______ _______ _____ _____    ______ ____
ROOT
ATOM      1  C   UNL     1       5.394   4.998  16.466  0.00  0.00    +0.000 A 
ATOM      2  C   UNL     1       4.647   6.144  16.741  0.00  0.00    +0.000 A 
ATOM      3  C   UNL     1       4.149   6.358  18.020  0.00  0.00    +0.000 A 
ATOM      4  C   UNL     1       4.390   5.426  19.038  0.00  0.00    +0.000 A 
ATOM      5  C   UNL     1       5.149   4.273  18.802  0.00  0.00    +0.000 A 
ATOM      6  C   UNL     1       5.622   4.066  17.500  0.00  0.00    +0.000 A 
ENDROOT
BRANCH   1  10
ATOM      7  C   UNL     1       6.113   3.139  11.979  0.00  0.00    +0.000 C 
ATOM      8  C   UNL     1       6.341   3.992  13.166  0.00  0.00    +0.000 A 
ATOM      9  N   UNL     1       5.575   3.828  14.289  0.00  0.00    +0.000 NA
ATOM     10  C   UNL     1       5.966   4.758  15.145  0.00  0.00    +0.000 A 
ATOM     11  N   UNL     1       6.994   5.487  14.604  0.00  0.00    +0.000 N 
ATOM     12  C   UNL     1       7.240   5.025  13.338  0.00  0.00    +0.000 A 
ATOM     13  C   UNL     1       8.269   5.601  12.441  0.00  0.00    +0.000 C 
ATOM     14  H   UNL     1       7.452   6.269  15.056  0.00  0.00    +0.000 HD
ENDBRANCH   1  10
BRANCH   5  15
ATOM     15  N   UNL     1       5.308   3.331  19.830  0.00  0.00    +0.000 N 
ATOM     16  H   UNL     1       6.286   3.160  20.068  0.00  0.00    +0.000 HD
BRANCH  15  17
ATOM     17  C   UNL     1       4.535   2.094  19.732  0.00  0.00    +0.000 C 
BRANCH  17  18
ATOM     18  C   UNL     1       3.054   2.391  19.796  0.00  0.00    +0.000 A 
ATOM     19  C   UNL     1       2.234   2.192  18.676  0.00  0.00    +0.000 A 
ATOM     20  C   UNL     1       0.885   2.549  18.713  0.00  0.00    +0.000 A 
ATOM     21  C   UNL     1       0.337   3.089  19.875  0.00  0.00    +0.000 A 
ATOM     22  C   UNL     1       1.126   3.239  21.014  0.00  0.00    +0.000 A 
ATOM     23  C   UNL     1       2.477   2.885  20.977  0.00  0.00    +0.000 A 
ENDBRANCH  17  18
ENDBRANCH  15  17
ENDBRANCH   5  15
TORSDOF 4
ENDMDL
MODEL 5
REMARK VINA RESULT:      -7.9      0.278      1.688
REMARK  Name = 
REMARK  6 active torsions:
REMARK  status: ('A' for Active; 'I' for Inactive)
REMARK    1  A    between atoms: C_1  and  C_2
REMARK    2  A    between atoms: C_4  and  C_5
REMARK    3  A    between atoms: C_9  and  N_10
REMARK    4  A    between atoms: N_10  and  C_11
REMARK    5  A    between atoms: C_11  and  C_12
REMARK    6  A    between atoms: C_20  and  C_21
REMARK                            x       y       z     vdW  Elec       q    Type
REMARK                         _______ _______ _______ _____ _____    ______ ____
ROOT
ATOM      1  C   UNL     1       6.422   4.939  16.354  0.00  0.00    +0.000 A 
ATOM      2  C   UNL     1       7.431   4.581  17.249  0.00  0.00    +0.000 A 
ATOM      3  C   UNL     1       7.265   4.805  18.610  0.00  0.00    +0.000 A 
ATOM      4  C   UNL     1       6.087   5.392  19.091  0.00  0.00    +0.000 A 
ATOM      5  C   UNL     1       5.047   5.748  18.223  0.00  0.00    +0.000 A 
ATOM      6  C   UNL     1       5.247   5.535  16.853  0.00  0.00    +0.000 A 
ENDROOT
BRANCH   1  10
ATOM      7  C   UNL     1       7.839   5.324  11.668  0.00  0.00    +0.000 C 
ATOM      8  C   UNL     1       7.124   4.790  12.849  0.00  0.00    +0.000 A 
ATOM      9  N   UNL     1       7.237   5.414  14.063  0.00  0.00    +0.000 NA
ATOM     10  C   UNL     1       6.546   4.684  14.923  0.00  0.00    +0.000 A 
ATOM     11  N   UNL     1       5.960   3.628  14.272  0.00  0.00    +0.000 N 
ATOM     12  C   UNL     1       6.325   3.669  12.952  0.00  0.00    +0.000 A 
ATOM     13  C   UNL     1       5.901   2.661  11.953  0.00  0.00    +0.000 C 
ATOM     14  H   UNL     1       5.394   2.914  14.716  0.00  0.00    +0.000 HD
ENDBRANCH   1  10
BRANCH   5  15
ATOM     15  N   UNL     1       3.914   6.398  18.737  0.00  0.00    +0.000 N 
ATOM     16  H   UNL     1       3.885   6.404  19.757  0.00  0.00    +0.000 HD
BRANCH  15  17
ATOM     17  C   UNL     1       2.620   6.060  18.145  0.00  0.00    +0.000 C 
BRANCH  17  18
ATOM     18  C   UNL     1       2.044   4.827  18.803  0.00  0.00    +0.000 A 
ATOM     19  C   UNL     1       1.655   3.721  18.034  0.00  0.00    +0.000 A 
ATOM     20  C   UNL     1       1.044   2.619  18.637  0.00  0.00    +0.000 A 
ATOM     21  C   UNL     1       0.834   2.604  20.014  0.00  0.00    +0.000 A 
ATOM     22  C   UNL     1       1.266   3.672  20.798  0.00  0.00    +0.000 A 
ATOM     23  C   UNL     1       1.876   4.776  20.196  0.00  0.00    +0.000 A 
ENDBRANCH  17  18
ENDBRANCH  15  17
ENDBRANCH   5  15
TORSDOF 4
ENDMDL
MODEL 6
REMARK VINA RESULT:      -7.9      0.325      1.335
REMARK  Name = 
REMARK  6 active torsions:
REMARK  status: ('A' for Active; 'I' for Inactive)
REMARK    1  A    between atoms: C_1  and  C_2
REMARK    2  A    between atoms: C_4  and  C_5
REMARK    3  A    between atoms: C_9  and  N_10
REMARK    4  A    between atoms: N_10  and  C_11
REMARK    5  A    between atoms: C_11  and  C_12
REMARK    6  A    between atoms: C_20  and  C_21
REMARK                            x       y       z     vdW  Elec       q    Type
REMARK                         _______ _______ _______ _____ _____    ______ ____
ROOT
ATOM      1  C   UNL     1       6.417   4.942  16.363  0.00  0.00    +0.000 A 
ATOM      2  C   UNL     1       7.438   4.615  17.257  0.00  0.00    +0.000 A 
ATOM      3  C   UNL     1       7.268   4.838  18.617  0.00  0.00    +0.000 A 
ATOM      4  C   UNL     1       6.075   5.393  19.099  0.00  0.00    +0.000 A 
ATOM      5  C   UNL     1       5.023   5.718  18.233  0.00  0.00    +0.000 A 
ATOM      6  C   UNL     1       5.226   5.507  16.863  0.00  0.00    +0.000 A 
ENDROOT
BRANCH   1  10
ATOM      7  C   UNL     1       7.843   5.330  11.681  0.00  0.00    +0.000 C 
ATOM      8  C   UNL     1       7.127   4.795  12.859  0.00  0.00    +0.000 A 
ATOM      9  N   UNL     1       7.236   5.419  14.074  0.00  0.00    +0.000 NA
ATOM     10  C   UNL     1       6.545   4.688  14.932  0.00  0.00    +0.000 A 
ATOM     11  N   UNL     1       5.963   3.630  14.280  0.00  0.00    +0.000 N 
ATOM     12  C   UNL     1       6.332   3.671  12.962  0.00  0.00    +0.000 A 
ATOM     13  C   UNL     1       5.913   2.662  11.961  0.00  0.00    +0.000 C 
ATOM     14  H   UNL     1       5.399   2.914  14.723  0.00  0.00    +0.000 HD
ENDBRANCH   1  10
BRANCH   5  15
ATOM     15  N   UNL     1       3.874   6.337  18.748  0.00  0.00    +0.000 N 
ATOM     16  H   UNL     1       3.847   6.344  19.768  0.00  0.00    +0.000 HD
BRANCH  15  17
ATOM     17  C   UNL     1       2.589   5.961  18.159  0.00  0.00    +0.000 C 
BRANCH  17  18
ATOM     18  C   UNL     1       1.991   4.787  18.901  0.00  0.00    +0.000 A 
ATOM     19  C   UNL     1       1.974   4.760  20.303  0.00  0.00    +0.000 A 
ATOM     20  C   UNL     1       1.500   3.637  20.984  0.00  0.00    +0.000 A 
ATOM     21  C   UNL     1       1.022   2.539  20.272  0.00  0.00    +0.000 A 
ATOM     22  C   UNL     1       0.981   2.575  18.880  0.00  0.00    +0.000 A 
ATOM     23  C   UNL     1       1.456   3.697  18.197  0.00  0.00    +0.000 A 
ENDBRANCH  17  18
ENDBRANCH  15  17
ENDBRANCH   5  15
TORSDOF 4
ENDMDL
MODEL 7
REMARK VINA RESULT:      -7.9      2.731      5.748
REMARK  Name = 
REMARK  6 active torsions:
REMARK  status: ('A' for Active; 'I' for Inactive)
REMARK    1  A    between atoms: C_1  and  C_2
REMARK    2  A    between atoms: C_4  and  C_5
REMARK    3  A    between atoms: C_9  and  N_10
REMARK    4  A    between atoms: N_10  and  C_11
REMARK    5  A    between atoms: C_11  and  C_12
REMARK    6  A    between atoms: C_20  and  C_21
REMARK                            x       y       z     vdW  Elec       q    Type
REMARK                         _______ _______ _______ _____ _____    ______ ____
ROOT
ATOM      1  C   UNL     1       3.754   6.442  17.629  0.00  0.00    +0.000 A 
ATOM      2  C   UNL     1       4.576   6.863  16.583  0.00  0.00    +0.000 A 
ATOM      3  C   UNL     1       5.353   5.941  15.894  0.00  0.00    +0.000 A 
ATOM      4  C   UNL     1       5.318   4.584  16.246  0.00  0.00    +0.000 A 
ATOM      5  C   UNL     1       4.492   4.123  17.279  0.00  0.00    +0.000 A 
ATOM      6  C   UNL     1       3.736   5.075  17.975  0.00  0.00    +0.000 A 
ENDROOT
BRANCH   1  10
ATOM      7  C   UNL     1       0.766  10.218  18.590  0.00  0.00    +0.000 C 
ATOM      8  C   UNL     1       1.580   9.009  18.847  0.00  0.00    +0.000 A 
ATOM      9  N   UNL     1       2.338   8.463  17.845  0.00  0.00    +0.000 NA
ATOM     10  C   UNL     1       2.896   7.376  18.350  0.00  0.00    +0.000 A 
ATOM     11  N   UNL     1       2.541   7.240  19.668  0.00  0.00    +0.000 N 
ATOM     12  C   UNL     1       1.693   8.262  20.002  0.00  0.00    +0.000 A 
ATOM     13  C   UNL     1       1.082   8.416  21.342  0.00  0.00    +0.000 C 
ATOM     14  H   UNL     1       2.825   6.476  20.270  0.00  0.00    +0.000 HD
ENDBRANCH   1  10
BRANCH   5  15
ATOM     15  N   UNL     1       4.539   2.769  17.646  0.00  0.00    +0.000 N 
ATOM     16  H   UNL     1       5.246   2.241  17.134  0.00  0.00    +0.000 HD
BRANCH  15  17
ATOM     17  C   UNL     1       3.267   2.054  17.736  0.00  0.00    +0.000 C 
BRANCH  17  18
ATOM     18  C   UNL     1       2.583   2.359  19.050  0.00  0.00    +0.000 A 
ATOM     19  C   UNL     1       1.222   2.697  19.087  0.00  0.00    +0.000 A 
ATOM     20  C   UNL     1       0.615   3.062  20.290  0.00  0.00    +0.000 A 
ATOM     21  C   UNL     1       1.357   3.073  21.470  0.00  0.00    +0.000 A 
ATOM     22  C   UNL     1       2.694   2.685  21.458  0.00  0.00    +0.000 A 
ATOM     23  C   UNL     1       3.304   2.322  20.254  0.00  0.00    +0.000 A 
ENDBRANCH  17  18
ENDBRANCH  15  17
ENDBRANCH   5  15
TORSDOF 4
ENDMDL
MODEL 8
REMARK VINA RESULT:      -7.9      1.440      2.365
REMARK  Name = 
REMARK  6 active torsions:
REMARK  status: ('A' for Active; 'I' for Inactive)
REMARK    1  A    between atoms: C_1  and  C_2
REMARK    2  A    between atoms: C_4  and  C_5
REMARK    3  A    between atoms: C_9  and  N_10
REMARK    4  A    between atoms: N_10  and  C_11
REMARK    5  A    between atoms: C_11  and  C_12
REMARK    6  A    between atoms: C_20  and  C_21
REMARK                            x       y       z     vdW  Elec       q    Type
REMARK                         _______ _______ _______ _____ _____    ______ ____
ROOT
ATOM      1  C   UNL     1       5.393   5.053  16.465  0.00  0.00    +0.000 A 
ATOM      2  C   UNL     1       4.653   6.192  16.783  0.00  0.00    +0.000 A 
ATOM      3  C   UNL     1       4.172   6.371  18.074  0.00  0.00    +0.000 A 
ATOM      4  C   UNL     1       4.425   5.409  19.062  0.00  0.00    +0.000 A 
ATOM      5  C   UNL     1       5.179   4.262  18.782  0.00  0.00    +0.000 A 
ATOM      6  C   UNL     1       5.633   4.092  17.468  0.00  0.00    +0.000 A 
ENDROOT
BRANCH   1  10
ATOM      7  C   UNL     1       8.252   5.502  12.498  0.00  0.00    +0.000 C 
ATOM      8  C   UNL     1       7.159   4.990  13.354  0.00  0.00    +0.000 A 
ATOM      9  N   UNL     1       6.929   5.546  14.584  0.00  0.00    +0.000 NA
ATOM     10  C   UNL     1       5.945   4.850  15.130  0.00  0.00    +0.000 A 
ATOM     11  N   UNL     1       5.516   3.885  14.254  0.00  0.00    +0.000 N 
ATOM     12  C   UNL     1       6.284   3.948  13.122  0.00  0.00    +0.000 A 
ATOM     13  C   UNL     1       6.123   3.031  11.970  0.00  0.00    +0.000 C 
ATOM     14  H   UNL     1       4.785   3.211  14.446  0.00  0.00    +0.000 HD
ENDBRANCH   1  10
BRANCH   5  15
ATOM     15  N   UNL     1       5.350   3.290  19.780  0.00  0.00    +0.000 N 
ATOM     16  H   UNL     1       6.330   3.081  19.970  0.00  0.00    +0.000 HD
BRANCH  15  17
ATOM     17  C   UNL     1       4.530   2.082  19.688  0.00  0.00    +0.000 C 
BRANCH  17  18
ATOM     18  C   UNL     1       3.062   2.434  19.760  0.00  0.00    +0.000 A 
ATOM     19  C   UNL     1       2.497   2.909  20.952  0.00  0.00    +0.000 A 
ATOM     20  C   UNL     1       1.125   3.151  21.040  0.00  0.00    +0.000 A 
ATOM     21  C   UNL     1       0.307   2.938  19.932  0.00  0.00    +0.000 A 
ATOM     22  C   UNL     1       0.862   2.521  18.724  0.00  0.00    +0.000 A 
ATOM     23  C   UNL     1       2.235   2.277  18.636  0.00  0.00    +0.000 A 
ENDBRANCH  17  18
ENDBRANCH  15  17
ENDBRANCH   5  15
TORSDOF 4
ENDMDL
MODEL 9
REMARK VINA RESULT:      -7.8      1.426      1.967
REMARK  Name = 
REMARK  6 active torsions:
REMARK  status: ('A' for Active; 'I' for Inactive)
REMARK    1  A    between atoms: C_1  and  C_2
REMARK    2  A    between atoms: C_4  and  C_5
REMARK    3  A    between atoms: C_9  and  N_10
REMARK    4  A    between atoms: N_10  and  C_11
REMARK    5  A    between atoms: C_11  and  C_12
REMARK    6  A    between atoms: C_20  and  C_21
REMARK                            x       y       z     vdW  Elec       q    Type
REMARK                         _______ _______ _______ _____ _____    ______ ____
ROOT
ATOM      1  C   UNL     1       5.444   5.001  16.447  0.00  0.00    +0.000 A 
ATOM      2  C   UNL     1       4.712   6.155  16.730  0.00  0.00    +0.000 A 
ATOM      3  C   UNL     1       4.218   6.369  18.010  0.00  0.00    +0.000 A 
ATOM      4  C   UNL     1       4.448   5.428  19.023  0.00  0.00    +0.000 A 
ATOM      5  C   UNL     1       5.192   4.267  18.779  0.00  0.00    +0.000 A 
ATOM      6  C   UNL     1       5.660   4.061  17.475  0.00  0.00    +0.000 A 
ENDROOT
BRANCH   1  10
ATOM      7  C   UNL     1       6.175   3.109  11.975  0.00  0.00    +0.000 C 
ATOM      8  C   UNL     1       6.390   3.983  13.150  0.00  0.00    +0.000 A 
ATOM      9  N   UNL     1       5.638   3.811  14.282  0.00  0.00    +0.000 NA
ATOM     10  C   UNL     1       6.010   4.761  15.124  0.00  0.00    +0.000 A 
ATOM     11  N   UNL     1       7.013   5.512  14.565  0.00  0.00    +0.000 N 
ATOM     12  C   UNL     1       7.261   5.042  13.303  0.00  0.00    +0.000 A 
ATOM     13  C   UNL     1       8.265   5.635  12.389  0.00  0.00    +0.000 C 
ATOM     14  H   UNL     1       7.454   6.312  15.004  0.00  0.00    +0.000 HD
ENDBRANCH   1  10
BRANCH   5  15
ATOM     15  N   UNL     1       5.340   3.316  19.801  0.00  0.00    +0.000 N 
ATOM     16  H   UNL     1       6.316   3.112  20.019  0.00  0.00    +0.000 HD
BRANCH  15  17
ATOM     17  C   UNL     1       4.523   2.107  19.716  0.00  0.00    +0.000 C 
BRANCH  17  18
ATOM     18  C   UNL     1       3.053   2.458  19.762  0.00  0.00    +0.000 A 
ATOM     19  C   UNL     1       2.477   2.980  20.929  0.00  0.00    +0.000 A 
ATOM     20  C   UNL     1       1.104   3.222  20.995  0.00  0.00    +0.000 A 
ATOM     21  C   UNL     1       0.296   2.964  19.889  0.00  0.00    +0.000 A 
ATOM     22  C   UNL     1       0.862   2.499  18.704  0.00  0.00    +0.000 A 
ATOM     23  C   UNL     1       2.236   2.254  18.638  0.00  0.00    +0.000 A 
ENDBRANCH  17  18
ENDBRANCH  15  17
ENDBRANCH   5  15
TORSDOF 4
ENDMDL
