MODEL 1
REMARK VINA RESULT:      -5.8      0.000      0.000
REMARK  Name = 
REMARK  6 active torsions:
REMARK  status: ('A' for Active; 'I' for Inactive)
REMARK    1  A    between atoms: C_1  and  C_2
REMARK    2  A    between atoms: C_2  and  C_3
REMARK    3  A    between atoms: C_3  and  C_4
REMARK    4  A    between atoms: C_4  and  N_5
REMARK    5  A    between atoms: C_4  and  C_6
REMARK    6  A    between atoms: C_6  and  C_8
REMARK                            x       y       z     vdW  Elec       q    Type
REMARK                         _______ _______ _______ _____ _____    ______ ____
ROOT
ATOM      1  C   UNL     1       5.831   4.621  18.431  0.00  0.00    +0.000 C 
ATOM      2  O   UNL     1       6.279   4.971  19.515  0.00  0.00    +0.000 OA
ENDROOT
BRANCH   1   3
ATOM      3  C   UNL     1       4.359   4.390  18.298  0.00  0.00    +0.000 A 
ATOM      4  C   UNL     1       3.419   5.237  18.922  0.00  0.00    +0.000 A 
ATOM      5  C   UNL     1       2.048   5.001  18.786  0.00  0.00    +0.000 A 
ATOM      6  C   UNL     1       1.595   3.918  18.032  0.00  0.00    +0.000 A 
ATOM      7  C   UNL     1       2.510   3.067  17.413  0.00  0.00    +0.000 A 
ATOM      8  C   UNL     1       3.883   3.298  17.542  0.00  0.00    +0.000 A 
ENDBRANCH   1   3
BRANCH   1   9
ATOM      9  C   UNL     1       6.775   4.452  17.251  0.00  0.00    +0.000 C 
BRANCH   9  10
ATOM     10  N   UNL     1       8.120   4.154  17.751  0.00  0.00    +0.000 NA
ATOM     11  H   UNL     1       8.228   4.493  18.735  0.00  0.00    +0.000 HD
ATOM     12  H   UNL     1       8.849   4.591  17.143  0.00  0.00    +0.000 HD
ENDBRANCH   9  10
BRANCH   9  13
ATOM     13  C   UNL     1       6.780   5.695  16.329  0.00  0.00    +0.000 C 
BRANCH  13  15
ATOM     14  C   UNL     1       5.921   4.128  14.559  0.00  0.00    +0.000 C 
ATOM     15  C   UNL     1       5.854   5.546  15.114  0.00  0.00    +0.000 C 
ENDBRANCH  13  15
ENDBRANCH   9  13
ENDBRANCH   1   9
TORSDOF 5
ENDMDL
MODEL 2
REMARK VINA RESULT:      -5.8      1.607      1.862
REMARK  Name = 
REMARK  6 active torsions:
REMARK  status: ('A' for Active; 'I' for Inactive)
REMARK    1  A    between atoms: C_1  and  C_2
REMARK    2  A    between atoms: C_2  and  C_3
REMARK    3  A    between atoms: C_3  and  C_4
REMARK    4  A    between atoms: C_4  and  N_5
REMARK    5  A    between atoms: C_4  and  C_6
REMARK    6  A    between atoms: C_6  and  C_8
REMARK                            x       y       z     vdW  Elec       q    Type
REMARK                         _______ _______ _______ _____ _____    ______ ____
ROOT
ATOM      1  C   UNL     1       5.655   5.536  16.401  0.00  0.00    +0.000 C 
ATOM      2  O   UNL     1       5.936   6.711  16.203  0.00  0.00    +0.000 OA
ENDROOT
BRANCH   1   3
ATOM      3  C   UNL     1       4.344   5.204  17.039  0.00  0.00    +0.000 A 
ATOM      4  C   UNL     1       3.624   6.159  17.787  0.00  0.00    +0.000 A 
ATOM      5  C   UNL     1       2.400   5.826  18.377  0.00  0.00    +0.000 A 
ATOM      6  C   UNL     1       1.880   4.539  18.233  0.00  0.00    +0.000 A 
ATOM      7  C   UNL     1       2.582   3.581  17.502  0.00  0.00    +0.000 A 
ATOM      8  C   UNL     1       3.805   3.907  16.906  0.00  0.00    +0.000 A 
ENDBRANCH   1   3
BRANCH   1   9
ATOM      9  C   UNL     1       6.634   4.452  15.977  0.00  0.00    +0.000 C 
BRANCH   9  10
ATOM     10  N   UNL     1       7.850   4.559  16.788  0.00  0.00    +0.000 NA
ATOM     11  H   UNL     1       7.724   4.066  17.703  0.00  0.00    +0.000 HD
ATOM     12  H   UNL     1       8.098   5.560  16.956  0.00  0.00    +0.000 HD
ENDBRANCH   9  10
BRANCH   9  13
ATOM     13  C   UNL     1       6.959   4.521  14.465  0.00  0.00    +0.000 C 
BRANCH  13  15
ATOM     14  C   UNL     1       6.451   3.503  12.222  0.00  0.00    +0.000 C 
ATOM     15  C   UNL     1       5.883   3.865  13.589  0.00  0.00    +0.000 C 
ENDBRANCH  13  15
ENDBRANCH   9  13
ENDBRANCH   1   9
TORSDOF 5
ENDMDL
MODEL 3
REMARK VINA RESULT:      -5.7      1.637      2.295
REMARK  Name = 
REMARK  6 active torsions:
REMARK  status: ('A' for Active; 'I' for Inactive)
REMARK    1  A    between atoms: C_1  and  C_2
REMARK    2  A    between atoms: C_2  and  C_3
REMARK    3  A    between atoms: C_3  and  C_4
REMARK    4  A    between atoms: C_4  and  N_5
REMARK    5  A    between atoms: C_4  and  C_6
REMARK    6  A    between atoms: C_6  and  C_8
REMARK                            x       y       z     vdW  Elec       q    Type
REMARK                         _______ _______ _______ _____ _____    ______ ____
ROOT
ATOM      1  C   UNL     1       6.031   5.011  18.773  0.00  0.00    +0.000 C 
ATOM      2  O   UNL     1       6.388   4.822  19.928  0.00  0.00    +0.000 OA
ENDROOT
BRANCH   1   3
ATOM      3  C   UNL     1       4.600   4.769  18.410  0.00  0.00    +0.000 A 
ATOM      4  C   UNL     1       3.562   5.572  18.926  0.00  0.00    +0.000 A 
ATOM      5  C   UNL     1       2.231   5.327  18.575  0.00  0.00    +0.000 A 
ATOM      6  C   UNL     1       1.916   4.278  17.710  0.00  0.00    +0.000 A 
ATOM      7  C   UNL     1       2.929   3.470  17.195  0.00  0.00    +0.000 A 
ATOM      8  C   UNL     1       4.263   3.711  17.539  0.00  0.00    +0.000 A 
ENDBRANCH   1   3
BRANCH   1   9
ATOM      9  C   UNL     1       7.041   5.502  17.748  0.00  0.00    +0.000 C 
BRANCH   9  10
ATOM     10  N   UNL     1       7.913   4.389  17.361  0.00  0.00    +0.000 NA
ATOM     11  H   UNL     1       7.684   3.534  17.920  0.00  0.00    +0.000 HD
ATOM     12  H   UNL     1       8.918   4.640  17.491  0.00  0.00    +0.000 HD
ENDBRANCH   9  10
BRANCH   9  13
ATOM     13  C   UNL     1       7.865   6.703  18.274  0.00  0.00    +0.000 C 
BRANCH  13  15
ATOM     14  C   UNL     1       8.354   9.165  18.124  0.00  0.00    +0.000 C 
ATOM     15  C   UNL     1       7.597   8.000  17.499  0.00  0.00    +0.000 C 
ENDBRANCH  13  15
ENDBRANCH   9  13
ENDBRANCH   1   9
TORSDOF 5
ENDMDL
MODEL 4
REMARK VINA RESULT:      -5.7      2.031      4.231
REMARK  Name = 
REMARK  6 active torsions:
REMARK  status: ('A' for Active; 'I' for Inactive)
REMARK    1  A    between atoms: C_1  and  C_2
REMARK    2  A    between atoms: C_2  and  C_3
REMARK    3  A    between atoms: C_3  and  C_4
REMARK    4  A    between atoms: C_4  and  N_5
REMARK    5  A    between atoms: C_4  and  C_6
REMARK    6  A    between atoms: C_6  and  C_8
REMARK                            x       y       z     vdW  Elec       q    Type
REMARK                         _______ _______ _______ _____ _____    ______ ____
ROOT
ATOM      1  C   UNL     1       4.506   3.252  18.758  0.00  0.00    +0.000 C 
ATOM      2  O   UNL     1       5.239   3.236  19.738  0.00  0.00    +0.000 OA
ENDROOT
BRANCH   1   3
ATOM      3  C   UNL     1       4.747   4.272  17.691  0.00  0.00    +0.000 A 
ATOM      4  C   UNL     1       4.445   5.635  17.890  0.00  0.00    +0.000 A 
ATOM      5  C   UNL     1       4.677   6.571  16.878  0.00  0.00    +0.000 A 
ATOM      6  C   UNL     1       5.209   6.163  15.655  0.00  0.00    +0.000 A 
ATOM      7  C   UNL     1       5.508   4.818  15.438  0.00  0.00    +0.000 A 
ATOM      8  C   UNL     1       5.282   3.876  16.447  0.00  0.00    +0.000 A 
ENDBRANCH   1   3
BRANCH   1   9
ATOM      9  C   UNL     1       3.388   2.227  18.644  0.00  0.00    +0.000 C 
BRANCH   9  10
ATOM     10  N   UNL     1       3.957   0.940  18.234  0.00  0.00    +0.000 NA
ATOM     11  H   UNL     1       3.421   0.150  18.663  0.00  0.00    +0.000 HD
ATOM     12  H   UNL     1       4.964   0.875  18.506  0.00  0.00    +0.000 HD
ENDBRANCH   9  10
BRANCH   9  13
ATOM     13  C   UNL     1       2.277   2.686  17.667  0.00  0.00    +0.000 C 
BRANCH  13  15
ATOM     14  C   UNL     1       0.930   3.108  19.749  0.00  0.00    +0.000 C 
ATOM     15  C   UNL     1       1.228   3.587  18.333  0.00  0.00    +0.000 C 
ENDBRANCH  13  15
ENDBRANCH   9  13
ENDBRANCH   1   9
TORSDOF 5
ENDMDL
MODEL 5
REMARK VINA RESULT:      -5.6      2.149      3.040
REMARK  Name = 
REMARK  6 active torsions:
REMARK  status: ('A' for Active; 'I' for Inactive)
REMARK    1  A    between atoms: C_1  and  C_2
REMARK    2  A    between atoms: C_2  and  C_3
REMARK    3  A    between atoms: C_3  and  C_4
REMARK    4  A    between atoms: C_4  and  N_5
REMARK    5  A    between atoms: C_4  and  C_6
REMARK    6  A    between atoms: C_6  and  C_8
REMARK                            x       y       z     vdW  Elec       q    Type
REMARK                         _______ _______ _______ _____ _____    ______ ____
ROOT
ATOM      1  C   UNL     1       5.933   5.577  16.390  0.00  0.00    +0.000 C 
ATOM      2  O   UNL     1       5.990   5.912  15.214  0.00  0.00    +0.000 OA
ENDROOT
BRANCH   1   3
ATOM      3  C   UNL     1       4.597   5.281  16.994  0.00  0.00    +0.000 A 
ATOM      4  C   UNL     1       4.043   3.984  16.963  0.00  0.00    +0.000 A 
ATOM      5  C   UNL     1       2.792   3.730  17.532  0.00  0.00    +0.000 A 
ATOM      6  C   UNL     1       2.074   4.763  18.135  0.00  0.00    +0.000 A 
ATOM      7  C   UNL     1       2.604   6.053  18.170  0.00  0.00    +0.000 A 
ATOM      8  C   UNL     1       3.857   6.314  17.606  0.00  0.00    +0.000 A 
ENDBRANCH   1   3
BRANCH   1   9
ATOM      9  C   UNL     1       7.217   5.453  17.195  0.00  0.00    +0.000 C 
BRANCH   9  10
ATOM     10  N   UNL     1       7.184   4.203  17.961  0.00  0.00    +0.000 NA
ATOM     11  H   UNL     1       8.081   4.071  18.484  0.00  0.00    +0.000 HD
ATOM     12  H   UNL     1       7.015   3.386  17.333  0.00  0.00    +0.000 HD
ENDBRANCH   9  10
BRANCH   9  13
ATOM     13  C   UNL     1       7.443   6.673  18.121  0.00  0.00    +0.000 C 
BRANCH  13  15
ATOM     14  C   UNL     1       8.359   9.013  18.207  0.00  0.00    +0.000 C 
ATOM     15  C   UNL     1       7.633   7.985  17.348  0.00  0.00    +0.000 C 
ENDBRANCH  13  15
ENDBRANCH   9  13
ENDBRANCH   1   9
TORSDOF 5
ENDMDL
MODEL 6
REMARK VINA RESULT:      -5.6      2.029      2.991
REMARK  Name = 
REMARK  6 active torsions:
REMARK  status: ('A' for Active; 'I' for Inactive)
REMARK    1  A    between atoms: C_1  and  C_2
REMARK    2  A    between atoms: C_2  and  C_3
REMARK    3  A    between atoms: C_3  and  C_4
REMARK    4  A    between atoms: C_4  and  N_5
REMARK    5  A    between atoms: C_4  and  C_6
REMARK    6  A    between atoms: C_6  and  C_8
REMARK                            x       y       z     vdW  Elec       q    Type
REMARK                         _______ _______ _______ _____ _____    ______ ____
ROOT
ATOM      1  C   UNL     1       5.447   4.843  15.820  0.00  0.00    +0.000 C 
ATOM      2  O   UNL     1       5.255   4.331  14.725  0.00  0.00    +0.000 OA
ENDROOT
BRANCH   1   3
ATOM      3  C   UNL     1       4.317   4.903  16.798  0.00  0.00    +0.000 A 
ATOM      4  C   UNL     1       3.467   3.798  17.012  0.00  0.00    +0.000 A 
ATOM      5  C   UNL     1       2.415   3.876  17.931  0.00  0.00    +0.000 A 
ATOM      6  C   UNL     1       2.194   5.054  18.643  0.00  0.00    +0.000 A 
ATOM      7  C   UNL     1       3.020   6.159  18.439  0.00  0.00    +0.000 A 
ATOM      8  C   UNL     1       4.076   6.087  17.526  0.00  0.00    +0.000 A 
ENDBRANCH   1   3
BRANCH   1   9
ATOM      9  C   UNL     1       6.826   5.384  16.162  0.00  0.00    +0.000 C 
BRANCH   9  10
ATOM     10  N   UNL     1       7.678   5.313  14.970  0.00  0.00    +0.000 NA
ATOM     11  H   UNL     1       8.405   6.066  14.995  0.00  0.00    +0.000 HD
ATOM     12  H   UNL     1       7.107   5.397  14.099  0.00  0.00    +0.000 HD
ENDBRANCH   9  10
BRANCH   9  13
ATOM     13  C   UNL     1       7.465   4.633  17.355  0.00  0.00    +0.000 C 
BRANCH  13  15
ATOM     14  C   UNL     1       7.744   7.008  18.134  0.00  0.00    +0.000 C 
ATOM     15  C   UNL     1       7.742   5.544  18.559  0.00  0.00    +0.000 C 
ENDBRANCH  13  15
ENDBRANCH   9  13
ENDBRANCH   1   9
TORSDOF 5
ENDMDL
MODEL 7
REMARK VINA RESULT:      -5.6      2.097      4.571
REMARK  Name = 
REMARK  6 active torsions:
REMARK  status: ('A' for Active; 'I' for Inactive)
REMARK    1  A    between atoms: C_1  and  C_2
REMARK    2  A    between atoms: C_2  and  C_3
REMARK    3  A    between atoms: C_3  and  C_4
REMARK    4  A    between atoms: C_4  and  N_5
REMARK    5  A    between atoms: C_4  and  C_6
REMARK    6  A    between atoms: C_6  and  C_8
REMARK                            x       y       z     vdW  Elec       q    Type
REMARK                         _______ _______ _______ _____ _____    ______ ____
ROOT
ATOM      1  C   UNL     1       4.572   3.343  18.773  0.00  0.00    +0.000 C 
ATOM      2  O   UNL     1       5.381   3.301  19.692  0.00  0.00    +0.000 OA
ENDROOT
BRANCH   1   3
ATOM      3  C   UNL     1       4.794   4.316  17.660  0.00  0.00    +0.000 A 
ATOM      4  C   UNL     1       5.254   3.898  16.394  0.00  0.00    +0.000 A 
ATOM      5  C   UNL     1       5.457   4.826  15.367  0.00  0.00    +0.000 A 
ATOM      6  C   UNL     1       5.207   6.180  15.588  0.00  0.00    +0.000 A 
ATOM      7  C   UNL     1       4.757   6.613  16.836  0.00  0.00    +0.000 A 
ATOM      8  C   UNL     1       4.549   5.690  17.866  0.00  0.00    +0.000 A 
ENDBRANCH   1   3
BRANCH   1   9
ATOM      9  C   UNL     1       3.382   2.396  18.780  0.00  0.00    +0.000 C 
BRANCH   9  10
ATOM     10  N   UNL     1       3.798   1.099  18.237  0.00  0.00    +0.000 NA
ATOM     11  H   UNL     1       4.116   0.466  19.007  0.00  0.00    +0.000 HD
ATOM     12  H   UNL     1       4.563   1.218  17.535  0.00  0.00    +0.000 HD
ENDBRANCH   9  10
BRANCH   9  13
ATOM     13  C   UNL     1       2.177   2.973  17.997  0.00  0.00    +0.000 C 
BRANCH  13  15
ATOM     14  C   UNL     1       0.965   3.150  20.193  0.00  0.00    +0.000 C 
ATOM     15  C   UNL     1       0.840   2.772  18.722  0.00  0.00    +0.000 C 
ENDBRANCH  13  15
ENDBRANCH   9  13
ENDBRANCH   1   9
TORSDOF 5
ENDMDL
MODEL 8
REMARK VINA RESULT:      -5.5      2.449      4.165
REMARK  Name = 
REMARK  6 active torsions:
REMARK  status: ('A' for Active; 'I' for Inactive)
REMARK    1  A    between atoms: C_1  and  C_2
REMARK    2  A    between atoms: C_2  and  C_3
REMARK    3  A    between atoms: C_3  and  C_4
REMARK    4  A    between atoms: C_4  and  N_5
REMARK    5  A    between atoms: C_4  and  C_6
REMARK    6  A    between atoms: C_6  and  C_8
REMARK                            x       y       z     vdW  Elec       q    Type
REMARK                         _______ _______ _______ _____ _____    ______ ____
ROOT
ATOM      1  C   UNL     1       4.744   4.183  19.218  0.00  0.00    +0.000 C 
ATOM      2  O   UNL     1       5.963   4.145  19.113  0.00  0.00    +0.000 OA
ENDROOT
BRANCH   1   3
ATOM      3  C   UNL     1       4.027   5.449  18.872  0.00  0.00    +0.000 A 
ATOM      4  C   UNL     1       3.010   5.970  19.698  0.00  0.00    +0.000 A 
ATOM      5  C   UNL     1       2.351   7.155  19.355  0.00  0.00    +0.000 A 
ATOM      6  C   UNL     1       2.694   7.834  18.185  0.00  0.00    +0.000 A 
ATOM      7  C   UNL     1       3.694   7.330  17.354  0.00  0.00    +0.000 A 
ATOM      8  C   UNL     1       4.360   6.147  17.692  0.00  0.00    +0.000 A 
ENDBRANCH   1   3
BRANCH   1   9
ATOM      9  C   UNL     1       3.994   2.941  19.674  0.00  0.00    +0.000 C 
BRANCH   9  10
ATOM     10  N   UNL     1       4.962   1.893  20.013  0.00  0.00    +0.000 NA
ATOM     11  H   UNL     1       5.925   2.296  20.092  0.00  0.00    +0.000 HD
ATOM     12  H   UNL     1       4.953   1.133  19.296  0.00  0.00    +0.000 HD
ENDBRANCH   9  10
BRANCH   9  13
ATOM     13  C   UNL     1       2.982   2.450  18.611  0.00  0.00    +0.000 C 
BRANCH  13  15
ATOM     14  C   UNL     1       1.200   2.955  20.311  0.00  0.00    +0.000 C 
ATOM     15  C   UNL     1       1.648   1.993  19.217  0.00  0.00    +0.000 C 
ENDBRANCH  13  15
ENDBRANCH   9  13
ENDBRANCH   1   9
TORSDOF 5
ENDMDL
MODEL 9
REMARK VINA RESULT:      -5.5      2.512      5.012
REMARK  Name = 
REMARK  6 active torsions:
REMARK  status: ('A' for Active; 'I' for Inactive)
REMARK    1  A    between atoms: C_1  and  C_2
REMARK    2  A    between atoms: C_2  and  C_3
REMARK    3  A    between atoms: C_3  and  C_4
REMARK    4  A    between atoms: C_4  and  N_5
REMARK    5  A    between atoms: C_4  and  C_6
REMARK    6  A    between atoms: C_6  and  C_8
REMARK                            x       y       z     vdW  Elec       q    Type
REMARK                         _______ _______ _______ _____ _____    ______ ____
ROOT
ATOM      1  C   UNL     1       3.634   3.256  17.863  0.00  0.00    +0.000 C 
ATOM      2  O   UNL     1       2.838   3.506  16.967  0.00  0.00    +0.000 OA
ENDROOT
BRANCH   1   3
ATOM      3  C   UNL     1       4.907   4.037  17.938  0.00  0.00    +0.000 A 
ATOM      4  C   UNL     1       5.317   4.669  19.130  0.00  0.00    +0.000 A 
ATOM      5  C   UNL     1       6.510   5.396  19.177  0.00  0.00    +0.000 A 
ATOM      6  C   UNL     1       7.308   5.508  18.038  0.00  0.00    +0.000 A 
ATOM      7  C   UNL     1       6.916   4.895  16.849  0.00  0.00    +0.000 A 
ATOM      8  C   UNL     1       5.725   4.163  16.795  0.00  0.00    +0.000 A 
ENDBRANCH   1   3
BRANCH   1   9
ATOM      9  C   UNL     1       3.301   2.176  18.881  0.00  0.00    +0.000 C 
BRANCH   9  10
ATOM     10  N   UNL     1       3.863   0.900  18.429  0.00  0.00    +0.000 NA
ATOM     11  H   UNL     1       3.730   0.163  19.160  0.00  0.00    +0.000 HD
ATOM     12  H   UNL     1       4.879   1.000  18.205  0.00  0.00    +0.000 HD
ENDBRANCH   9  10
BRANCH   9  13
ATOM     13  C   UNL     1       1.776   2.062  19.127  0.00  0.00    +0.000 C 
BRANCH  13  15
ATOM     14  C   UNL     1       2.321   2.917  21.429  0.00  0.00    +0.000 C 
ATOM     15  C   UNL     1       1.293   2.921  20.304  0.00  0.00    +0.000 C 
ENDBRANCH  13  15
ENDBRANCH   9  13
ENDBRANCH   1   9
TORSDOF 5
ENDMDL
