MODEL 1
REMARK VINA RESULT:      -7.9      0.000      0.000
REMARK  Name = 
REMARK  8 active torsions:
REMARK  status: ('A' for Active; 'I' for Inactive)
REMARK    1  A    between atoms: C_1  and  C_2
REMARK    2  A    between atoms: C_2  and  C_3
REMARK    3  A    between atoms: C_2  and  C_4
REMARK    4  A    between atoms: C_4  and  C_5
REMARK    5  A    between atoms: C_4  and  N_21
REMARK    6  A    between atoms: C_10  and  O_11
REMARK    7  A    between atoms: O_11  and  C_12
REMARK    8  A    between atoms: C_12  and  C_13
REMARK                            x       y       z     vdW  Elec       q    Type
REMARK                         _______ _______ _______ _____ _____    ______ ____
ROOT
ATOM      1  C   UNL     1       3.018   6.828  18.290  0.00  0.00    +0.000 A 
ATOM      2  C   UNL     1       2.875   7.916  17.418  0.00  0.00    +0.000 A 
ATOM      3  C   UNL     1       2.147   9.047  17.807  0.00  0.00    +0.000 A 
ATOM      4  C   UNL     1       1.534   9.112  19.068  0.00  0.00    +0.000 A 
ATOM      5  C   UNL     1       0.747  10.208  19.450  0.00  0.00    +0.000 A 
ATOM      6  C   UNL     1       0.118  10.247  20.698  0.00  0.00    +0.000 A 
ATOM      7  C   UNL     1       0.280   9.189  21.582  0.00  0.00    +0.000 A 
ATOM      8  C   UNL     1       1.074   8.094  21.222  0.00  0.00    +0.000 A 
ATOM      9  C   UNL     1       1.696   8.038  19.966  0.00  0.00    +0.000 A 
ATOM     10  C   UNL     1       2.449   6.920  19.573  0.00  0.00    +0.000 A 
ENDROOT
BRANCH   1  11
ATOM     11  C   UNL     1       3.752   5.563  17.835  0.00  0.00    +0.000 C 
BRANCH  11  12
ATOM     12  N   UNL     1       5.134   5.598  18.315  0.00  0.00    +0.000 N 
ATOM     13  N   UNL     1       6.176   6.039  17.569  0.00  0.00    +0.000 NA
ATOM     14  C   UNL     1       7.167   5.892  18.456  0.00  0.00    +0.000 A 
ATOM     15  N   UNL     1       6.758   5.434  19.673  0.00  0.00    +0.000 NA
ATOM     16  N   UNL     1       5.447   5.254  19.583  0.00  0.00    +0.000 NA
ENDBRANCH  11  12
BRANCH  11  18
ATOM     17  C   UNL     1       1.552   4.254  17.684  0.00  0.00    +0.000 C 
ATOM     18  C   UNL     1       2.996   4.248  18.210  0.00  0.00    +0.000 C 
ATOM     19  C   UNL     1       3.687   2.990  17.662  0.00  0.00    +0.000 C 
ENDBRANCH  11  18
ENDBRANCH   1  11
BRANCH   6  20
ATOM     20  O   UNL     1      -0.678  11.339  20.904  0.00  0.00    +0.000 OA
BRANCH  20  21
ATOM     21  C   UNL     1      -0.566  11.984  22.177  0.00  0.00    +0.000 C 
BRANCH  21  22
ATOM     22  C   UNL     1      -1.929  12.078  22.859  0.00  0.00    +0.000 C 
ATOM     23  F   UNL     1      -2.954  12.183  21.985  0.00  0.00    +0.000 F 
ATOM     24  F   UNL     1      -2.160  10.979  23.618  0.00  0.00    +0.000 F 
ATOM     25  F   UNL     1      -1.987  13.151  23.682  0.00  0.00    +0.000 F 
ENDBRANCH  21  22
ENDBRANCH  20  21
ENDBRANCH   6  20
TORSDOF 6
ENDMDL
MODEL 2
REMARK VINA RESULT:      -7.9      2.128      2.396
REMARK  Name = 
REMARK  8 active torsions:
REMARK  status: ('A' for Active; 'I' for Inactive)
REMARK    1  A    between atoms: C_1  and  C_2
REMARK    2  A    between atoms: C_2  and  C_3
REMARK    3  A    between atoms: C_2  and  C_4
REMARK    4  A    between atoms: C_4  and  C_5
REMARK    5  A    between atoms: C_4  and  N_21
REMARK    6  A    between atoms: C_10  and  O_11
REMARK    7  A    between atoms: O_11  and  C_12
REMARK    8  A    between atoms: C_12  and  C_13
REMARK                            x       y       z     vdW  Elec       q    Type
REMARK                         _______ _______ _______ _____ _____    ______ ____
ROOT
ATOM      1  C   UNL     1       3.339   6.003  18.668  0.00  0.00    +0.000 A 
ATOM      2  C   UNL     1       3.434   6.877  17.577  0.00  0.00    +0.000 A 
ATOM      3  C   UNL     1       2.807   8.129  17.612  0.00  0.00    +0.000 A 
ATOM      4  C   UNL     1       2.059   8.529  18.731  0.00  0.00    +0.000 A 
ATOM      5  C   UNL     1       1.370   9.750  18.759  0.00  0.00    +0.000 A 
ATOM      6  C   UNL     1       0.605  10.125  19.867  0.00  0.00    +0.000 A 
ATOM      7  C   UNL     1       0.529   9.280  20.966  0.00  0.00    +0.000 A 
ATOM      8  C   UNL     1       1.223   8.064  20.961  0.00  0.00    +0.000 A 
ATOM      9  C   UNL     1       1.980   7.672  19.847  0.00  0.00    +0.000 A 
ATOM     10  C   UNL     1       2.634   6.430  19.809  0.00  0.00    +0.000 A 
ENDROOT
BRANCH   1  11
ATOM     11  C   UNL     1       3.962   4.606  18.597  0.00  0.00    +0.000 C 
BRANCH  11  12
ATOM     12  N   UNL     1       5.421   4.721  18.570  0.00  0.00    +0.000 N 
ATOM     13  N   UNL     1       6.176   4.433  17.482  0.00  0.00    +0.000 NA
ATOM     14  C   UNL     1       7.389   4.723  17.965  0.00  0.00    +0.000 A 
ATOM     15  N   UNL     1       7.378   5.196  19.243  0.00  0.00    +0.000 NA
ATOM     16  N   UNL     1       6.108   5.202  19.629  0.00  0.00    +0.000 NA
ENDBRANCH  11  12
BRANCH  11  18
ATOM     17  C   UNL     1       2.020   3.132  19.392  0.00  0.00    +0.000 C 
ATOM     18  C   UNL     1       3.435   3.641  19.708  0.00  0.00    +0.000 C 
ATOM     19  C   UNL     1       4.339   2.416  19.907  0.00  0.00    +0.000 C 
ENDBRANCH  11  18
ENDBRANCH   1  11
BRANCH   6  20
ATOM     20  O   UNL     1      -0.071  11.303  19.724  0.00  0.00    +0.000 OA
BRANCH  20  21
ATOM     21  C   UNL     1      -1.497  11.243  19.838  0.00  0.00    +0.000 C 
BRANCH  21  22
ATOM     22  C   UNL     1      -2.142  11.049  18.467  0.00  0.00    +0.000 C 
ATOM     23  F   UNL     1      -1.462  11.654  17.469  0.00  0.00    +0.000 F 
ATOM     24  F   UNL     1      -2.221   9.732  18.158  0.00  0.00    +0.000 F 
ATOM     25  F   UNL     1      -3.405  11.538  18.452  0.00  0.00    +0.000 F 
ENDBRANCH  21  22
ENDBRANCH  20  21
ENDBRANCH   6  20
TORSDOF 6
ENDMDL
MODEL 3
REMARK VINA RESULT:      -7.7      2.938      3.836
REMARK  Name = 
REMARK  8 active torsions:
REMARK  status: ('A' for Active; 'I' for Inactive)
REMARK    1  A    between atoms: C_1  and  C_2
REMARK    2  A    between atoms: C_2  and  C_3
REMARK    3  A    between atoms: C_2  and  C_4
REMARK    4  A    between atoms: C_4  and  C_5
REMARK    5  A    between atoms: C_4  and  N_21
REMARK    6  A    between atoms: C_10  and  O_11
REMARK    7  A    between atoms: O_11  and  C_12
REMARK    8  A    between atoms: C_12  and  C_13
REMARK                            x       y       z     vdW  Elec       q    Type
REMARK                         _______ _______ _______ _____ _____    ______ ____
ROOT
ATOM      1  C   UNL     1       2.781   6.711  19.412  0.00  0.00    +0.000 A 
ATOM      2  C   UNL     1       2.947   7.252  18.130  0.00  0.00    +0.000 A 
ATOM      3  C   UNL     1       2.278   8.427  17.763  0.00  0.00    +0.000 A 
ATOM      4  C   UNL     1       1.418   9.077  18.661  0.00  0.00    +0.000 A 
ATOM      5  C   UNL     1       0.689  10.217  18.291  0.00  0.00    +0.000 A 
ATOM      6  C   UNL     1      -0.187  10.839  19.186  0.00  0.00    +0.000 A 
ATOM      7  C   UNL     1      -0.334  10.329  20.468  0.00  0.00    +0.000 A 
ATOM      8  C   UNL     1       0.397   9.201  20.859  0.00  0.00    +0.000 A 
ATOM      9  C   UNL     1       1.266   8.560  19.964  0.00  0.00    +0.000 A 
ATOM     10  C   UNL     1       1.962   7.396  20.327  0.00  0.00    +0.000 A 
ENDROOT
BRANCH   1  11
ATOM     11  C   UNL     1       3.455   5.388  19.786  0.00  0.00    +0.000 C 
BRANCH  11  12
ATOM     12  N   UNL     1       2.434   4.386  20.093  0.00  0.00    +0.000 N 
ATOM     13  N   UNL     1       2.337   3.754  21.289  0.00  0.00    +0.000 NA
ATOM     14  C   UNL     1       1.261   2.995  21.058  0.00  0.00    +0.000 A 
ATOM     15  N   UNL     1       0.709   3.177  19.824  0.00  0.00    +0.000 NA
ATOM     16  N   UNL     1       1.460   4.080  19.207  0.00  0.00    +0.000 NA
ENDBRANCH  11  12
BRANCH  11  18
ATOM     17  C   UNL     1       5.937   5.215  19.164  0.00  0.00    +0.000 C 
ATOM     18  C   UNL     1       4.497   4.908  18.724  0.00  0.00    +0.000 C 
ATOM     19  C   UNL     1       4.407   3.401  18.443  0.00  0.00    +0.000 C 
ENDBRANCH  11  18
ENDBRANCH   1  11
BRANCH   6  20
ATOM     20  O   UNL     1      -0.886  11.890  18.665  0.00  0.00    +0.000 OA
BRANCH  20  21
ATOM     21  C   UNL     1      -2.309  11.852  18.815  0.00  0.00    +0.000 C 
BRANCH  21  22
ATOM     22  C   UNL     1      -2.961  11.146  17.628  0.00  0.00    +0.000 C 
ATOM     23  F   UNL     1      -4.204  11.601  17.357  0.00  0.00    +0.000 F 
ATOM     24  F   UNL     1      -2.219  11.313  16.506  0.00  0.00    +0.000 F 
ATOM     25  F   UNL     1      -3.056   9.814  17.848  0.00  0.00    +0.000 F 
ENDBRANCH  21  22
ENDBRANCH  20  21
ENDBRANCH   6  20
TORSDOF 6
ENDMDL
MODEL 4
REMARK VINA RESULT:      -7.7      1.929      2.776
REMARK  Name = 
REMARK  8 active torsions:
REMARK  status: ('A' for Active; 'I' for Inactive)
REMARK    1  A    between atoms: C_1  and  C_2
REMARK    2  A    between atoms: C_2  and  C_3
REMARK    3  A    between atoms: C_2  and  C_4
REMARK    4  A    between atoms: C_4  and  C_5
REMARK    5  A    between atoms: C_4  and  N_21
REMARK    6  A    between atoms: C_10  and  O_11
REMARK    7  A    between atoms: O_11  and  C_12
REMARK    8  A    between atoms: C_12  and  C_13
REMARK                            x       y       z     vdW  Elec       q    Type
REMARK                         _______ _______ _______ _____ _____    ______ ____
ROOT
ATOM      1  C   UNL     1       2.948   5.457  19.104  0.00  0.00    +0.000 A 
ATOM      2  C   UNL     1       2.303   5.583  20.342  0.00  0.00    +0.000 A 
ATOM      3  C   UNL     1       1.654   6.776  20.686  0.00  0.00    +0.000 A 
ATOM      4  C   UNL     1       1.648   7.872  19.810  0.00  0.00    +0.000 A 
ATOM      5  C   UNL     1       1.061   9.096  20.164  0.00  0.00    +0.000 A 
ATOM      6  C   UNL     1       1.087  10.190  19.294  0.00  0.00    +0.000 A 
ATOM      7  C   UNL     1       1.696  10.065  18.053  0.00  0.00    +0.000 A 
ATOM      8  C   UNL     1       2.274   8.847  17.678  0.00  0.00    +0.000 A 
ATOM      9  C   UNL     1       2.268   7.748  18.550  0.00  0.00    +0.000 A 
ATOM     10  C   UNL     1       2.893   6.539  18.207  0.00  0.00    +0.000 A 
ENDROOT
BRANCH   1  11
ATOM     11  C   UNL     1       3.719   4.179  18.761  0.00  0.00    +0.000 C 
BRANCH  11  12
ATOM     12  N   UNL     1       5.148   4.479  18.666  0.00  0.00    +0.000 N 
ATOM     13  N   UNL     1       5.872   4.335  17.529  0.00  0.00    +0.000 NA
ATOM     14  C   UNL     1       7.064   4.756  17.964  0.00  0.00    +0.000 A 
ATOM     15  N   UNL     1       7.066   5.170  19.263  0.00  0.00    +0.000 NA
ATOM     16  N   UNL     1       5.829   4.999  19.711  0.00  0.00    +0.000 NA
ENDBRANCH  11  12
BRANCH  11  18
ATOM     17  C   UNL     1       2.203   2.162  19.216  0.00  0.00    +0.000 C 
ATOM     18  C   UNL     1       3.396   2.990  19.721  0.00  0.00    +0.000 C 
ATOM     19  C   UNL     1       4.584   2.034  19.903  0.00  0.00    +0.000 C 
ENDBRANCH  11  18
ENDBRANCH   1  11
BRANCH   6  20
ATOM     20  O   UNL     1       0.545  11.337  19.800  0.00  0.00    +0.000 OA
BRANCH  20  21
ATOM     21  C   UNL     1      -0.827  11.274  20.205  0.00  0.00    +0.000 C 
BRANCH  21  22
ATOM     22  C   UNL     1      -1.754  11.360  18.995  0.00  0.00    +0.000 C 
ATOM     23  F   UNL     1      -2.032  10.154  18.453  0.00  0.00    +0.000 F 
ATOM     24  F   UNL     1      -2.936  11.928  19.338  0.00  0.00    +0.000 F 
ATOM     25  F   UNL     1      -1.211  12.127  18.021  0.00  0.00    +0.000 F 
ENDBRANCH  21  22
ENDBRANCH  20  21
ENDBRANCH   6  20
TORSDOF 6
ENDMDL
MODEL 5
REMARK VINA RESULT:      -7.7      1.606      2.580
REMARK  Name = 
REMARK  8 active torsions:
REMARK  status: ('A' for Active; 'I' for Inactive)
REMARK    1  A    between atoms: C_1  and  C_2
REMARK    2  A    between atoms: C_2  and  C_3
REMARK    3  A    between atoms: C_2  and  C_4
REMARK    4  A    between atoms: C_4  and  C_5
REMARK    5  A    between atoms: C_4  and  N_21
REMARK    6  A    between atoms: C_10  and  O_11
REMARK    7  A    between atoms: O_11  and  C_12
REMARK    8  A    between atoms: C_12  and  C_13
REMARK                            x       y       z     vdW  Elec       q    Type
REMARK                         _______ _______ _______ _____ _____    ______ ____
ROOT
ATOM      1  C   UNL     1       3.263   6.629  18.397  0.00  0.00    +0.000 A 
ATOM      2  C   UNL     1       3.057   7.661  17.471  0.00  0.00    +0.000 A 
ATOM      3  C   UNL     1       2.229   8.745  17.788  0.00  0.00    +0.000 A 
ATOM      4  C   UNL     1       1.576   8.815  19.029  0.00  0.00    +0.000 A 
ATOM      5  C   UNL     1       0.691   9.857  19.339  0.00  0.00    +0.000 A 
ATOM      6  C   UNL     1       0.024   9.900  20.567  0.00  0.00    +0.000 A 
ATOM      7  C   UNL     1       0.245   8.899  21.503  0.00  0.00    +0.000 A 
ATOM      8  C   UNL     1       1.137   7.858  21.216  0.00  0.00    +0.000 A 
ATOM      9  C   UNL     1       1.798   7.798  19.980  0.00  0.00    +0.000 A 
ATOM     10  C   UNL     1       2.651   6.730  19.659  0.00  0.00    +0.000 A 
ENDROOT
BRANCH   1  11
ATOM     11  C   UNL     1       4.110   5.410  18.020  0.00  0.00    +0.000 C 
BRANCH  11  12
ATOM     12  N   UNL     1       3.291   4.200  18.098  0.00  0.00    +0.000 N 
ATOM     13  N   UNL     1       3.609   3.126  18.862  0.00  0.00    +0.000 NA
ATOM     14  C   UNL     1       2.555   2.344  18.603  0.00  0.00    +0.000 A 
ATOM     15  N   UNL     1       1.634   2.912  17.774  0.00  0.00    +0.000 NA
ATOM     16  N   UNL     1       2.105   4.112  17.458  0.00  0.00    +0.000 NA
ENDBRANCH  11  12
BRANCH  11  18
ATOM     17  C   UNL     1       6.177   6.330  16.813  0.00  0.00    +0.000 C 
ATOM     18  C   UNL     1       4.848   5.574  16.653  0.00  0.00    +0.000 C 
ATOM     19  C   UNL     1       5.156   4.228  15.980  0.00  0.00    +0.000 C 
ENDBRANCH  11  18
ENDBRANCH   1  11
BRANCH   6  20
ATOM     20  O   UNL     1      -0.863  10.930  20.702  0.00  0.00    +0.000 OA
BRANCH  20  21
ATOM     21  C   UNL     1      -0.519  11.956  21.639  0.00  0.00    +0.000 C 
BRANCH  21  22
ATOM     22  C   UNL     1      -1.504  11.975  22.807  0.00  0.00    +0.000 C 
ATOM     23  F   UNL     1      -1.482  10.839  23.538  0.00  0.00    +0.000 F 
ATOM     24  F   UNL     1      -1.226  13.000  23.649  0.00  0.00    +0.000 F 
ATOM     25  F   UNL     1      -2.772  12.152  22.369  0.00  0.00    +0.000 F 
ENDBRANCH  21  22
ENDBRANCH  20  21
ENDBRANCH   6  20
TORSDOF 6
ENDMDL
MODEL 6
REMARK VINA RESULT:      -7.7      5.757      7.965
REMARK  Name = 
REMARK  8 active torsions:
REMARK  status: ('A' for Active; 'I' for Inactive)
REMARK    1  A    between atoms: C_1  and  C_2
REMARK    2  A    between atoms: C_2  and  C_3
REMARK    3  A    between atoms: C_2  and  C_4
REMARK    4  A    between atoms: C_4  and  C_5
REMARK    5  A    between atoms: C_4  and  N_21
REMARK    6  A    between atoms: C_10  and  O_11
REMARK    7  A    between atoms: O_11  and  C_12
REMARK    8  A    between atoms: C_12  and  C_13
REMARK                            x       y       z     vdW  Elec       q    Type
REMARK                         _______ _______ _______ _____ _____    ______ ____
ROOT
ATOM      1  C   UNL     1       1.084   9.615  19.222  0.00  0.00    +0.000 A 
ATOM      2  C   UNL     1       1.778   9.561  18.005  0.00  0.00    +0.000 A 
ATOM      3  C   UNL     1       2.521   8.424  17.661  0.00  0.00    +0.000 A 
ATOM      4  C   UNL     1       2.599   7.325  18.529  0.00  0.00    +0.000 A 
ATOM      5  C   UNL     1       3.391   6.205  18.232  0.00  0.00    +0.000 A 
ATOM      6  C   UNL     1       3.484   5.128  19.119  0.00  0.00    +0.000 A 
ATOM      7  C   UNL     1       2.776   5.158  20.312  0.00  0.00    +0.000 A 
ATOM      8  C   UNL     1       1.970   6.261  20.618  0.00  0.00    +0.000 A 
ATOM      9  C   UNL     1       1.882   7.354  19.743  0.00  0.00    +0.000 A 
ATOM     10  C   UNL     1       1.121   8.489  20.064  0.00  0.00    +0.000 A 
ENDROOT
BRANCH   1  11
ATOM     11  C   UNL     1       0.334  10.886  19.629  0.00  0.00    +0.000 C 
BRANCH  11  12
ATOM     12  N   UNL     1       1.295  11.938  19.964  0.00  0.00    +0.000 N 
ATOM     13  N   UNL     1       1.931  12.697  19.037  0.00  0.00    +0.000 NA
ATOM     14  C   UNL     1       2.644  13.490  19.844  0.00  0.00    +0.000 A 
ATOM     15  N   UNL     1       2.430  13.265  21.172  0.00  0.00    +0.000 NA
ATOM     16  N   UNL     1       1.555  12.271  21.247  0.00  0.00    +0.000 NA
ENDBRANCH  11  12
BRANCH  11  18
ATOM     17  C   UNL     1      -1.667  10.174  18.192  0.00  0.00    +0.000 C 
ATOM     18  C   UNL     1      -0.733  11.332  18.578  0.00  0.00    +0.000 C 
ATOM     19  C   UNL     1      -1.609  12.491  19.077  0.00  0.00    +0.000 C 
ENDBRANCH  11  18
ENDBRANCH   1  11
BRANCH   6  20
ATOM     20  O   UNL     1       4.350   4.143  18.734  0.00  0.00    +0.000 OA
BRANCH  20  21
ATOM     21  C   UNL     1       4.215   2.878  19.389  0.00  0.00    +0.000 C 
BRANCH  21  22
ATOM     22  C   UNL     1       3.300   1.949  18.593  0.00  0.00    +0.000 C 
ATOM     23  F   UNL     1       2.099   1.755  19.180  0.00  0.00    +0.000 F 
ATOM     24  F   UNL     1       3.066   2.454  17.357  0.00  0.00    +0.000 F 
ATOM     25  F   UNL     1       3.872   0.733  18.425  0.00  0.00    +0.000 F 
ENDBRANCH  21  22
ENDBRANCH  20  21
ENDBRANCH   6  20
TORSDOF 6
ENDMDL
MODEL 7
REMARK VINA RESULT:      -7.6      2.026      2.539
REMARK  Name = 
REMARK  8 active torsions:
REMARK  status: ('A' for Active; 'I' for Inactive)
REMARK    1  A    between atoms: C_1  and  C_2
REMARK    2  A    between atoms: C_2  and  C_3
REMARK    3  A    between atoms: C_2  and  C_4
REMARK    4  A    between atoms: C_4  and  C_5
REMARK    5  A    between atoms: C_4  and  N_21
REMARK    6  A    between atoms: C_10  and  O_11
REMARK    7  A    between atoms: O_11  and  C_12
REMARK    8  A    between atoms: C_12  and  C_13
REMARK                            x       y       z     vdW  Elec       q    Type
REMARK                         _______ _______ _______ _____ _____    ______ ____
ROOT
ATOM      1  C   UNL     1       3.336   6.035  18.710  0.00  0.00    +0.000 A 
ATOM      2  C   UNL     1       3.377   6.937  17.638  0.00  0.00    +0.000 A 
ATOM      3  C   UNL     1       2.692   8.157  17.710  0.00  0.00    +0.000 A 
ATOM      4  C   UNL     1       1.940   8.496  18.845  0.00  0.00    +0.000 A 
ATOM      5  C   UNL     1       1.195   9.683  18.909  0.00  0.00    +0.000 A 
ATOM      6  C   UNL     1       0.426   9.995  20.035  0.00  0.00    +0.000 A 
ATOM      7  C   UNL     1       0.404   9.124  21.115  0.00  0.00    +0.000 A 
ATOM      8  C   UNL     1       1.154   7.942  21.074  0.00  0.00    +0.000 A 
ATOM      9  C   UNL     1       1.915   7.611  19.942  0.00  0.00    +0.000 A 
ATOM     10  C   UNL     1       2.626   6.403  19.868  0.00  0.00    +0.000 A 
ENDROOT
BRANCH   1  11
ATOM     11  C   UNL     1       4.024   4.672  18.600  0.00  0.00    +0.000 C 
BRANCH  11  12
ATOM     12  N   UNL     1       5.476   4.851  18.625  0.00  0.00    +0.000 N 
ATOM     13  N   UNL     1       6.137   5.489  19.622  0.00  0.00    +0.000 NA
ATOM     14  C   UNL     1       7.393   5.351  19.185  0.00  0.00    +0.000 A 
ATOM     15  N   UNL     1       7.502   4.642  18.025  0.00  0.00    +0.000 NA
ATOM     16  N   UNL     1       6.267   4.313  17.671  0.00  0.00    +0.000 NA
ENDBRANCH  11  12
BRANCH  11  18
ATOM     17  C   UNL     1       2.134   3.069  19.261  0.00  0.00    +0.000 C 
ATOM     18  C   UNL     1       3.508   3.637  19.652  0.00  0.00    +0.000 C 
ATOM     19  C   UNL     1       4.466   2.452  19.839  0.00  0.00    +0.000 C 
ENDBRANCH  11  18
ENDBRANCH   1  11
BRANCH   6  20
ATOM     20  O   UNL     1      -0.306  11.144  19.927  0.00  0.00    +0.000 OA
BRANCH  20  21
ATOM     21  C   UNL     1      -0.616  11.585  18.601  0.00  0.00    +0.000 C 
BRANCH  21  22
ATOM     22  C   UNL     1      -2.036  11.177  18.211  0.00  0.00    +0.000 C 
ATOM     23  F   UNL     1      -2.211   9.838  18.173  0.00  0.00    +0.000 F 
ATOM     24  F   UNL     1      -2.935  11.675  19.094  0.00  0.00    +0.000 F 
ATOM     25  F   UNL     1      -2.363  11.664  16.991  0.00  0.00    +0.000 F 
ENDBRANCH  21  22
ENDBRANCH  20  21
ENDBRANCH   6  20
TORSDOF 6
ENDMDL
MODEL 8
REMARK VINA RESULT:      -7.6      1.558      1.783
REMARK  Name = 
REMARK  8 active torsions:
REMARK  status: ('A' for Active; 'I' for Inactive)
REMARK    1  A    between atoms: C_1  and  C_2
REMARK    2  A    between atoms: C_2  and  C_3
REMARK    3  A    between atoms: C_2  and  C_4
REMARK    4  A    between atoms: C_4  and  C_5
REMARK    5  A    between atoms: C_4  and  N_21
REMARK    6  A    between atoms: C_10  and  O_11
REMARK    7  A    between atoms: O_11  and  C_12
REMARK    8  A    between atoms: C_12  and  C_13
REMARK                            x       y       z     vdW  Elec       q    Type
REMARK                         _______ _______ _______ _____ _____    ______ ____
ROOT
ATOM      1  C   UNL     1       3.094   6.771  18.301  0.00  0.00    +0.000 A 
ATOM      2  C   UNL     1       2.916   7.852  17.427  0.00  0.00    +0.000 A 
ATOM      3  C   UNL     1       2.157   8.963  17.817  0.00  0.00    +0.000 A 
ATOM      4  C   UNL     1       1.548   9.012  19.080  0.00  0.00    +0.000 A 
ATOM      5  C   UNL     1       0.730  10.086  19.463  0.00  0.00    +0.000 A 
ATOM      6  C   UNL     1       0.105  10.110  20.714  0.00  0.00    +0.000 A 
ATOM      7  C   UNL     1       0.301   9.059  21.599  0.00  0.00    +0.000 A 
ATOM      8  C   UNL     1       1.125   7.986  21.238  0.00  0.00    +0.000 A 
ATOM      9  C   UNL     1       1.744   7.945  19.980  0.00  0.00    +0.000 A 
ATOM     10  C   UNL     1       2.528   6.849  19.587  0.00  0.00    +0.000 A 
ENDROOT
BRANCH   1  11
ATOM     11  C   UNL     1       3.862   5.527  17.846  0.00  0.00    +0.000 C 
BRANCH  11  12
ATOM     12  N   UNL     1       5.235   5.585  18.350  0.00  0.00    +0.000 N 
ATOM     13  N   UNL     1       6.268   6.117  17.652  0.00  0.00    +0.000 NA
ATOM     14  C   UNL     1       7.252   5.953  18.543  0.00  0.00    +0.000 A 
ATOM     15  N   UNL     1       6.846   5.398  19.720  0.00  0.00    +0.000 NA
ATOM     16  N   UNL     1       5.544   5.171  19.597  0.00  0.00    +0.000 NA
ENDBRANCH  11  12
BRANCH  11  18
ATOM     17  C   UNL     1       1.669   4.203  17.713  0.00  0.00    +0.000 C 
ATOM     18  C   UNL     1       3.129   4.191  18.195  0.00  0.00    +0.000 C 
ATOM     19  C   UNL     1       3.812   2.961  17.581  0.00  0.00    +0.000 C 
ENDBRANCH  11  18
ENDBRANCH   1  11
BRANCH   6  20
ATOM     20  O   UNL     1      -0.721  11.178  20.920  0.00  0.00    +0.000 OA
BRANCH  20  21
ATOM     21  C   UNL     1      -1.365  11.725  19.765  0.00  0.00    +0.000 C 
BRANCH  21  22
ATOM     22  C   UNL     1      -0.954  13.180  19.552  0.00  0.00    +0.000 C 
ATOM     23  F   UNL     1      -0.782  13.499  18.251  0.00  0.00    +0.000 F 
ATOM     24  F   UNL     1      -1.895  14.019  20.050  0.00  0.00    +0.000 F 
ATOM     25  F   UNL     1       0.205  13.456  20.194  0.00  0.00    +0.000 F 
ENDBRANCH  21  22
ENDBRANCH  20  21
ENDBRANCH   6  20
TORSDOF 6
ENDMDL
MODEL 9
REMARK VINA RESULT:      -7.6      1.245      2.167
REMARK  Name = 
REMARK  8 active torsions:
REMARK  status: ('A' for Active; 'I' for Inactive)
REMARK    1  A    between atoms: C_1  and  C_2
REMARK    2  A    between atoms: C_2  and  C_3
REMARK    3  A    between atoms: C_2  and  C_4
REMARK    4  A    between atoms: C_4  and  C_5
REMARK    5  A    between atoms: C_4  and  N_21
REMARK    6  A    between atoms: C_10  and  O_11
REMARK    7  A    between atoms: O_11  and  C_12
REMARK    8  A    between atoms: C_12  and  C_13
REMARK                            x       y       z     vdW  Elec       q    Type
REMARK                         _______ _______ _______ _____ _____    ______ ____
ROOT
ATOM      1  C   UNL     1       3.121   5.503  18.852  0.00  0.00    +0.000 A 
ATOM      2  C   UNL     1       2.540   5.451  20.127  0.00  0.00    +0.000 A 
ATOM      3  C   UNL     1       1.847   6.555  20.637  0.00  0.00    +0.000 A 
ATOM      4  C   UNL     1       1.731   7.740  19.894  0.00  0.00    +0.000 A 
ATOM      5  C   UNL     1       1.098   8.879  20.414  0.00  0.00    +0.000 A 
ATOM      6  C   UNL     1       1.015  10.063  19.675  0.00  0.00    +0.000 A 
ATOM      7  C   UNL     1       1.559  10.114  18.399  0.00  0.00    +0.000 A 
ATOM      8  C   UNL     1       2.182   8.983  17.858  0.00  0.00    +0.000 A 
ATOM      9  C   UNL     1       2.285   7.796  18.598  0.00  0.00    +0.000 A 
ATOM     10  C   UNL     1       2.955   6.673  18.088  0.00  0.00    +0.000 A 
ENDROOT
BRANCH   1  11
ATOM     11  C   UNL     1       3.941   4.321  18.327  0.00  0.00    +0.000 C 
BRANCH  11  12
ATOM     12  N   UNL     1       5.368   4.610  18.473  0.00  0.00    +0.000 N 
ATOM     13  N   UNL     1       6.273   4.444  17.478  0.00  0.00    +0.000 NA
ATOM     14  C   UNL     1       7.378   4.864  18.104  0.00  0.00    +0.000 A 
ATOM     15  N   UNL     1       7.161   5.297  19.379  0.00  0.00    +0.000 NA
ATOM     16  N   UNL     1       5.864   5.141  19.611  0.00  0.00    +0.000 NA
ENDBRANCH  11  12
BRANCH  11  18
ATOM     17  C   UNL     1       3.246   1.895  17.869  0.00  0.00    +0.000 C 
ATOM     18  C   UNL     1       3.516   2.953  18.951  0.00  0.00    +0.000 C 
ATOM     19  C   UNL     1       4.574   2.383  19.907  0.00  0.00    +0.000 C 
ENDBRANCH  11  18
ENDBRANCH   1  11
BRANCH   6  20
ATOM     20  O   UNL     1       0.440  11.111  20.336  0.00  0.00    +0.000 OA
BRANCH  20  21
ATOM     21  C   UNL     1      -0.838  10.869  20.933  0.00  0.00    +0.000 C 
BRANCH  21  22
ATOM     22  C   UNL     1      -0.871  11.385  22.370  0.00  0.00    +0.000 C 
ATOM     23  F   UNL     1      -0.269  12.586  22.517  0.00  0.00    +0.000 F 
ATOM     24  F   UNL     1      -2.149  11.521  22.800  0.00  0.00    +0.000 F 
ATOM     25  F   UNL     1      -0.258  10.519  23.211  0.00  0.00    +0.000 F 
ENDBRANCH  21  22
ENDBRANCH  20  21
ENDBRANCH   6  20
TORSDOF 6
ENDMDL
