MODEL 1
REMARK VINA RESULT:      -8.1      0.000      0.000
REMARK  Name = 
REMARK  4 active torsions:
REMARK  status: ('A' for Active; 'I' for Inactive)
REMARK    1  A    between atoms: C_1  and  O_2
REMARK    2  A    between atoms: O_2  and  C_3
REMARK    3  A    between atoms: C_6  and  N_7
REMARK    4  A    between atoms: C_14  and  C_15
REMARK                            x       y       z     vdW  Elec       q    Type
REMARK                         _______ _______ _______ _____ _____    ______ ____
ROOT
ATOM      1  N   UNL     1       1.142  10.500  19.652  0.00  0.00    +0.000 N 
ATOM      2  C   UNL     1       0.829  10.065  20.930  0.00  0.00    +0.000 C 
ATOM      3  O   UNL     1       0.107  10.641  21.749  0.00  0.00    +0.000 OA
ATOM      4  N   UNL     1       1.257   8.842  21.337  0.00  0.00    +0.000 N 
ATOM      5  C   UNL     1       1.604   7.788  20.511  0.00  0.00    +0.000 C 
ATOM      6  O   UNL     1       1.528   6.647  20.937  0.00  0.00    +0.000 OA
ATOM      7  C   UNL     1       2.002   8.178  19.164  0.00  0.00    +0.000 C 
ATOM      8  C   UNL     1       2.553   7.328  18.268  0.00  0.00    +0.000 C 
ATOM      9  C   UNL     1       1.733   9.626  18.709  0.00  0.00    +0.000 C 
ATOM     10  O   UNL     1       2.036   9.942  17.562  0.00  0.00    +0.000 OA
ATOM     11  H   UNL     1       0.919   8.554  22.249  0.00  0.00    +0.000 HD
ENDROOT
BRANCH   8  12
ATOM     12  C   UNL     1       2.835   5.906  18.122  0.00  0.00    +0.000 A 
ATOM     13  C   UNL     1       4.145   5.610  17.760  0.00  0.00    +0.000 A 
ATOM     14  N   UNL     1       4.058   4.494  16.985  0.00  0.00    +0.000 N 
ATOM     15  C   UNL     1       3.147   3.691  17.626  0.00  0.00    +0.000 A 
ATOM     16  C   UNL     1       3.024   2.299  17.555  0.00  0.00    +0.000 A 
ATOM     17  C   UNL     1       2.026   1.710  18.311  0.00  0.00    +0.000 A 
ATOM     18  C   UNL     1       1.144   2.511  19.033  0.00  0.00    +0.000 A 
ATOM     19  C   UNL     1       1.246   3.926  19.025  0.00  0.00    +0.000 A 
ATOM     20  C   UNL     1       2.299   4.567  18.337  0.00  0.00    +0.000 A 
ATOM     21  H   UNL     1       4.104   4.508  15.978  0.00  0.00    +0.000 HD
ENDBRANCH   8  12
BRANCH   1  25
ATOM     22  C   UNL     1       0.111  14.652  18.685  0.00  0.00    +0.000 A 
ATOM     23  C   UNL     1       1.329  14.321  19.264  0.00  0.00    +0.000 A 
ATOM     24  C   UNL     1       1.660  12.976  19.530  0.00  0.00    +0.000 A 
ATOM     25  C   UNL     1       0.781  11.901  19.281  0.00  0.00    +0.000 A 
ATOM     26  C   UNL     1      -0.447  12.275  18.692  0.00  0.00    +0.000 A 
ATOM     27  C   UNL     1      -0.767  13.627  18.402  0.00  0.00    +0.000 A 
BRANCH  22  29
ATOM     28  C   UNL     1       1.062  16.828  18.512  0.00  0.00    +0.000 C 
ATOM     29  O   UNL     1      -0.093  15.997  18.518  0.00  0.00    +0.000 OA
ENDBRANCH  22  29
ENDBRANCH   1  25
TORSDOF 3
ENDMDL
MODEL 2
REMARK VINA RESULT:      -8.1      2.990      8.347
REMARK  Name = 
REMARK  4 active torsions:
REMARK  status: ('A' for Active; 'I' for Inactive)
REMARK    1  A    between atoms: C_1  and  O_2
REMARK    2  A    between atoms: O_2  and  C_3
REMARK    3  A    between atoms: C_6  and  N_7
REMARK    4  A    between atoms: C_14  and  C_15
REMARK                            x       y       z     vdW  Elec       q    Type
REMARK                         _______ _______ _______ _____ _____    ______ ____
ROOT
ATOM      1  N   UNL     1       3.429   6.615  18.477  0.00  0.00    +0.000 N 
ATOM      2  C   UNL     1       3.167   5.956  19.668  0.00  0.00    +0.000 C 
ATOM      3  O   UNL     1       3.836   5.048  20.171  0.00  0.00    +0.000 OA
ATOM      4  N   UNL     1       2.137   6.377  20.445  0.00  0.00    +0.000 N 
ATOM      5  C   UNL     1       1.569   7.639  20.426  0.00  0.00    +0.000 C 
ATOM      6  O   UNL     1       0.999   8.051  21.423  0.00  0.00    +0.000 OA
ATOM      7  C   UNL     1       1.756   8.369  19.178  0.00  0.00    +0.000 C 
ATOM      8  C   UNL     1       1.126   9.530  18.886  0.00  0.00    +0.000 C 
ATOM      9  C   UNL     1       2.767   7.823  18.151  0.00  0.00    +0.000 C 
ATOM     10  O   UNL     1       2.950   8.459  17.118  0.00  0.00    +0.000 OA
ATOM     11  H   UNL     1       2.057   5.905  21.340  0.00  0.00    +0.000 HD
ENDROOT
BRANCH   8  12
ATOM     12  C   UNL     1       0.270  10.516  19.532  0.00  0.00    +0.000 A 
ATOM     13  C   UNL     1       0.922  11.339  20.444  0.00  0.00    +0.000 A 
ATOM     14  N   UNL     1      -0.001  11.605  21.409  0.00  0.00    +0.000 N 
ATOM     15  C   UNL     1      -1.166  11.845  20.723  0.00  0.00    +0.000 A 
ATOM     16  C   UNL     1      -2.270  12.599  21.137  0.00  0.00    +0.000 A 
ATOM     17  C   UNL     1      -3.331  12.708  20.255  0.00  0.00    +0.000 A 
ATOM     18  C   UNL     1      -3.300  12.011  19.050  0.00  0.00    +0.000 A 
ATOM     19  C   UNL     1      -2.199  11.192  18.690  0.00  0.00    +0.000 A 
ATOM     20  C   UNL     1      -1.058  11.117  19.519  0.00  0.00    +0.000 A 
ATOM     21  H   UNL     1      -0.024  11.141  22.304  0.00  0.00    +0.000 HD
ENDBRANCH   8  12
BRANCH   1  25
ATOM     22  C   UNL     1       6.526   5.063  15.786  0.00  0.00    +0.000 A 
ATOM     23  C   UNL     1       6.774   6.127  16.645  0.00  0.00    +0.000 A 
ATOM     24  C   UNL     1       5.779   6.585  17.532  0.00  0.00    +0.000 A 
ATOM     25  C   UNL     1       4.476   6.045  17.577  0.00  0.00    +0.000 A 
ATOM     26  C   UNL     1       4.260   4.966  16.692  0.00  0.00    +0.000 A 
ATOM     27  C   UNL     1       5.273   4.490  15.817  0.00  0.00    +0.000 A 
BRANCH  22  29
ATOM     28  C   UNL     1       7.315   4.801  13.556  0.00  0.00    +0.000 C 
ATOM     29  O   UNL     1       7.569   4.749  14.954  0.00  0.00    +0.000 OA
ENDBRANCH  22  29
ENDBRANCH   1  25
TORSDOF 3
ENDMDL
MODEL 3
REMARK VINA RESULT:      -8.0      3.063      8.276
REMARK  Name = 
REMARK  4 active torsions:
REMARK  status: ('A' for Active; 'I' for Inactive)
REMARK    1  A    between atoms: C_1  and  O_2
REMARK    2  A    between atoms: O_2  and  C_3
REMARK    3  A    between atoms: C_6  and  N_7
REMARK    4  A    between atoms: C_14  and  C_15
REMARK                            x       y       z     vdW  Elec       q    Type
REMARK                         _______ _______ _______ _____ _____    ______ ____
ROOT
ATOM      1  N   UNL     1       3.555   6.503  18.385  0.00  0.00    +0.000 N 
ATOM      2  C   UNL     1       3.324   5.797  19.555  0.00  0.00    +0.000 C 
ATOM      3  O   UNL     1       4.031   4.901  20.026  0.00  0.00    +0.000 OA
ATOM      4  N   UNL     1       2.282   6.151  20.349  0.00  0.00    +0.000 N 
ATOM      5  C   UNL     1       1.664   7.390  20.372  0.00  0.00    +0.000 C 
ATOM      6  O   UNL     1       1.083   7.746  21.383  0.00  0.00    +0.000 OA
ATOM      7  C   UNL     1       1.817   8.166  19.148  0.00  0.00    +0.000 C 
ATOM      8  C   UNL     1       1.140   9.310  18.895  0.00  0.00    +0.000 C 
ATOM      9  C   UNL     1       2.844   7.693  18.100  0.00  0.00    +0.000 C 
ATOM     10  O   UNL     1       2.997   8.369  17.087  0.00  0.00    +0.000 OA
ATOM     11  H   UNL     1       2.225   5.648  21.228  0.00  0.00    +0.000 HD
ENDROOT
BRANCH   8  12
ATOM     12  C   UNL     1       0.249  10.240  19.575  0.00  0.00    +0.000 A 
ATOM     13  C   UNL     1      -0.521  11.029  18.726  0.00  0.00    +0.000 A 
ATOM     14  N   UNL     1      -0.665  12.217  19.376  0.00  0.00    +0.000 N 
ATOM     15  C   UNL     1      -0.913  11.875  20.682  0.00  0.00    +0.000 A 
ATOM     16  C   UNL     1      -1.582  12.623  21.658  0.00  0.00    +0.000 A 
ATOM     17  C   UNL     1      -1.720  12.053  22.912  0.00  0.00    +0.000 A 
ATOM     18  C   UNL     1      -1.129  10.821  23.177  0.00  0.00    +0.000 A 
ATOM     19  C   UNL     1      -0.391  10.119  22.190  0.00  0.00    +0.000 A 
ATOM     20  C   UNL     1      -0.295  10.620  20.873  0.00  0.00    +0.000 A 
ATOM     21  H   UNL     1      -0.127  13.041  19.160  0.00  0.00    +0.000 HD
ENDBRANCH   8  12
BRANCH   1  25
ATOM     22  C   UNL     1       6.702   5.163  15.639  0.00  0.00    +0.000 A 
ATOM     23  C   UNL     1       6.923   6.181  16.558  0.00  0.00    +0.000 A 
ATOM     24  C   UNL     1       5.912   6.570  17.461  0.00  0.00    +0.000 A 
ATOM     25  C   UNL     1       4.620   6.004  17.463  0.00  0.00    +0.000 A 
ATOM     26  C   UNL     1       4.431   4.973  16.517  0.00  0.00    +0.000 A 
ATOM     27  C   UNL     1       5.459   4.566  15.626  0.00  0.00    +0.000 A 
BRANCH  22  29
ATOM     28  C   UNL     1       7.475   4.871  13.406  0.00  0.00    +0.000 C 
ATOM     29  O   UNL     1       7.756   4.915  14.800  0.00  0.00    +0.000 OA
ENDBRANCH  22  29
ENDBRANCH   1  25
TORSDOF 3
ENDMDL
MODEL 4
REMARK VINA RESULT:      -8.0      2.900      8.484
REMARK  Name = 
REMARK  4 active torsions:
REMARK  status: ('A' for Active; 'I' for Inactive)
REMARK    1  A    between atoms: C_1  and  O_2
REMARK    2  A    between atoms: O_2  and  C_3
REMARK    3  A    between atoms: C_6  and  N_7
REMARK    4  A    between atoms: C_14  and  C_15
REMARK                            x       y       z     vdW  Elec       q    Type
REMARK                         _______ _______ _______ _____ _____    ______ ____
ROOT
ATOM      1  N   UNL     1       3.141   6.746  18.524  0.00  0.00    +0.000 N 
ATOM      2  C   UNL     1       2.954   6.119  19.746  0.00  0.00    +0.000 C 
ATOM      3  O   UNL     1       3.635   5.201  20.214  0.00  0.00    +0.000 OA
ATOM      4  N   UNL     1       2.001   6.585  20.592  0.00  0.00    +0.000 N 
ATOM      5  C   UNL     1       1.470   7.863  20.590  0.00  0.00    +0.000 C 
ATOM      6  O   UNL     1       0.993   8.311  21.620  0.00  0.00    +0.000 OA
ATOM      7  C   UNL     1       1.579   8.563  19.316  0.00  0.00    +0.000 C 
ATOM      8  C   UNL     1       0.961   9.737  19.050  0.00  0.00    +0.000 C 
ATOM      9  C   UNL     1       2.490   7.967  18.225  0.00  0.00    +0.000 C 
ATOM     10  O   UNL     1       2.609   8.577  17.167  0.00  0.00    +0.000 OA
ATOM     11  H   UNL     1       1.979   6.133  21.500  0.00  0.00    +0.000 HD
ENDROOT
BRANCH   8  12
ATOM     12  C   UNL     1       0.188  10.761  19.739  0.00  0.00    +0.000 A 
ATOM     13  C   UNL     1       0.933  11.579  20.582  0.00  0.00    +0.000 A 
ATOM     14  N   UNL     1       0.096  11.891  21.609  0.00  0.00    +0.000 N 
ATOM     15  C   UNL     1      -1.112  12.155  21.011  0.00  0.00    +0.000 A 
ATOM     16  C   UNL     1      -2.158  12.950  21.492  0.00  0.00    +0.000 A 
ATOM     17  C   UNL     1      -3.280  13.076  20.692  0.00  0.00    +0.000 A 
ATOM     18  C   UNL     1      -3.363  12.357  19.503  0.00  0.00    +0.000 A 
ATOM     19  C   UNL     1      -2.317  11.498  19.076  0.00  0.00    +0.000 A 
ATOM     20  C   UNL     1      -1.119  11.403  19.816  0.00  0.00    +0.000 A 
ATOM     21  H   UNL     1       0.128  11.444  22.512  0.00  0.00    +0.000 HD
ENDBRANCH   8  12
BRANCH   1  25
ATOM     22  C   UNL     1       5.950   4.821  15.760  0.00  0.00    +0.000 A 
ATOM     23  C   UNL     1       4.769   4.200  16.147  0.00  0.00    +0.000 A 
ATOM     24  C   UNL     1       3.859   4.852  17.004  0.00  0.00    +0.000 A 
ATOM     25  C   UNL     1       4.097   6.128  17.557  0.00  0.00    +0.000 A 
ATOM     26  C   UNL     1       5.305   6.729  17.141  0.00  0.00    +0.000 A 
ATOM     27  C   UNL     1       6.208   6.081  16.258  0.00  0.00    +0.000 A 
BRANCH  22  29
ATOM     28  C   UNL     1       6.326   3.858  13.616  0.00  0.00    +0.000 C 
ATOM     29  O   UNL     1       6.757   4.059  14.956  0.00  0.00    +0.000 OA
ENDBRANCH  22  29
ENDBRANCH   1  25
TORSDOF 3
ENDMDL
MODEL 5
REMARK VINA RESULT:      -7.9      2.760      8.504
REMARK  Name = 
REMARK  4 active torsions:
REMARK  status: ('A' for Active; 'I' for Inactive)
REMARK    1  A    between atoms: C_1  and  O_2
REMARK    2  A    between atoms: O_2  and  C_3
REMARK    3  A    between atoms: C_6  and  N_7
REMARK    4  A    between atoms: C_14  and  C_15
REMARK                            x       y       z     vdW  Elec       q    Type
REMARK                         _______ _______ _______ _____ _____    ______ ____
ROOT
ATOM      1  N   UNL     1       2.866   6.718  18.651  0.00  0.00    +0.000 N 
ATOM      2  C   UNL     1       2.652   6.127  19.886  0.00  0.00    +0.000 C 
ATOM      3  O   UNL     1       3.220   5.125  20.333  0.00  0.00    +0.000 OA
ATOM      4  N   UNL     1       1.813   6.725  20.770  0.00  0.00    +0.000 N 
ATOM      5  C   UNL     1       1.464   8.064  20.779  0.00  0.00    +0.000 C 
ATOM      6  O   UNL     1       1.103   8.578  21.825  0.00  0.00    +0.000 OA
ATOM      7  C   UNL     1       1.609   8.737  19.495  0.00  0.00    +0.000 C 
ATOM      8  C   UNL     1       1.149   9.984  19.245  0.00  0.00    +0.000 C 
ATOM      9  C   UNL     1       2.377   8.016  18.369  0.00  0.00    +0.000 C 
ATOM     10  O   UNL     1       2.530   8.600  17.301  0.00  0.00    +0.000 OA
ATOM     11  H   UNL     1       1.771   6.284  21.683  0.00  0.00    +0.000 HD
ENDROOT
BRANCH   8  12
ATOM     12  C   UNL     1       0.558  11.108  19.958  0.00  0.00    +0.000 A 
ATOM     13  C   UNL     1       0.550  12.305  19.249  0.00  0.00    +0.000 A 
ATOM     14  N   UNL     1       0.702  13.278  20.188  0.00  0.00    +0.000 N 
ATOM     15  C   UNL     1      -0.113  12.896  21.225  0.00  0.00    +0.000 A 
ATOM     16  C   UNL     1      -0.700  13.705  22.204  0.00  0.00    +0.000 A 
ATOM     17  C   UNL     1      -1.501  13.082  23.146  0.00  0.00    +0.000 A 
ATOM     18  C   UNL     1      -1.624  11.695  23.138  0.00  0.00    +0.000 A 
ATOM     19  C   UNL     1      -0.954  10.893  22.178  0.00  0.00    +0.000 A 
ATOM     20  C   UNL     1      -0.195  11.488  21.147  0.00  0.00    +0.000 A 
ATOM     21  H   UNL     1       1.576  13.745  20.374  0.00  0.00    +0.000 HD
ENDBRANCH   8  12
BRANCH   1  25
ATOM     22  C   UNL     1       5.284   4.428  15.797  0.00  0.00    +0.000 A 
ATOM     23  C   UNL     1       4.258   3.834  16.522  0.00  0.00    +0.000 A 
ATOM     24  C   UNL     1       3.465   4.596  17.405  0.00  0.00    +0.000 A 
ATOM     25  C   UNL     1       3.681   5.969  17.647  0.00  0.00    +0.000 A 
ATOM     26  C   UNL     1       4.730   6.538  16.893  0.00  0.00    +0.000 A 
ATOM     27  C   UNL     1       5.511   5.774  15.987  0.00  0.00    +0.000 A 
BRANCH  22  29
ATOM     28  C   UNL     1       6.294   3.995  13.686  0.00  0.00    +0.000 C 
ATOM     29  O   UNL     1       5.996   3.563  15.008  0.00  0.00    +0.000 OA
ENDBRANCH  22  29
ENDBRANCH   1  25
TORSDOF 3
ENDMDL
MODEL 6
REMARK VINA RESULT:      -7.9      3.330      5.305
REMARK  Name = 
REMARK  4 active torsions:
REMARK  status: ('A' for Active; 'I' for Inactive)
REMARK    1  A    between atoms: C_1  and  O_2
REMARK    2  A    between atoms: O_2  and  C_3
REMARK    3  A    between atoms: C_6  and  N_7
REMARK    4  A    between atoms: C_14  and  C_15
REMARK                            x       y       z     vdW  Elec       q    Type
REMARK                         _______ _______ _______ _____ _____    ______ ____
ROOT
ATOM      1  N   UNL     1       2.555   6.832  19.129  0.00  0.00    +0.000 N 
ATOM      2  C   UNL     1       2.404   5.543  19.612  0.00  0.00    +0.000 C 
ATOM      3  O   UNL     1       1.516   5.138  20.369  0.00  0.00    +0.000 OA
ATOM      4  N   UNL     1       3.232   4.565  19.163  0.00  0.00    +0.000 N 
ATOM      5  C   UNL     1       3.938   4.584  17.973  0.00  0.00    +0.000 C 
ATOM      6  O   UNL     1       4.267   3.527  17.459  0.00  0.00    +0.000 OA
ATOM      7  C   UNL     1       4.186   5.915  17.435  0.00  0.00    +0.000 C 
ATOM      8  C   UNL     1       5.011   6.162  16.392  0.00  0.00    +0.000 C 
ATOM      9  C   UNL     1       3.426   7.109  18.048  0.00  0.00    +0.000 C 
ATOM     10  O   UNL     1       3.609   8.224  17.569  0.00  0.00    +0.000 OA
ATOM     11  H   UNL     1       3.010   3.632  19.493  0.00  0.00    +0.000 HD
ENDROOT
BRANCH   8  12
ATOM     12  C   UNL     1       5.779   5.432  15.393  0.00  0.00    +0.000 A 
ATOM     13  C   UNL     1       7.122   5.255  15.710  0.00  0.00    +0.000 A 
ATOM     14  N   UNL     1       7.777   5.283  14.517  0.00  0.00    +0.000 N 
ATOM     15  C   UNL     1       6.995   4.538  13.669  0.00  0.00    +0.000 A 
ATOM     16  C   UNL     1       7.386   3.856  12.512  0.00  0.00    +0.000 A 
ATOM     17  C   UNL     1       6.408   3.156  11.826  0.00  0.00    +0.000 A 
ATOM     18  C   UNL     1       5.085   3.222  12.255  0.00  0.00    +0.000 A 
ATOM     19  C   UNL     1       4.706   3.985  13.389  0.00  0.00    +0.000 A 
ATOM     20  C   UNL     1       5.679   4.646  14.169  0.00  0.00    +0.000 A 
ATOM     21  H   UNL     1       8.277   6.088  14.172  0.00  0.00    +0.000 HD
ENDBRANCH   8  12
BRANCH   1  25
ATOM     22  C   UNL     1       0.039   9.910  20.982  0.00  0.00    +0.000 A 
ATOM     23  C   UNL     1       0.569   8.861  21.722  0.00  0.00    +0.000 A 
ATOM     24  C   UNL     1       1.409   7.904  21.117  0.00  0.00    +0.000 A 
ATOM     25  C   UNL     1       1.725   7.912  19.742  0.00  0.00    +0.000 A 
ATOM     26  C   UNL     1       1.170   8.993  19.022  0.00  0.00    +0.000 A 
ATOM     27  C   UNL     1       0.345   9.969  19.639  0.00  0.00    +0.000 A 
BRANCH  22  29
ATOM     28  C   UNL     1      -0.908  10.501  23.084  0.00  0.00    +0.000 C 
ATOM     29  O   UNL     1      -0.790  10.743  21.687  0.00  0.00    +0.000 OA
ENDBRANCH  22  29
ENDBRANCH   1  25
TORSDOF 3
ENDMDL
MODEL 7
REMARK VINA RESULT:      -7.6      2.564      8.493
REMARK  Name = 
REMARK  4 active torsions:
REMARK  status: ('A' for Active; 'I' for Inactive)
REMARK    1  A    between atoms: C_1  and  O_2
REMARK    2  A    between atoms: O_2  and  C_3
REMARK    3  A    between atoms: C_6  and  N_7
REMARK    4  A    between atoms: C_14  and  C_15
REMARK                            x       y       z     vdW  Elec       q    Type
REMARK                         _______ _______ _______ _____ _____    ______ ____
ROOT
ATOM      1  N   UNL     1       2.763   6.762  18.777  0.00  0.00    +0.000 N 
ATOM      2  C   UNL     1       2.464   6.277  20.040  0.00  0.00    +0.000 C 
ATOM      3  O   UNL     1       2.978   5.302  20.596  0.00  0.00    +0.000 OA
ATOM      4  N   UNL     1       1.594   6.963  20.825  0.00  0.00    +0.000 N 
ATOM      5  C   UNL     1       1.282   8.306  20.708  0.00  0.00    +0.000 C 
ATOM      6  O   UNL     1       0.876   8.910  21.688  0.00  0.00    +0.000 OA
ATOM      7  C   UNL     1       1.517   8.871  19.386  0.00  0.00    +0.000 C 
ATOM      8  C   UNL     1       1.105  10.104  19.012  0.00  0.00    +0.000 C 
ATOM      9  C   UNL     1       2.326   8.045  18.367  0.00  0.00    +0.000 C 
ATOM     10  O   UNL     1       2.554   8.538  17.266  0.00  0.00    +0.000 OA
ATOM     11  H   UNL     1       1.488   6.598  21.766  0.00  0.00    +0.000 HD
ENDROOT
BRANCH   8  12
ATOM     12  C   UNL     1       0.506  11.295  19.599  0.00  0.00    +0.000 A 
ATOM     13  C   UNL     1       1.407  12.317  19.882  0.00  0.00    +0.000 A 
ATOM     14  N   UNL     1       0.917  12.927  20.996  0.00  0.00    +0.000 N 
ATOM     15  C   UNL     1      -0.436  13.017  20.780  0.00  0.00    +0.000 A 
ATOM     16  C   UNL     1      -1.339  13.932  21.335  0.00  0.00    +0.000 A 
ATOM     17  C   UNL     1      -2.664  13.829  20.949  0.00  0.00    +0.000 A 
ATOM     18  C   UNL     1      -3.059  12.793  20.108  0.00  0.00    +0.000 A 
ATOM     19  C   UNL     1      -2.134  11.834  19.621  0.00  0.00    +0.000 A 
ATOM     20  C   UNL     1      -0.758  11.946  19.918  0.00  0.00    +0.000 A 
ATOM     21  H   UNL     1       1.274  12.766  21.924  0.00  0.00    +0.000 HD
ENDBRANCH   8  12
BRANCH   1  25
ATOM     22  C   UNL     1       5.258   4.380  16.069  0.00  0.00    +0.000 A 
ATOM     23  C   UNL     1       5.623   5.664  16.454  0.00  0.00    +0.000 A 
ATOM     24  C   UNL     1       4.829   6.399  17.358  0.00  0.00    +0.000 A 
ATOM     25  C   UNL     1       3.612   5.917  17.885  0.00  0.00    +0.000 A 
ATOM     26  C   UNL     1       3.273   4.610  17.472  0.00  0.00    +0.000 A 
ATOM     27  C   UNL     1       4.088   3.863  16.581  0.00  0.00    +0.000 A 
BRANCH  22  29
ATOM     28  C   UNL     1       6.766   4.667  14.249  0.00  0.00    +0.000 C 
ATOM     29  O   UNL     1       6.101   3.798  15.158  0.00  0.00    +0.000 OA
ENDBRANCH  22  29
ENDBRANCH   1  25
TORSDOF 3
ENDMDL
MODEL 8
REMARK VINA RESULT:      -7.6      2.608      8.645
REMARK  Name = 
REMARK  4 active torsions:
REMARK  status: ('A' for Active; 'I' for Inactive)
REMARK    1  A    between atoms: C_1  and  O_2
REMARK    2  A    between atoms: O_2  and  C_3
REMARK    3  A    between atoms: C_6  and  N_7
REMARK    4  A    between atoms: C_14  and  C_15
REMARK                            x       y       z     vdW  Elec       q    Type
REMARK                         _______ _______ _______ _____ _____    ______ ____
ROOT
ATOM      1  N   UNL     1       3.069   6.660  18.560  0.00  0.00    +0.000 N 
ATOM      2  C   UNL     1       2.815   6.130  19.815  0.00  0.00    +0.000 C 
ATOM      3  O   UNL     1       3.416   5.197  20.357  0.00  0.00    +0.000 OA
ATOM      4  N   UNL     1       1.887   6.723  20.610  0.00  0.00    +0.000 N 
ATOM      5  C   UNL     1       1.456   8.034  20.514  0.00  0.00    +0.000 C 
ATOM      6  O   UNL     1       0.998   8.584  21.502  0.00  0.00    +0.000 OA
ATOM      7  C   UNL     1       1.638   8.638  19.200  0.00  0.00    +0.000 C 
ATOM      8  C   UNL     1       1.117   9.834  18.844  0.00  0.00    +0.000 C 
ATOM      9  C   UNL     1       2.518   7.903  18.169  0.00  0.00    +0.000 C 
ATOM     10  O   UNL     1       2.700   8.432  17.076  0.00  0.00    +0.000 OA
ATOM     11  H   UNL     1       1.816   6.335  21.545  0.00  0.00    +0.000 HD
ENDROOT
BRANCH   8  12
ATOM     12  C   UNL     1       0.413  10.957  19.450  0.00  0.00    +0.000 A 
ATOM     13  C   UNL     1      -0.956  10.765  19.606  0.00  0.00    +0.000 A 
ATOM     14  N   UNL     1      -1.510  11.998  19.443  0.00  0.00    +0.000 N 
ATOM     15  C   UNL     1      -0.683  12.849  20.133  0.00  0.00    +0.000 A 
ATOM     16  C   UNL     1      -0.996  14.095  20.689  0.00  0.00    +0.000 A 
ATOM     17  C   UNL     1       0.014  14.765  21.356  0.00  0.00    +0.000 A 
ATOM     18  C   UNL     1       1.299  14.229  21.379  0.00  0.00    +0.000 A 
ATOM     19  C   UNL     1       1.605  13.000  20.740  0.00  0.00    +0.000 A 
ATOM     20  C   UNL     1       0.590  12.239  20.120  0.00  0.00    +0.000 A 
ATOM     21  H   UNL     1      -1.956  12.303  18.591  0.00  0.00    +0.000 HD
ENDBRANCH   8  12
BRANCH   1  25
ATOM     22  C   UNL     1       5.772   4.556  15.820  0.00  0.00    +0.000 A 
ATOM     23  C   UNL     1       6.044   5.844  16.265  0.00  0.00    +0.000 A 
ATOM     24  C   UNL     1       5.185   6.488  17.178  0.00  0.00    +0.000 A 
ATOM     25  C   UNL     1       3.990   5.908  17.655  0.00  0.00    +0.000 A 
ATOM     26  C   UNL     1       3.746   4.600  17.183  0.00  0.00    +0.000 A 
ATOM     27  C   UNL     1       4.626   3.944  16.283  0.00  0.00    +0.000 A 
BRANCH  22  29
ATOM     28  C   UNL     1       6.196   3.866  13.582  0.00  0.00    +0.000 C 
ATOM     29  O   UNL     1       6.670   4.068  14.908  0.00  0.00    +0.000 OA
ENDBRANCH  22  29
ENDBRANCH   1  25
TORSDOF 3
ENDMDL
MODEL 9
REMARK VINA RESULT:      -7.6      3.428      4.593
REMARK  Name = 
REMARK  4 active torsions:
REMARK  status: ('A' for Active; 'I' for Inactive)
REMARK    1  A    between atoms: C_1  and  O_2
REMARK    2  A    between atoms: O_2  and  C_3
REMARK    3  A    between atoms: C_6  and  N_7
REMARK    4  A    between atoms: C_14  and  C_15
REMARK                            x       y       z     vdW  Elec       q    Type
REMARK                         _______ _______ _______ _____ _____    ______ ____
ROOT
ATOM      1  N   UNL     1      -0.964  11.556  21.395  0.00  0.00    +0.000 N 
ATOM      2  C   UNL     1      -1.230  11.854  20.069  0.00  0.00    +0.000 C 
ATOM      3  O   UNL     1      -1.646  12.929  19.624  0.00  0.00    +0.000 OA
ATOM      4  N   UNL     1      -0.931  10.941  19.111  0.00  0.00    +0.000 N 
ATOM      5  C   UNL     1      -0.006   9.918  19.226  0.00  0.00    +0.000 C 
ATOM      6  O   UNL     1       0.509   9.464  18.218  0.00  0.00    +0.000 OA
ATOM      7  C   UNL     1       0.280   9.511  20.596  0.00  0.00    +0.000 C 
ATOM      8  C   UNL     1       1.004   8.414  20.918  0.00  0.00    +0.000 C 
ATOM      9  C   UNL     1      -0.221  10.404  21.748  0.00  0.00    +0.000 C 
ATOM     10  O   UNL     1       0.053  10.079  22.900  0.00  0.00    +0.000 OA
ATOM     11  H   UNL     1      -1.072  11.259  18.158  0.00  0.00    +0.000 HD
ENDROOT
BRANCH   8  12
ATOM     12  C   UNL     1       1.816   7.395  20.267  0.00  0.00    +0.000 A 
ATOM     13  C   UNL     1       1.592   6.099  20.721  0.00  0.00    +0.000 A 
ATOM     14  N   UNL     1       2.798   5.475  20.629  0.00  0.00    +0.000 N 
ATOM     15  C   UNL     1       3.312   5.880  19.422  0.00  0.00    +0.000 A 
ATOM     16  C   UNL     1       4.253   5.223  18.621  0.00  0.00    +0.000 A 
ATOM     17  C   UNL     1       4.607   5.830  17.428  0.00  0.00    +0.000 A 
ATOM     18  C   UNL     1       4.091   7.084  17.114  0.00  0.00    +0.000 A 
ATOM     19  C   UNL     1       3.197   7.762  17.983  0.00  0.00    +0.000 A 
ATOM     20  C   UNL     1       2.742   7.146  19.169  0.00  0.00    +0.000 A 
ATOM     21  H   UNL     1       3.410   5.322  21.416  0.00  0.00    +0.000 HD
ENDBRANCH   8  12
BRANCH   1  25
ATOM     22  C   UNL     1      -2.449  14.396  24.389  0.00  0.00    +0.000 A 
ATOM     23  C   UNL     1      -3.195  13.289  24.004  0.00  0.00    +0.000 A 
ATOM     24  C   UNL     1      -2.683  12.365  23.070  0.00  0.00    +0.000 A 
ATOM     25  C   UNL     1      -1.431  12.518  22.438  0.00  0.00    +0.000 A 
ATOM     26  C   UNL     1      -0.701  13.653  22.855  0.00  0.00    +0.000 A 
ATOM     27  C   UNL     1      -1.209  14.569  23.814  0.00  0.00    +0.000 A 
BRANCH  22  29
ATOM     28  C   UNL     1      -3.133  16.610  24.936  0.00  0.00    +0.000 C 
ATOM     29  O   UNL     1      -3.084  15.229  25.274  0.00  0.00    +0.000 OA
ENDBRANCH  22  29
ENDBRANCH   1  25
TORSDOF 3
ENDMDL
