MODEL 1
REMARK VINA RESULT:      -8.8      0.000      0.000
REMARK  Name = 
REMARK  8 active torsions:
REMARK  status: ('A' for Active; 'I' for Inactive)
REMARK    1  A    between atoms: C_1  and  O_2
REMARK    2  A    between atoms: O_2  and  C_3
REMARK    3  A    between atoms: C_6  and  N_7
REMARK    4  A    between atoms: C_8  and  C_10
REMARK    5  A    between atoms: C_12  and  S_13
REMARK    6  A    between atoms: S_13  and  N_16
REMARK    7  A    between atoms: C_24  and  O_25
REMARK    8  A    between atoms: O_25  and  C_26
REMARK                            x       y       z     vdW  Elec       q    Type
REMARK                         _______ _______ _______ _____ _____    ______ ____
ROOT
ATOM      1  C   UNL     1       3.414   6.132  17.836  0.00  0.00    +0.000 A 
ATOM      2  C   UNL     1       4.777   6.241  17.468  0.00  0.00    +0.000 A 
ATOM      3  C   UNL     1       5.508   5.123  17.066  0.00  0.00    +0.000 A 
ATOM      4  C   UNL     1       4.917   3.866  17.073  0.00  0.00    +0.000 A 
ATOM      5  C   UNL     1       3.587   3.747  17.487  0.00  0.00    +0.000 A 
ATOM      6  C   UNL     1       2.807   4.865  17.852  0.00  0.00    +0.000 A 
ENDROOT
BRANCH   1   8
ATOM      7  N   UNL     1       2.148   7.419  19.469  0.00  0.00    +0.000 N 
ATOM      8  C   UNL     1       2.755   7.413  18.215  0.00  0.00    +0.000 C 
ATOM      9  O   UNL     1       2.736   8.325  17.400  0.00  0.00    +0.000 OA
ATOM     10  H   UNL     1       2.147   6.557  20.002  0.00  0.00    +0.000 HD
BRANCH   7  14
ATOM     11  C   UNL     1       0.239  10.651  21.419  0.00  0.00    +0.000 A 
ATOM     12  C   UNL     1       0.496  10.719  20.054  0.00  0.00    +0.000 A 
ATOM     13  C   UNL     1       1.103   9.652  19.386  0.00  0.00    +0.000 A 
ATOM     14  C   UNL     1       1.490   8.510  20.082  0.00  0.00    +0.000 A 
ATOM     15  C   UNL     1       1.252   8.451  21.463  0.00  0.00    +0.000 A 
ATOM     16  C   UNL     1       0.624   9.516  22.128  0.00  0.00    +0.000 A 
BRANCH  11  18
ATOM     17  C   UNL     1      -1.329  11.542  22.947  0.00  0.00    +0.000 C 
ATOM     18  O   UNL     1      -0.343  11.769  21.947  0.00  0.00    +0.000 OA
ENDBRANCH  11  18
ENDBRANCH   7  14
ENDBRANCH   1   8
BRANCH   3  19
ATOM     19  S   UNL     1       7.102   5.369  16.295  0.00  0.00    +0.000 S 
ATOM     20  O   UNL     1       7.417   6.776  16.411  0.00  0.00    +0.000 OA
ATOM     21  O   UNL     1       7.979   4.364  16.863  0.00  0.00    +0.000 OA
BRANCH  19  22
ATOM     22  N   UNL     1       6.863   4.999  14.650  0.00  0.00    +0.000 NA
ATOM     23  C   UNL     1       7.981   5.328  13.733  0.00  0.00    +0.000 C 
ATOM     24  C   UNL     1       7.527   5.261  12.278  0.00  0.00    +0.000 C 
ATOM     25  C   UNL     1       6.906   3.907  11.962  0.00  0.00    +0.000 C 
ATOM     26  C   UNL     1       5.737   3.650  12.904  0.00  0.00    +0.000 C 
ATOM     27  C   UNL     1       6.178   3.715  14.364  0.00  0.00    +0.000 C 
ENDBRANCH  19  22
ENDBRANCH   3  19
BRANCH   6  28
ATOM     28  O   UNL     1       1.532   4.467  18.138  0.00  0.00    +0.000 OA
ATOM     29  C   UNL     1       1.204   3.744  19.312  0.00  0.00    +0.000 C 
ENDBRANCH   6  28
TORSDOF 6
ENDMDL
MODEL 2
REMARK VINA RESULT:      -8.3      1.705      1.868
REMARK  Name = 
REMARK  8 active torsions:
REMARK  status: ('A' for Active; 'I' for Inactive)
REMARK    1  A    between atoms: C_1  and  O_2
REMARK    2  A    between atoms: O_2  and  C_3
REMARK    3  A    between atoms: C_6  and  N_7
REMARK    4  A    between atoms: C_8  and  C_10
REMARK    5  A    between atoms: C_12  and  S_13
REMARK    6  A    between atoms: S_13  and  N_16
REMARK    7  A    between atoms: C_24  and  O_25
REMARK    8  A    between atoms: O_25  and  C_26
REMARK                            x       y       z     vdW  Elec       q    Type
REMARK                         _______ _______ _______ _____ _____    ______ ____
ROOT
ATOM      1  C   UNL     1       3.242   5.987  18.024  0.00  0.00    +0.000 A 
ATOM      2  C   UNL     1       4.607   6.142  17.680  0.00  0.00    +0.000 A 
ATOM      3  C   UNL     1       5.323   5.106  17.079  0.00  0.00    +0.000 A 
ATOM      4  C   UNL     1       4.714   3.877  16.857  0.00  0.00    +0.000 A 
ATOM      5  C   UNL     1       3.381   3.703  17.244  0.00  0.00    +0.000 A 
ATOM      6  C   UNL     1       2.617   4.747  17.809  0.00  0.00    +0.000 A 
ENDROOT
BRANCH   1   8
ATOM      7  N   UNL     1       2.393   8.253  17.762  0.00  0.00    +0.000 N 
ATOM      8  C   UNL     1       2.602   7.186  18.632  0.00  0.00    +0.000 C 
ATOM      9  O   UNL     1       2.367   7.178  19.833  0.00  0.00    +0.000 OA
ATOM     10  H   UNL     1       2.733   8.166  16.811  0.00  0.00    +0.000 HD
BRANCH   7  14
ATOM     11  C   UNL     1       0.635  12.005  18.613  0.00  0.00    +0.000 A 
ATOM     12  C   UNL     1      -0.149  10.857  18.611  0.00  0.00    +0.000 A 
ATOM     13  C   UNL     1       0.417   9.605  18.357  0.00  0.00    +0.000 A 
ATOM     14  C   UNL     1       1.775   9.487  18.071  0.00  0.00    +0.000 A 
ATOM     15  C   UNL     1       2.561  10.647  18.051  0.00  0.00    +0.000 A 
ATOM     16  C   UNL     1       1.994  11.902  18.327  0.00  0.00    +0.000 A 
BRANCH  11  18
ATOM     17  C   UNL     1      -1.271  13.023  19.574  0.00  0.00    +0.000 C 
ATOM     18  O   UNL     1      -0.048  13.163  18.861  0.00  0.00    +0.000 OA
ENDBRANCH  11  18
ENDBRANCH   7  14
ENDBRANCH   1   8
BRANCH   3  19
ATOM     19  S   UNL     1       6.921   5.465  16.363  0.00  0.00    +0.000 S 
ATOM     20  O   UNL     1       7.121   6.894  16.469  0.00  0.00    +0.000 OA
ATOM     21  O   UNL     1       7.850   4.538  16.978  0.00  0.00    +0.000 OA
BRANCH  19  22
ATOM     22  N   UNL     1       6.772   5.059  14.717  0.00  0.00    +0.000 NA
ATOM     23  C   UNL     1       7.927   5.397  13.849  0.00  0.00    +0.000 C 
ATOM     24  C   UNL     1       7.548   5.291  12.375  0.00  0.00    +0.000 C 
ATOM     25  C   UNL     1       6.976   3.916  12.057  0.00  0.00    +0.000 C 
ATOM     26  C   UNL     1       5.768   3.648  12.944  0.00  0.00    +0.000 C 
ATOM     27  C   UNL     1       6.134   3.753  14.423  0.00  0.00    +0.000 C 
ENDBRANCH  19  22
ENDBRANCH   3  19
BRANCH   6  28
ATOM     28  O   UNL     1       1.336   4.322  18.020  0.00  0.00    +0.000 OA
ATOM     29  C   UNL     1       1.030   3.010  18.460  0.00  0.00    +0.000 C 
ENDBRANCH   6  28
TORSDOF 6
ENDMDL
MODEL 3
REMARK VINA RESULT:      -8.2      0.622      1.103
REMARK  Name = 
REMARK  8 active torsions:
REMARK  status: ('A' for Active; 'I' for Inactive)
REMARK    1  A    between atoms: C_1  and  O_2
REMARK    2  A    between atoms: O_2  and  C_3
REMARK    3  A    between atoms: C_6  and  N_7
REMARK    4  A    between atoms: C_8  and  C_10
REMARK    5  A    between atoms: C_12  and  S_13
REMARK    6  A    between atoms: S_13  and  N_16
REMARK    7  A    between atoms: C_24  and  O_25
REMARK    8  A    between atoms: O_25  and  C_26
REMARK                            x       y       z     vdW  Elec       q    Type
REMARK                         _______ _______ _______ _____ _____    ______ ____
ROOT
ATOM      1  C   UNL     1       3.425   5.959  17.915  0.00  0.00    +0.000 A 
ATOM      2  C   UNL     1       4.776   6.019  17.498  0.00  0.00    +0.000 A 
ATOM      3  C   UNL     1       5.447   4.878  17.055  0.00  0.00    +0.000 A 
ATOM      4  C   UNL     1       4.807   3.645  17.071  0.00  0.00    +0.000 A 
ATOM      5  C   UNL     1       3.489   3.573  17.534  0.00  0.00    +0.000 A 
ATOM      6  C   UNL     1       2.769   4.717  17.941  0.00  0.00    +0.000 A 
ENDROOT
BRANCH   1   8
ATOM      7  N   UNL     1       2.161   7.241  19.553  0.00  0.00    +0.000 N 
ATOM      8  C   UNL     1       2.833   7.260  18.334  0.00  0.00    +0.000 C 
ATOM      9  O   UNL     1       2.918   8.214  17.572  0.00  0.00    +0.000 OA
ATOM     10  H   UNL     1       2.073   6.353  20.035  0.00  0.00    +0.000 HD
BRANCH   7  14
ATOM     11  C   UNL     1       0.387  10.503  21.579  0.00  0.00    +0.000 A 
ATOM     12  C   UNL     1       0.502  10.527  20.195  0.00  0.00    +0.000 A 
ATOM     13  C   UNL     1       1.062   9.449  19.504  0.00  0.00    +0.000 A 
ATOM     14  C   UNL     1       1.543   8.340  20.194  0.00  0.00    +0.000 A 
ATOM     15  C   UNL     1       1.449   8.325  21.593  0.00  0.00    +0.000 A 
ATOM     16  C   UNL     1       0.868   9.401  22.284  0.00  0.00    +0.000 A 
BRANCH  11  18
ATOM     17  C   UNL     1       0.038  12.835  21.403  0.00  0.00    +0.000 C 
ATOM     18  O   UNL     1      -0.164  11.627  22.127  0.00  0.00    +0.000 OA
ENDBRANCH  11  18
ENDBRANCH   7  14
ENDBRANCH   1   8
BRANCH   3  19
ATOM     19  S   UNL     1       7.019   5.069  16.227  0.00  0.00    +0.000 S 
ATOM     20  O   UNL     1       7.286   6.490  16.147  0.00  0.00    +0.000 OA
ATOM     21  O   UNL     1       7.939   4.179  16.907  0.00  0.00    +0.000 OA
BRANCH  19  22
ATOM     22  N   UNL     1       6.768   4.475  14.652  0.00  0.00    +0.000 NA
ATOM     23  C   UNL     1       5.357   4.247  14.252  0.00  0.00    +0.000 C 
ATOM     24  C   UNL     1       5.283   3.419  12.972  0.00  0.00    +0.000 C 
ATOM     25  C   UNL     1       6.098   4.062  11.859  0.00  0.00    +0.000 C 
ATOM     26  C   UNL     1       7.542   4.226  12.311  0.00  0.00    +0.000 C 
ATOM     27  C   UNL     1       7.630   5.052  13.592  0.00  0.00    +0.000 C 
ENDBRANCH  19  22
ENDBRANCH   3  19
BRANCH   6  28
ATOM     28  O   UNL     1       1.491   4.366  18.271  0.00  0.00    +0.000 OA
ATOM     29  C   UNL     1       1.196   3.295  19.151  0.00  0.00    +0.000 C 
ENDBRANCH   6  28
TORSDOF 6
ENDMDL
MODEL 4
REMARK VINA RESULT:      -8.0      1.432      1.559
REMARK  Name = 
REMARK  8 active torsions:
REMARK  status: ('A' for Active; 'I' for Inactive)
REMARK    1  A    between atoms: C_1  and  O_2
REMARK    2  A    between atoms: O_2  and  C_3
REMARK    3  A    between atoms: C_6  and  N_7
REMARK    4  A    between atoms: C_8  and  C_10
REMARK    5  A    between atoms: C_12  and  S_13
REMARK    6  A    between atoms: S_13  and  N_16
REMARK    7  A    between atoms: C_24  and  O_25
REMARK    8  A    between atoms: O_25  and  C_26
REMARK                            x       y       z     vdW  Elec       q    Type
REMARK                         _______ _______ _______ _____ _____    ______ ____
ROOT
ATOM      1  C   UNL     1       3.187   5.988  19.408  0.00  0.00    +0.000 A 
ATOM      2  C   UNL     1       4.505   6.169  18.924  0.00  0.00    +0.000 A 
ATOM      3  C   UNL     1       5.383   5.092  18.797  0.00  0.00    +0.000 A 
ATOM      4  C   UNL     1       4.989   3.823  19.201  0.00  0.00    +0.000 A 
ATOM      5  C   UNL     1       3.706   3.649  19.730  0.00  0.00    +0.000 A 
ATOM      6  C   UNL     1       2.779   4.709  19.825  0.00  0.00    +0.000 A 
ENDROOT
BRANCH   1   8
ATOM      7  N   UNL     1       1.749   7.476  20.690  0.00  0.00    +0.000 N 
ATOM      8  C   UNL     1       2.355   7.222  19.462  0.00  0.00    +0.000 C 
ATOM      9  O   UNL     1       2.212   7.875  18.437  0.00  0.00    +0.000 OA
ATOM     10  H   UNL     1       1.866   6.792  21.429  0.00  0.00    +0.000 HD
BRANCH   7  14
ATOM     11  C   UNL     1      -0.602  10.814  21.793  0.00  0.00    +0.000 A 
ATOM     12  C   UNL     1      -0.293  10.596  20.456  0.00  0.00    +0.000 A 
ATOM     13  C   UNL     1       0.462   9.486  20.067  0.00  0.00    +0.000 A 
ATOM     14  C   UNL     1       0.943   8.590  21.019  0.00  0.00    +0.000 A 
ATOM     15  C   UNL     1       0.650   8.822  22.370  0.00  0.00    +0.000 A 
ATOM     16  C   UNL     1      -0.125   9.928  22.756  0.00  0.00    +0.000 A 
BRANCH  11  18
ATOM     17  C   UNL     1      -2.216  11.888  23.147  0.00  0.00    +0.000 C 
ATOM     18  O   UNL     1      -1.332  11.944  22.035  0.00  0.00    +0.000 OA
ENDBRANCH  11  18
ENDBRANCH   7  14
ENDBRANCH   1   8
BRANCH   3  19
ATOM     19  S   UNL     1       6.895   5.318  17.872  0.00  0.00    +0.000 S 
ATOM     20  O   UNL     1       7.263   6.712  17.994  0.00  0.00    +0.000 OA
ATOM     21  O   UNL     1       7.795   4.272  18.316  0.00  0.00    +0.000 OA
BRANCH  19  22
ATOM     22  N   UNL     1       6.475   5.008  16.251  0.00  0.00    +0.000 NA
ATOM     23  C   UNL     1       7.598   4.932  15.284  0.00  0.00    +0.000 C 
ATOM     24  C   UNL     1       7.081   4.982  13.849  0.00  0.00    +0.000 C 
ATOM     25  C   UNL     1       6.041   3.898  13.606  0.00  0.00    +0.000 C 
ATOM     26  C   UNL     1       4.896   4.058  14.596  0.00  0.00    +0.000 C 
ATOM     27  C   UNL     1       5.399   4.011  16.036  0.00  0.00    +0.000 C 
ENDBRANCH  19  22
ENDBRANCH   3  19
BRANCH   6  28
ATOM     28  O   UNL     1       1.589   4.242  20.305  0.00  0.00    +0.000 OA
ATOM     29  C   UNL     1       1.417   2.907  20.750  0.00  0.00    +0.000 C 
ENDBRANCH   6  28
TORSDOF 6
ENDMDL
MODEL 5
REMARK VINA RESULT:      -7.9      2.507      5.191
REMARK  Name = 
REMARK  8 active torsions:
REMARK  status: ('A' for Active; 'I' for Inactive)
REMARK    1  A    between atoms: C_1  and  O_2
REMARK    2  A    between atoms: O_2  and  C_3
REMARK    3  A    between atoms: C_6  and  N_7
REMARK    4  A    between atoms: C_8  and  C_10
REMARK    5  A    between atoms: C_12  and  S_13
REMARK    6  A    between atoms: S_13  and  N_16
REMARK    7  A    between atoms: C_24  and  O_25
REMARK    8  A    between atoms: O_25  and  C_26
REMARK                            x       y       z     vdW  Elec       q    Type
REMARK                         _______ _______ _______ _____ _____    ______ ____
ROOT
ATOM      1  C   UNL     1       4.017   6.443  17.447  0.00  0.00    +0.000 A 
ATOM      2  C   UNL     1       3.347   5.201  17.559  0.00  0.00    +0.000 A 
ATOM      3  C   UNL     1       3.961   4.010  17.167  0.00  0.00    +0.000 A 
ATOM      4  C   UNL     1       5.230   4.035  16.605  0.00  0.00    +0.000 A 
ATOM      5  C   UNL     1       5.875   5.266  16.444  0.00  0.00    +0.000 A 
ATOM      6  C   UNL     1       5.300   6.481  16.875  0.00  0.00    +0.000 A 
ENDROOT
BRANCH   1   8
ATOM      7  N   UNL     1       2.467   7.400  19.061  0.00  0.00    +0.000 N 
ATOM      8  C   UNL     1       3.249   7.624  17.930  0.00  0.00    +0.000 C 
ATOM      9  O   UNL     1       3.305   8.662  17.285  0.00  0.00    +0.000 OA
ATOM     10  H   UNL     1       2.429   6.459  19.436  0.00  0.00    +0.000 HD
BRANCH   7  14
ATOM     11  C   UNL     1       0.031  10.277  20.979  0.00  0.00    +0.000 A 
ATOM     12  C   UNL     1       0.560   9.220  21.709  0.00  0.00    +0.000 A 
ATOM     13  C   UNL     1       1.388   8.272  21.101  0.00  0.00    +0.000 A 
ATOM     14  C   UNL     1       1.674   8.354  19.740  0.00  0.00    +0.000 A 
ATOM     15  C   UNL     1       1.122   9.408  18.999  0.00  0.00    +0.000 A 
ATOM     16  C   UNL     1       0.307  10.370  19.617  0.00  0.00    +0.000 A 
BRANCH  11  18
ATOM     17  C   UNL     1      -1.046  10.731  23.035  0.00  0.00    +0.000 C 
ATOM     18  O   UNL     1      -0.773  11.120  21.694  0.00  0.00    +0.000 OA
ENDBRANCH  11  18
ENDBRANCH   7  14
ENDBRANCH   1   8
BRANCH   3  19
ATOM     19  S   UNL     1       3.212   2.458  17.643  0.00  0.00    +0.000 S 
ATOM     20  O   UNL     1       2.140   2.200  16.706  0.00  0.00    +0.000 OA
ATOM     21  O   UNL     1       4.306   1.518  17.795  0.00  0.00    +0.000 OA
BRANCH  19  22
ATOM     22  N   UNL     1       2.535   2.743  19.179  0.00  0.00    +0.000 NA
ATOM     23  C   UNL     1       1.063   2.597  19.285  0.00  0.00    +0.000 C 
ATOM     24  C   UNL     1       0.553   3.189  20.596  0.00  0.00    +0.000 C 
ATOM     25  C   UNL     1       1.277   2.580  21.788  0.00  0.00    +0.000 C 
ATOM     26  C   UNL     1       2.776   2.803  21.644  0.00  0.00    +0.000 C 
ATOM     27  C   UNL     1       3.299   2.216  20.335  0.00  0.00    +0.000 C 
ENDBRANCH  19  22
ENDBRANCH   3  19
BRANCH   6  28
ATOM     28  O   UNL     1       6.174   7.508  16.662  0.00  0.00    +0.000 OA
ATOM     29  C   UNL     1       7.355   7.676  17.429  0.00  0.00    +0.000 C 
ENDBRANCH   6  28
TORSDOF 6
ENDMDL
MODEL 6
REMARK VINA RESULT:      -7.9      0.915      1.603
REMARK  Name = 
REMARK  8 active torsions:
REMARK  status: ('A' for Active; 'I' for Inactive)
REMARK    1  A    between atoms: C_1  and  O_2
REMARK    2  A    between atoms: O_2  and  C_3
REMARK    3  A    between atoms: C_6  and  N_7
REMARK    4  A    between atoms: C_8  and  C_10
REMARK    5  A    between atoms: C_12  and  S_13
REMARK    6  A    between atoms: S_13  and  N_16
REMARK    7  A    between atoms: C_24  and  O_25
REMARK    8  A    between atoms: O_25  and  C_26
REMARK                            x       y       z     vdW  Elec       q    Type
REMARK                         _______ _______ _______ _____ _____    ______ ____
ROOT
ATOM      1  C   UNL     1       3.520   6.238  17.904  0.00  0.00    +0.000 A 
ATOM      2  C   UNL     1       4.859   6.262  17.444  0.00  0.00    +0.000 A 
ATOM      3  C   UNL     1       5.577   5.082  17.249  0.00  0.00    +0.000 A 
ATOM      4  C   UNL     1       5.000   3.857  17.560  0.00  0.00    +0.000 A 
ATOM      5  C   UNL     1       3.696   3.833  18.066  0.00  0.00    +0.000 A 
ATOM      6  C   UNL     1       2.928   5.005  18.227  0.00  0.00    +0.000 A 
ENDROOT
BRANCH   1   8
ATOM      7  N   UNL     1       2.008   7.705  19.122  0.00  0.00    +0.000 N 
ATOM      8  C   UNL     1       2.871   7.572  18.038  0.00  0.00    +0.000 C 
ATOM      9  O   UNL     1       3.084   8.414  17.176  0.00  0.00    +0.000 OA
ATOM     10  H   UNL     1       1.839   6.890  19.701  0.00  0.00    +0.000 HD
BRANCH   7  14
ATOM     11  C   UNL     1      -0.187  11.180  20.127  0.00  0.00    +0.000 A 
ATOM     12  C   UNL     1       0.305  10.356  21.132  0.00  0.00    +0.000 A 
ATOM     13  C   UNL     1       1.054   9.217  20.823  0.00  0.00    +0.000 A 
ATOM     14  C   UNL     1       1.297   8.870  19.496  0.00  0.00    +0.000 A 
ATOM     15  C   UNL     1       0.782   9.688  18.481  0.00  0.00    +0.000 A 
ATOM     16  C   UNL     1       0.047  10.843  18.795  0.00  0.00    +0.000 A 
BRANCH  11  18
ATOM     17  C   UNL     1      -2.211  12.395  20.003  0.00  0.00    +0.000 C 
ATOM     18  O   UNL     1      -0.914  12.249  20.568  0.00  0.00    +0.000 OA
ENDBRANCH  11  18
ENDBRANCH   7  14
ENDBRANCH   1   8
BRANCH   3  19
ATOM     19  S   UNL     1       7.122   5.152  16.353  0.00  0.00    +0.000 S 
ATOM     20  O   UNL     1       7.469   6.550  16.214  0.00  0.00    +0.000 OA
ATOM     21  O   UNL     1       8.016   4.230  17.027  0.00  0.00    +0.000 OA
BRANCH  19  22
ATOM     22  N   UNL     1       6.771   4.523  14.811  0.00  0.00    +0.000 NA
ATOM     23  C   UNL     1       5.335   4.326  14.492  0.00  0.00    +0.000 C 
ATOM     24  C   UNL     1       5.170   3.468  13.242  0.00  0.00    +0.000 C 
ATOM     25  C   UNL     1       5.941   4.058  12.069  0.00  0.00    +0.000 C 
ATOM     26  C   UNL     1       7.412   4.190  12.441  0.00  0.00    +0.000 C 
ATOM     27  C   UNL     1       7.591   5.047  13.692  0.00  0.00    +0.000 C 
ENDBRANCH  19  22
ENDBRANCH   3  19
BRANCH   6  28
ATOM     28  O   UNL     1       1.675   4.681  18.665  0.00  0.00    +0.000 OA
ATOM     29  C   UNL     1       1.274   3.344  18.907  0.00  0.00    +0.000 C 
ENDBRANCH   6  28
TORSDOF 6
ENDMDL
MODEL 7
REMARK VINA RESULT:      -7.8      2.794      9.742
REMARK  Name = 
REMARK  8 active torsions:
REMARK  status: ('A' for Active; 'I' for Inactive)
REMARK    1  A    between atoms: C_1  and  O_2
REMARK    2  A    between atoms: O_2  and  C_3
REMARK    3  A    between atoms: C_6  and  N_7
REMARK    4  A    between atoms: C_8  and  C_10
REMARK    5  A    between atoms: C_12  and  S_13
REMARK    6  A    between atoms: S_13  and  N_16
REMARK    7  A    between atoms: C_24  and  O_25
REMARK    8  A    between atoms: O_25  and  C_26
REMARK                            x       y       z     vdW  Elec       q    Type
REMARK                         _______ _______ _______ _____ _____    ______ ____
ROOT
ATOM      1  C   UNL     1       1.841   8.222  19.423  0.00  0.00    +0.000 A 
ATOM      2  C   UNL     1       1.330   9.540  19.350  0.00  0.00    +0.000 A 
ATOM      3  C   UNL     1       0.592  10.088  20.401  0.00  0.00    +0.000 A 
ATOM      4  C   UNL     1       0.301   9.319  21.520  0.00  0.00    +0.000 A 
ATOM      5  C   UNL     1       0.759   7.999  21.573  0.00  0.00    +0.000 A 
ATOM      6  C   UNL     1       1.548   7.433  20.548  0.00  0.00    +0.000 A 
ENDROOT
BRANCH   1   8
ATOM      7  N   UNL     1       3.510   6.727  18.472  0.00  0.00    +0.000 N 
ATOM      8  C   UNL     1       2.632   7.783  18.240  0.00  0.00    +0.000 C 
ATOM      9  O   UNL     1       2.509   8.402  17.191  0.00  0.00    +0.000 OA
ATOM     10  H   UNL     1       3.591   6.374  19.419  0.00  0.00    +0.000 HD
BRANCH   7  14
ATOM     11  C   UNL     1       6.113   4.911  15.676  0.00  0.00    +0.000 A 
ATOM     12  C   UNL     1       4.945   4.262  16.059  0.00  0.00    +0.000 A 
ATOM     13  C   UNL     1       4.059   4.856  16.962  0.00  0.00    +0.000 A 
ATOM     14  C   UNL     1       4.345   6.099  17.519  0.00  0.00    +0.000 A 
ATOM     15  C   UNL     1       5.535   6.743  17.152  0.00  0.00    +0.000 A 
ATOM     16  C   UNL     1       6.414   6.154  16.229  0.00  0.00    +0.000 A 
BRANCH  11  18
ATOM     17  C   UNL     1       6.264   3.802  13.594  0.00  0.00    +0.000 C 
ATOM     18  O   UNL     1       6.896   4.212  14.800  0.00  0.00    +0.000 OA
ENDBRANCH  11  18
ENDBRANCH   7  14
ENDBRANCH   1   8
BRANCH   3  19
ATOM     19  S   UNL     1       0.270  11.846  20.402  0.00  0.00    +0.000 S 
ATOM     20  O   UNL     1       1.279  12.462  21.237  0.00  0.00    +0.000 OA
ATOM     21  O   UNL     1       0.126  12.226  19.011  0.00  0.00    +0.000 OA
BRANCH  19  22
ATOM     22  N   UNL     1      -1.244  12.020  21.162  0.00  0.00    +0.000 NA
ATOM     23  C   UNL     1      -1.221  12.261  22.626  0.00  0.00    +0.000 C 
ATOM     24  C   UNL     1      -2.610  12.071  23.229  0.00  0.00    +0.000 C 
ATOM     25  C   UNL     1      -3.636  12.943  22.520  0.00  0.00    +0.000 C 
ATOM     26  C   UNL     1      -3.645  12.616  21.033  0.00  0.00    +0.000 C 
ATOM     27  C   UNL     1      -2.261  12.802  20.418  0.00  0.00    +0.000 C 
ENDBRANCH  19  22
ENDBRANCH   3  19
BRANCH   6  28
ATOM     28  O   UNL     1       1.914   6.164  20.893  0.00  0.00    +0.000 OA
ATOM     29  C   UNL     1       1.204   5.019  20.454  0.00  0.00    +0.000 C 
ENDBRANCH   6  28
TORSDOF 6
ENDMDL
MODEL 8
REMARK VINA RESULT:      -7.8      1.136      1.269
REMARK  Name = 
REMARK  8 active torsions:
REMARK  status: ('A' for Active; 'I' for Inactive)
REMARK    1  A    between atoms: C_1  and  O_2
REMARK    2  A    between atoms: O_2  and  C_3
REMARK    3  A    between atoms: C_6  and  N_7
REMARK    4  A    between atoms: C_8  and  C_10
REMARK    5  A    between atoms: C_12  and  S_13
REMARK    6  A    between atoms: S_13  and  N_16
REMARK    7  A    between atoms: C_24  and  O_25
REMARK    8  A    between atoms: O_25  and  C_26
REMARK                            x       y       z     vdW  Elec       q    Type
REMARK                         _______ _______ _______ _____ _____    ______ ____
ROOT
ATOM      1  C   UNL     1       3.285   5.539  18.191  0.00  0.00    +0.000 A 
ATOM      2  C   UNL     1       4.621   5.801  17.804  0.00  0.00    +0.000 A 
ATOM      3  C   UNL     1       5.359   4.868  17.074  0.00  0.00    +0.000 A 
ATOM      4  C   UNL     1       4.803   3.633  16.762  0.00  0.00    +0.000 A 
ATOM      5  C   UNL     1       3.502   3.350  17.189  0.00  0.00    +0.000 A 
ATOM      6  C   UNL     1       2.715   4.291  17.886  0.00  0.00    +0.000 A 
ENDROOT
BRANCH   1   8
ATOM      7  N   UNL     1       2.469   7.832  18.237  0.00  0.00    +0.000 N 
ATOM      8  C   UNL     1       2.615   6.638  18.940  0.00  0.00    +0.000 C 
ATOM      9  O   UNL     1       2.303   6.445  20.107  0.00  0.00    +0.000 OA
ATOM     10  H   UNL     1       2.869   7.890  17.308  0.00  0.00    +0.000 HD
BRANCH   7  14
ATOM     11  C   UNL     1       0.606  11.318  19.744  0.00  0.00    +0.000 A 
ATOM     12  C   UNL     1       1.269  11.359  18.523  0.00  0.00    +0.000 A 
ATOM     13  C   UNL     1       1.870  10.213  17.995  0.00  0.00    +0.000 A 
ATOM     14  C   UNL     1       1.840   9.011  18.699  0.00  0.00    +0.000 A 
ATOM     15  C   UNL     1       1.191   8.975  19.941  0.00  0.00    +0.000 A 
ATOM     16  C   UNL     1       0.571  10.123  20.460  0.00  0.00    +0.000 A 
BRANCH  11  18
ATOM     17  C   UNL     1      -0.109  12.665  21.550  0.00  0.00    +0.000 C 
ATOM     18  O   UNL     1       0.078  12.512  20.148  0.00  0.00    +0.000 OA
ENDBRANCH  11  18
ENDBRANCH   7  14
ENDBRANCH   1   8
BRANCH   3  19
ATOM     19  S   UNL     1       6.899   5.381  16.326  0.00  0.00    +0.000 S 
ATOM     20  O   UNL     1       6.978   6.820  16.463  0.00  0.00    +0.000 OA
ATOM     21  O   UNL     1       7.922   4.526  16.894  0.00  0.00    +0.000 OA
BRANCH  19  22
ATOM     22  N   UNL     1       6.740   5.000  14.675  0.00  0.00    +0.000 NA
ATOM     23  C   UNL     1       7.905   5.317  13.812  0.00  0.00    +0.000 C 
ATOM     24  C   UNL     1       7.524   5.240  12.336  0.00  0.00    +0.000 C 
ATOM     25  C   UNL     1       6.913   3.886  12.001  0.00  0.00    +0.000 C 
ATOM     26  C   UNL     1       5.698   3.641  12.884  0.00  0.00    +0.000 C 
ATOM     27  C   UNL     1       6.065   3.717  14.364  0.00  0.00    +0.000 C 
ENDBRANCH  19  22
ENDBRANCH   3  19
BRANCH   6  28
ATOM     28  O   UNL     1       1.469   3.778  18.111  0.00  0.00    +0.000 OA
ATOM     29  C   UNL     1       1.258   2.433  18.505  0.00  0.00    +0.000 C 
ENDBRANCH   6  28
TORSDOF 6
ENDMDL
MODEL 9
REMARK VINA RESULT:      -7.8      2.500      5.006
REMARK  Name = 
REMARK  8 active torsions:
REMARK  status: ('A' for Active; 'I' for Inactive)
REMARK    1  A    between atoms: C_1  and  O_2
REMARK    2  A    between atoms: O_2  and  C_3
REMARK    3  A    between atoms: C_6  and  N_7
REMARK    4  A    between atoms: C_8  and  C_10
REMARK    5  A    between atoms: C_12  and  S_13
REMARK    6  A    between atoms: S_13  and  N_16
REMARK    7  A    between atoms: C_24  and  O_25
REMARK    8  A    between atoms: O_25  and  C_26
REMARK                            x       y       z     vdW  Elec       q    Type
REMARK                         _______ _______ _______ _____ _____    ______ ____
ROOT
ATOM      1  C   UNL     1       4.024   6.249  17.438  0.00  0.00    +0.000 A 
ATOM      2  C   UNL     1       3.352   5.006  17.523  0.00  0.00    +0.000 A 
ATOM      3  C   UNL     1       3.984   3.816  17.158  0.00  0.00    +0.000 A 
ATOM      4  C   UNL     1       5.276   3.843  16.649  0.00  0.00    +0.000 A 
ATOM      5  C   UNL     1       5.924   5.075  16.514  0.00  0.00    +0.000 A 
ATOM      6  C   UNL     1       5.330   6.289  16.919  0.00  0.00    +0.000 A 
ENDROOT
BRANCH   1   8
ATOM      7  N   UNL     1       2.462   7.225  19.028  0.00  0.00    +0.000 N 
ATOM      8  C   UNL     1       3.235   7.428  17.888  0.00  0.00    +0.000 C 
ATOM      9  O   UNL     1       3.267   8.447  17.210  0.00  0.00    +0.000 OA
ATOM     10  H   UNL     1       2.444   6.296  19.433  0.00  0.00    +0.000 HD
BRANCH   7  14
ATOM     11  C   UNL     1       0.099  10.058  21.099  0.00  0.00    +0.000 A 
ATOM     12  C   UNL     1       0.435  10.276  19.768  0.00  0.00    +0.000 A 
ATOM     13  C   UNL     1       1.193   9.341  19.058  0.00  0.00    +0.000 A 
ATOM     14  C   UNL     1       1.653   8.184  19.682  0.00  0.00    +0.000 A 
ATOM     15  C   UNL     1       1.333   7.974  21.030  0.00  0.00    +0.000 A 
ATOM     16  C   UNL     1       0.554   8.905  21.736  0.00  0.00    +0.000 A 
BRANCH  11  18
ATOM     17  C   UNL     1      -1.012  10.849  23.030  0.00  0.00    +0.000 C 
ATOM     18  O   UNL     1      -0.632  11.058  21.675  0.00  0.00    +0.000 OA
ENDBRANCH  11  18
ENDBRANCH   7  14
ENDBRANCH   1   8
BRANCH   3  19
ATOM     19  S   UNL     1       3.220   2.263  17.604  0.00  0.00    +0.000 S 
ATOM     20  O   UNL     1       2.117   2.056  16.690  0.00  0.00    +0.000 OA
ATOM     21  O   UNL     1       4.299   1.299  17.694  0.00  0.00    +0.000 OA
BRANCH  19  22
ATOM     22  N   UNL     1       2.592   2.509  19.167  0.00  0.00    +0.000 NA
ATOM     23  C   UNL     1       3.584   2.645  20.260  0.00  0.00    +0.000 C 
ATOM     24  C   UNL     1       2.909   2.529  21.624  0.00  0.00    +0.000 C 
ATOM     25  C   UNL     1       1.770   3.531  21.755  0.00  0.00    +0.000 C 
ATOM     26  C   UNL     1       0.763   3.309  20.635  0.00  0.00    +0.000 C 
ATOM     27  C   UNL     1       1.427   3.422  19.265  0.00  0.00    +0.000 C 
ENDBRANCH  19  22
ENDBRANCH   3  19
BRANCH   6  28
ATOM     28  O   UNL     1       6.210   7.318  16.742  0.00  0.00    +0.000 OA
ATOM     29  C   UNL     1       7.374   7.470  17.536  0.00  0.00    +0.000 C 
ENDBRANCH   6  28
TORSDOF 6
ENDMDL
