MODEL 1
REMARK VINA RESULT:      -6.2      0.000      0.000
REMARK  Name = 
REMARK  8 active torsions:
REMARK  status: ('A' for Active; 'I' for Inactive)
REMARK    1  A    between atoms: C_1  and  C_2
REMARK    2  A    between atoms: C_3  and  C_4
REMARK    3  A    between atoms: C_7  and  O_8
REMARK    4  A    between atoms: O_8  and  C_9
REMARK    5  A    between atoms: C_9  and  C_10
REMARK    6  A    between atoms: C_10  and  C_11
REMARK    7  A    between atoms: C_12  and  O_13
REMARK    8  A    between atoms: O_13  and  C_14
REMARK                            x       y       z     vdW  Elec       q    Type
REMARK                         _______ _______ _______ _____ _____    ______ ____
ROOT
ATOM      1  C   UNL     1       5.445   4.952  15.774  0.00  0.00    +0.000 A 
ATOM      2  C   UNL     1       5.174   6.249  16.207  0.00  0.00    +0.000 A 
ATOM      3  C   UNL     1       4.608   6.463  17.470  0.00  0.00    +0.000 A 
ATOM      4  C   UNL     1       4.310   5.396  18.326  0.00  0.00    +0.000 A 
ATOM      5  C   UNL     1       4.601   4.083  17.908  0.00  0.00    +0.000 A 
ATOM      6  C   UNL     1       5.172   3.885  16.642  0.00  0.00    +0.000 A 
ENDROOT
BRANCH   1   9
ATOM      7  C   UNL     1       6.331   3.497  12.298  0.00  0.00    +0.000 C 
ATOM      8  C   UNL     1       5.649   3.792  13.591  0.00  0.00    +0.000 C 
ATOM      9  C   UNL     1       6.075   4.719  14.465  0.00  0.00    +0.000 C 
ENDBRANCH   1   9
BRANCH   5  10
ATOM     10  O   UNL     1       4.328   3.044  18.756  0.00  0.00    +0.000 OA
ATOM     11  C   UNL     1       3.504   1.982  18.300  0.00  0.00    +0.000 C 
ENDBRANCH   5  10
BRANCH   4  12
ATOM     12  O   UNL     1       3.755   5.808  19.516  0.00  0.00    +0.000 OA
BRANCH  12  13
ATOM     13  C   UNL     1       2.333   5.804  19.615  0.00  0.00    +0.000 C 
BRANCH  13  14
ATOM     14  C   UNL     1       1.890   4.874  20.738  0.00  0.00    +0.000 C 
ATOM     15  C   UNL     1       0.915   3.834  20.206  0.00  0.00    +0.000 C 
ENDBRANCH  13  14
ENDBRANCH  12  13
ENDBRANCH   4  12
TORSDOF 5
ENDMDL
MODEL 2
REMARK VINA RESULT:      -6.1      1.654      2.256
REMARK  Name = 
REMARK  8 active torsions:
REMARK  status: ('A' for Active; 'I' for Inactive)
REMARK    1  A    between atoms: C_1  and  C_2
REMARK    2  A    between atoms: C_3  and  C_4
REMARK    3  A    between atoms: C_7  and  O_8
REMARK    4  A    between atoms: O_8  and  C_9
REMARK    5  A    between atoms: C_9  and  C_10
REMARK    6  A    between atoms: C_10  and  C_11
REMARK    7  A    between atoms: C_12  and  O_13
REMARK    8  A    between atoms: O_13  and  C_14
REMARK                            x       y       z     vdW  Elec       q    Type
REMARK                         _______ _______ _______ _____ _____    ______ ____
ROOT
ATOM      1  C   UNL     1       5.979   4.296  15.943  0.00  0.00    +0.000 A 
ATOM      2  C   UNL     1       4.644   3.922  16.092  0.00  0.00    +0.000 A 
ATOM      3  C   UNL     1       4.062   3.894  17.366  0.00  0.00    +0.000 A 
ATOM      4  C   UNL     1       4.791   4.247  18.509  0.00  0.00    +0.000 A 
ATOM      5  C   UNL     1       6.133   4.649  18.366  0.00  0.00    +0.000 A 
ATOM      6  C   UNL     1       6.701   4.675  17.084  0.00  0.00    +0.000 A 
ENDROOT
BRANCH   1   9
ATOM      7  C   UNL     1       6.723   3.762  12.182  0.00  0.00    +0.000 C 
ATOM      8  C   UNL     1       6.070   3.762  13.523  0.00  0.00    +0.000 C 
ATOM      9  C   UNL     1       6.588   4.366  14.605  0.00  0.00    +0.000 C 
ENDBRANCH   1   9
BRANCH   5  10
ATOM     10  O   UNL     1       6.836   5.013  19.483  0.00  0.00    +0.000 OA
ATOM     11  C   UNL     1       7.975   5.848  19.338  0.00  0.00    +0.000 C 
ENDBRANCH   5  10
BRANCH   4  12
ATOM     12  O   UNL     1       4.048   4.151  19.664  0.00  0.00    +0.000 OA
BRANCH  12  13
ATOM     13  C   UNL     1       2.862   4.937  19.751  0.00  0.00    +0.000 C 
BRANCH  13  14
ATOM     14  C   UNL     1       2.091   4.581  21.016  0.00  0.00    +0.000 C 
ATOM     15  C   UNL     1       2.282   3.110  21.353  0.00  0.00    +0.000 C 
ENDBRANCH  13  14
ENDBRANCH  12  13
ENDBRANCH   4  12
TORSDOF 5
ENDMDL
MODEL 3
REMARK VINA RESULT:      -6.0      1.078      1.400
REMARK  Name = 
REMARK  8 active torsions:
REMARK  status: ('A' for Active; 'I' for Inactive)
REMARK    1  A    between atoms: C_1  and  C_2
REMARK    2  A    between atoms: C_3  and  C_4
REMARK    3  A    between atoms: C_7  and  O_8
REMARK    4  A    between atoms: O_8  and  C_9
REMARK    5  A    between atoms: C_9  and  C_10
REMARK    6  A    between atoms: C_10  and  C_11
REMARK    7  A    between atoms: C_12  and  O_13
REMARK    8  A    between atoms: O_13  and  C_14
REMARK                            x       y       z     vdW  Elec       q    Type
REMARK                         _______ _______ _______ _____ _____    ______ ____
ROOT
ATOM      1  C   UNL     1       4.722   5.119  16.624  0.00  0.00    +0.000 A 
ATOM      2  C   UNL     1       4.182   6.217  17.293  0.00  0.00    +0.000 A 
ATOM      3  C   UNL     1       3.611   6.055  18.561  0.00  0.00    +0.000 A 
ATOM      4  C   UNL     1       3.575   4.804  19.190  0.00  0.00    +0.000 A 
ATOM      5  C   UNL     1       4.139   3.693  18.534  0.00  0.00    +0.000 A 
ATOM      6  C   UNL     1       4.710   3.872  17.265  0.00  0.00    +0.000 A 
ENDROOT
BRANCH   1   9
ATOM      7  C   UNL     1       7.115   4.785  13.600  0.00  0.00    +0.000 C 
ATOM      8  C   UNL     1       6.416   4.567  14.899  0.00  0.00    +0.000 C 
ATOM      9  C   UNL     1       5.358   5.287  15.308  0.00  0.00    +0.000 C 
ENDBRANCH   1   9
BRANCH   5  10
ATOM     10  O   UNL     1       4.121   2.476  19.160  0.00  0.00    +0.000 OA
ATOM     11  C   UNL     1       3.590   1.354  18.471  0.00  0.00    +0.000 C 
ENDBRANCH   5  10
BRANCH   4  12
ATOM     12  O   UNL     1       2.970   4.847  20.426  0.00  0.00    +0.000 OA
BRANCH  12  13
ATOM     13  C   UNL     1       1.546   4.886  20.460  0.00  0.00    +0.000 C 
BRANCH  13  14
ATOM     14  C   UNL     1       0.985   3.469  20.487  0.00  0.00    +0.000 C 
ATOM     15  C   UNL     1       1.569   2.693  21.657  0.00  0.00    +0.000 C 
ENDBRANCH  13  14
ENDBRANCH  12  13
ENDBRANCH   4  12
TORSDOF 5
ENDMDL
MODEL 4
REMARK VINA RESULT:      -5.9      1.852      5.463
REMARK  Name = 
REMARK  8 active torsions:
REMARK  status: ('A' for Active; 'I' for Inactive)
REMARK    1  A    between atoms: C_1  and  C_2
REMARK    2  A    between atoms: C_3  and  C_4
REMARK    3  A    between atoms: C_7  and  O_8
REMARK    4  A    between atoms: O_8  and  C_9
REMARK    5  A    between atoms: C_9  and  C_10
REMARK    6  A    between atoms: C_10  and  C_11
REMARK    7  A    between atoms: C_12  and  O_13
REMARK    8  A    between atoms: O_13  and  C_14
REMARK                            x       y       z     vdW  Elec       q    Type
REMARK                         _______ _______ _______ _____ _____    ______ ____
ROOT
ATOM      1  C   UNL     1       3.442   6.398  17.671  0.00  0.00    +0.000 A 
ATOM      2  C   UNL     1       4.510   6.822  16.881  0.00  0.00    +0.000 A 
ATOM      3  C   UNL     1       5.359   5.881  16.285  0.00  0.00    +0.000 A 
ATOM      4  C   UNL     1       5.157   4.505  16.454  0.00  0.00    +0.000 A 
ATOM      5  C   UNL     1       4.067   4.066  17.231  0.00  0.00    +0.000 A 
ATOM      6  C   UNL     1       3.224   5.020  17.819  0.00  0.00    +0.000 A 
ENDROOT
BRANCH   1   9
ATOM      7  C   UNL     1       1.456   9.634  18.418  0.00  0.00    +0.000 C 
ATOM      8  C   UNL     1       2.326   8.609  17.772  0.00  0.00    +0.000 C 
ATOM      9  C   UNL     1       2.523   7.377  18.270  0.00  0.00    +0.000 C 
ENDBRANCH   1   9
BRANCH   5  10
ATOM     10  O   UNL     1       3.860   2.720  17.377  0.00  0.00    +0.000 OA
ATOM     11  C   UNL     1       2.966   2.266  18.382  0.00  0.00    +0.000 C 
ENDBRANCH   5  10
BRANCH   4  12
ATOM     12  O   UNL     1       6.097   3.745  15.796  0.00  0.00    +0.000 OA
BRANCH  12  13
ATOM     13  C   UNL     1       6.578   4.231  14.546  0.00  0.00    +0.000 C 
BRANCH  13  14
ATOM     14  C   UNL     1       5.674   3.753  13.417  0.00  0.00    +0.000 C 
ATOM     15  C   UNL     1       6.494   3.474  12.166  0.00  0.00    +0.000 C 
ENDBRANCH  13  14
ENDBRANCH  12  13
ENDBRANCH   4  12
TORSDOF 5
ENDMDL
MODEL 5
REMARK VINA RESULT:      -5.9      1.626      2.361
REMARK  Name = 
REMARK  8 active torsions:
REMARK  status: ('A' for Active; 'I' for Inactive)
REMARK    1  A    between atoms: C_1  and  C_2
REMARK    2  A    between atoms: C_3  and  C_4
REMARK    3  A    between atoms: C_7  and  O_8
REMARK    4  A    between atoms: O_8  and  C_9
REMARK    5  A    between atoms: C_9  and  C_10
REMARK    6  A    between atoms: C_10  and  C_11
REMARK    7  A    between atoms: C_12  and  O_13
REMARK    8  A    between atoms: O_13  and  C_14
REMARK                            x       y       z     vdW  Elec       q    Type
REMARK                         _______ _______ _______ _____ _____    ______ ____
ROOT
ATOM      1  C   UNL     1       5.963   4.292  15.945  0.00  0.00    +0.000 A 
ATOM      2  C   UNL     1       4.612   3.970  16.076  0.00  0.00    +0.000 A 
ATOM      3  C   UNL     1       4.009   3.975  17.340  0.00  0.00    +0.000 A 
ATOM      4  C   UNL     1       4.733   4.308  18.492  0.00  0.00    +0.000 A 
ATOM      5  C   UNL     1       6.091   4.658  18.368  0.00  0.00    +0.000 A 
ATOM      6  C   UNL     1       6.680   4.652  17.095  0.00  0.00    +0.000 A 
ENDROOT
BRANCH   1   9
ATOM      7  C   UNL     1       6.729   3.726  12.194  0.00  0.00    +0.000 C 
ATOM      8  C   UNL     1       6.057   3.763  13.524  0.00  0.00    +0.000 C 
ATOM      9  C   UNL     1       6.595   4.328  14.617  0.00  0.00    +0.000 C 
ENDBRANCH   1   9
BRANCH   5  10
ATOM     10  O   UNL     1       6.790   5.004  19.493  0.00  0.00    +0.000 OA
ATOM     11  C   UNL     1       7.944   5.819  19.364  0.00  0.00    +0.000 C 
ENDBRANCH   5  10
BRANCH   4  12
ATOM     12  O   UNL     1       3.968   4.249  19.635  0.00  0.00    +0.000 OA
BRANCH  12  13
ATOM     13  C   UNL     1       2.557   4.388  19.490  0.00  0.00    +0.000 C 
BRANCH  13  14
ATOM     14  C   UNL     1       2.054   5.539  20.352  0.00  0.00    +0.000 C 
ATOM     15  C   UNL     1       2.335   6.870  19.670  0.00  0.00    +0.000 C 
ENDBRANCH  13  14
ENDBRANCH  12  13
ENDBRANCH   4  12
TORSDOF 5
ENDMDL
MODEL 6
REMARK VINA RESULT:      -5.8      2.646      4.344
REMARK  Name = 
REMARK  8 active torsions:
REMARK  status: ('A' for Active; 'I' for Inactive)
REMARK    1  A    between atoms: C_1  and  C_2
REMARK    2  A    between atoms: C_3  and  C_4
REMARK    3  A    between atoms: C_7  and  O_8
REMARK    4  A    between atoms: O_8  and  C_9
REMARK    5  A    between atoms: C_9  and  C_10
REMARK    6  A    between atoms: C_10  and  C_11
REMARK    7  A    between atoms: C_12  and  O_13
REMARK    8  A    between atoms: O_13  and  C_14
REMARK                            x       y       z     vdW  Elec       q    Type
REMARK                         _______ _______ _______ _____ _____    ______ ____
ROOT
ATOM      1  C   UNL     1       7.011   6.307  17.789  0.00  0.00    +0.000 A 
ATOM      2  C   UNL     1       6.473   5.503  18.794  0.00  0.00    +0.000 A 
ATOM      3  C   UNL     1       5.571   4.483  18.468  0.00  0.00    +0.000 A 
ATOM      4  C   UNL     1       5.195   4.237  17.142  0.00  0.00    +0.000 A 
ATOM      5  C   UNL     1       5.750   5.027  16.117  0.00  0.00    +0.000 A 
ATOM      6  C   UNL     1       6.655   6.043  16.458  0.00  0.00    +0.000 A 
ENDROOT
BRANCH   1   9
ATOM      7  C   UNL     1       8.799   9.722  18.137  0.00  0.00    +0.000 C 
ATOM      8  C   UNL     1       7.782   8.661  17.881  0.00  0.00    +0.000 C 
ATOM      9  C   UNL     1       7.989   7.356  18.116  0.00  0.00    +0.000 C 
ENDBRANCH   1   9
BRANCH   5  10
ATOM     10  O   UNL     1       5.397   4.770  14.820  0.00  0.00    +0.000 OA
ATOM     11  C   UNL     1       6.249   3.962  14.021  0.00  0.00    +0.000 C 
ENDBRANCH   5  10
BRANCH   4  12
ATOM     12  O   UNL     1       4.298   3.199  17.027  0.00  0.00    +0.000 OA
BRANCH  12  13
ATOM     13  C   UNL     1       3.589   2.810  18.201  0.00  0.00    +0.000 C 
BRANCH  13  14
ATOM     14  C   UNL     1       2.090   2.793  17.925  0.00  0.00    +0.000 C 
ATOM     15  C   UNL     1       1.585   4.206  17.676  0.00  0.00    +0.000 C 
ENDBRANCH  13  14
ENDBRANCH  12  13
ENDBRANCH   4  12
TORSDOF 5
ENDMDL
MODEL 7
REMARK VINA RESULT:      -5.7      1.232      2.555
REMARK  Name = 
REMARK  8 active torsions:
REMARK  status: ('A' for Active; 'I' for Inactive)
REMARK    1  A    between atoms: C_1  and  C_2
REMARK    2  A    between atoms: C_3  and  C_4
REMARK    3  A    between atoms: C_7  and  O_8
REMARK    4  A    between atoms: O_8  and  C_9
REMARK    5  A    between atoms: C_9  and  C_10
REMARK    6  A    between atoms: C_10  and  C_11
REMARK    7  A    between atoms: C_12  and  O_13
REMARK    8  A    between atoms: O_13  and  C_14
REMARK                            x       y       z     vdW  Elec       q    Type
REMARK                         _______ _______ _______ _____ _____    ______ ____
ROOT
ATOM      1  C   UNL     1       5.014   4.914  16.155  0.00  0.00    +0.000 A 
ATOM      2  C   UNL     1       4.769   3.677  16.751  0.00  0.00    +0.000 A 
ATOM      3  C   UNL     1       4.068   3.609  17.961  0.00  0.00    +0.000 A 
ATOM      4  C   UNL     1       3.590   4.764  18.594  0.00  0.00    +0.000 A 
ATOM      5  C   UNL     1       3.812   6.016  17.988  0.00  0.00    +0.000 A 
ATOM      6  C   UNL     1       4.513   6.068  16.775  0.00  0.00    +0.000 A 
ENDROOT
BRANCH   1   9
ATOM      7  C   UNL     1       6.699   3.990  12.795  0.00  0.00    +0.000 C 
ATOM      8  C   UNL     1       5.920   3.933  14.065  0.00  0.00    +0.000 C 
ATOM      9  C   UNL     1       5.716   4.993  14.864  0.00  0.00    +0.000 C 
ENDBRANCH   1   9
BRANCH   5  10
ATOM     10  O   UNL     1       3.326   7.141  18.599  0.00  0.00    +0.000 OA
ATOM     11  C   UNL     1       2.655   8.115  17.814  0.00  0.00    +0.000 C 
ENDBRANCH   5  10
BRANCH   4  12
ATOM     12  O   UNL     1       2.933   4.491  19.772  0.00  0.00    +0.000 OA
BRANCH  12  13
ATOM     13  C   UNL     1       1.520   4.312  19.712  0.00  0.00    +0.000 C 
BRANCH  13  14
ATOM     14  C   UNL     1       1.103   3.148  20.601  0.00  0.00    +0.000 C 
ATOM     15  C   UNL     1       2.187   2.852  21.626  0.00  0.00    +0.000 C 
ENDBRANCH  13  14
ENDBRANCH  12  13
ENDBRANCH   4  12
TORSDOF 5
ENDMDL
MODEL 8
REMARK VINA RESULT:      -5.7      2.102      6.109
REMARK  Name = 
REMARK  8 active torsions:
REMARK  status: ('A' for Active; 'I' for Inactive)
REMARK    1  A    between atoms: C_1  and  C_2
REMARK    2  A    between atoms: C_3  and  C_4
REMARK    3  A    between atoms: C_7  and  O_8
REMARK    4  A    between atoms: O_8  and  C_9
REMARK    5  A    between atoms: C_9  and  C_10
REMARK    6  A    between atoms: C_10  and  C_11
REMARK    7  A    between atoms: C_12  and  O_13
REMARK    8  A    between atoms: O_13  and  C_14
REMARK                            x       y       z     vdW  Elec       q    Type
REMARK                         _______ _______ _______ _____ _____    ______ ____
ROOT
ATOM      1  C   UNL     1       4.235   5.318  17.916  0.00  0.00    +0.000 A 
ATOM      2  C   UNL     1       4.069   4.212  17.083  0.00  0.00    +0.000 A 
ATOM      3  C   UNL     1       5.027   3.922  16.104  0.00  0.00    +0.000 A 
ATOM      4  C   UNL     1       6.169   4.716  15.942  0.00  0.00    +0.000 A 
ATOM      5  C   UNL     1       6.358   5.822  16.793  0.00  0.00    +0.000 A 
ATOM      6  C   UNL     1       5.392   6.098  17.772  0.00  0.00    +0.000 A 
ENDROOT
BRANCH   1   9
ATOM      7  C   UNL     1       1.626   4.941  20.750  0.00  0.00    +0.000 C 
ATOM      8  C   UNL     1       2.679   4.662  19.732  0.00  0.00    +0.000 C 
ATOM      9  C   UNL     1       3.254   5.609  18.973  0.00  0.00    +0.000 C 
ENDBRANCH   1   9
BRANCH   5  10
ATOM     10  O   UNL     1       7.486   6.584  16.646  0.00  0.00    +0.000 OA
ATOM     11  C   UNL     1       7.689   7.688  17.515  0.00  0.00    +0.000 C 
ENDBRANCH   5  10
BRANCH   4  12
ATOM     12  O   UNL     1       6.985   4.273  14.926  0.00  0.00    +0.000 OA
BRANCH  12  13
ATOM     13  C   UNL     1       6.793   4.840  13.632  0.00  0.00    +0.000 C 
BRANCH  13  14
ATOM     14  C   UNL     1       6.793   3.742  12.575  0.00  0.00    +0.000 C 
ATOM     15  C   UNL     1       5.367   3.342  12.231  0.00  0.00    +0.000 C 
ENDBRANCH  13  14
ENDBRANCH  12  13
ENDBRANCH   4  12
TORSDOF 5
ENDMDL
MODEL 9
REMARK VINA RESULT:      -5.7      2.383      4.894
REMARK  Name = 
REMARK  8 active torsions:
REMARK  status: ('A' for Active; 'I' for Inactive)
REMARK    1  A    between atoms: C_1  and  C_2
REMARK    2  A    between atoms: C_3  and  C_4
REMARK    3  A    between atoms: C_7  and  O_8
REMARK    4  A    between atoms: O_8  and  C_9
REMARK    5  A    between atoms: C_9  and  C_10
REMARK    6  A    between atoms: C_10  and  C_11
REMARK    7  A    between atoms: C_12  and  O_13
REMARK    8  A    between atoms: O_13  and  C_14
REMARK                            x       y       z     vdW  Elec       q    Type
REMARK                         _______ _______ _______ _____ _____    ______ ____
ROOT
ATOM      1  C   UNL     1       3.041   4.751  17.549  0.00  0.00    +0.000 A 
ATOM      2  C   UNL     1       3.257   6.100  17.829  0.00  0.00    +0.000 A 
ATOM      3  C   UNL     1       4.443   6.721  17.419  0.00  0.00    +0.000 A 
ATOM      4  C   UNL     1       5.429   6.017  16.715  0.00  0.00    +0.000 A 
ATOM      5  C   UNL     1       5.211   4.660  16.407  0.00  0.00    +0.000 A 
ATOM      6  C   UNL     1       4.016   4.054  16.821  0.00  0.00    +0.000 A 
ENDROOT
BRANCH   1   9
ATOM      7  C   UNL     1       0.449   2.202  18.878  0.00  0.00    +0.000 C 
ATOM      8  C   UNL     1       1.723   2.904  18.548  0.00  0.00    +0.000 C 
ATOM      9  C   UNL     1       1.781   4.101  17.942  0.00  0.00    +0.000 C 
ENDBRANCH   1   9
BRANCH   5  10
ATOM     10  O   UNL     1       6.167   3.981  15.701  0.00  0.00    +0.000 OA
ATOM     11  C   UNL     1       6.137   4.026  14.282  0.00  0.00    +0.000 C 
ENDBRANCH   5  10
BRANCH   4  12
ATOM     12  O   UNL     1       6.521   6.796  16.406  0.00  0.00    +0.000 OA
BRANCH  12  13
ATOM     13  C   UNL     1       7.446   7.077  17.453  0.00  0.00    +0.000 C 
BRANCH  13  14
ATOM     14  C   UNL     1       7.881   5.781  18.127  0.00  0.00    +0.000 C 
ATOM     15  C   UNL     1       7.587   5.839  19.619  0.00  0.00    +0.000 C 
ENDBRANCH  13  14
ENDBRANCH  12  13
ENDBRANCH   4  12
TORSDOF 5
ENDMDL
