MODEL 1
REMARK VINA RESULT:      -6.6      0.000      0.000
REMARK  Name = 
REMARK  9 active torsions:
REMARK  status: ('A' for Active; 'I' for Inactive)
REMARK    1  A    between atoms: C_1  and  C_2
REMARK    2  A    between atoms: C_2  and  C_3
REMARK    3  A    between atoms: C_3  and  N_4
REMARK    4  A    between atoms: N_4  and  C_5
REMARK    5  A    between atoms: N_4  and  C_19
REMARK    6  A    between atoms: C_5  and  C_6
REMARK    7  A    between atoms: C_6  and  N_7
REMARK    8  A    between atoms: N_10  and  C_11
REMARK    9  A    between atoms: C_25  and  O_26
REMARK                            x       y       z     vdW  Elec       q    Type
REMARK                         _______ _______ _______ _____ _____    ______ ____
ROOT
ATOM      1  N   UNL     1       2.619   5.495  18.810  0.00  0.00    +0.000 NA
ENDROOT
BRANCH   1   2
ATOM      2  C   UNL     1       1.552   4.853  19.632  0.00  0.00    +0.000 C 
ATOM      3  C   UNL     1       0.726   3.854  18.788  0.00  0.00    +0.000 C 
ATOM      4  C   UNL     1       1.622   2.769  18.178  0.00  0.00    +0.000 C 
ATOM      5  C   UNL     1       2.726   2.292  19.098  0.00  0.00    +0.000 A 
ATOM      6  C   UNL     1       3.650   1.350  18.626  0.00  0.00    +0.000 A 
ATOM      7  C   UNL     1       4.712   0.932  19.429  0.00  0.00    +0.000 A 
ATOM      8  C   UNL     1       4.820   1.417  20.727  0.00  0.00    +0.000 A 
ATOM      9  C   UNL     1       3.911   2.344  21.219  0.00  0.00    +0.000 A 
ATOM     10  C   UNL     1       2.899   2.836  20.385  0.00  0.00    +0.000 A 
ATOM     11  C   UNL     1       2.043   3.995  20.840  0.00  0.00    +0.000 C 
BRANCH   8  12
ATOM     12  O   UNL     1       5.842   1.034  21.546  0.00  0.00    +0.000 OA
ATOM     13  H   UNL     1       5.848   0.064  21.589  0.00  0.00    +0.000 HD
ENDBRANCH   8  12
ENDBRANCH   1   2
BRANCH   1  14
ATOM     14  C   UNL     1       2.123   6.557  17.918  0.00  0.00    +0.000 C 
BRANCH  14  16
ATOM     15  C   UNL     1       1.382   8.949  18.379  0.00  0.00    +0.000 C 
ATOM     16  C   UNL     1       2.551   7.975  18.331  0.00  0.00    +0.000 C 
ENDBRANCH  14  16
ENDBRANCH   1  14
BRANCH   1  17
ATOM     17  C   UNL     1       3.839   5.890  19.544  0.00  0.00    +0.000 C 
BRANCH  17  18
ATOM     18  C   UNL     1       5.136   5.203  19.068  0.00  0.00    +0.000 C 
BRANCH  18  19
ATOM     19  N   UNL     1       6.060   6.068  18.305  0.00  0.00    +0.000 NA
ATOM     20  C   UNL     1       7.232   5.270  17.858  0.00  0.00    +0.000 C 
ATOM     21  C   UNL     1       6.886   4.148  16.856  0.00  0.00    +0.000 C 
ATOM     22  N   UNL     1       6.095   4.662  15.727  0.00  0.00    +0.000 N 
ATOM     23  C   UNL     1       4.994   5.590  16.040  0.00  0.00    +0.000 C 
ATOM     24  C   UNL     1       5.434   6.637  17.089  0.00  0.00    +0.000 C 
BRANCH  22  25
ATOM     25  C   UNL     1       6.539   4.550  14.424  0.00  0.00    +0.000 A 
ATOM     26  C   UNL     1       7.541   5.388  13.930  0.00  0.00    +0.000 A 
ATOM     27  C   UNL     1       7.938   5.270  12.606  0.00  0.00    +0.000 A 
ATOM     28  N   UNL     1       7.423   4.375  11.743  0.00  0.00    +0.000 NA
ATOM     29  C   UNL     1       6.471   3.562  12.237  0.00  0.00    +0.000 A 
ATOM     30  C   UNL     1       6.005   3.614  13.537  0.00  0.00    +0.000 A 
ENDBRANCH  22  25
ENDBRANCH  18  19
ENDBRANCH  17  18
ENDBRANCH   1  17
TORSDOF 8
ENDMDL
MODEL 2
REMARK VINA RESULT:      -6.4      3.067      7.535
REMARK  Name = 
REMARK  9 active torsions:
REMARK  status: ('A' for Active; 'I' for Inactive)
REMARK    1  A    between atoms: C_1  and  C_2
REMARK    2  A    between atoms: C_2  and  C_3
REMARK    3  A    between atoms: C_3  and  N_4
REMARK    4  A    between atoms: N_4  and  C_5
REMARK    5  A    between atoms: N_4  and  C_19
REMARK    6  A    between atoms: C_5  and  C_6
REMARK    7  A    between atoms: C_6  and  N_7
REMARK    8  A    between atoms: N_10  and  C_11
REMARK    9  A    between atoms: C_25  and  O_26
REMARK                            x       y       z     vdW  Elec       q    Type
REMARK                         _______ _______ _______ _____ _____    ______ ____
ROOT
ATOM      1  N   UNL     1       5.877   6.744  17.103  0.00  0.00    +0.000 NA
ENDROOT
BRANCH   1   2
ATOM      2  C   UNL     1       6.301   5.510  16.380  0.00  0.00    +0.000 C 
ATOM      3  C   UNL     1       7.231   4.642  17.258  0.00  0.00    +0.000 C 
ATOM      4  C   UNL     1       6.546   4.252  18.574  0.00  0.00    +0.000 C 
ATOM      5  C   UNL     1       5.076   3.924  18.431  0.00  0.00    +0.000 A 
ATOM      6  C   UNL     1       4.328   3.619  19.576  0.00  0.00    +0.000 A 
ATOM      7  C   UNL     1       2.958   3.368  19.485  0.00  0.00    +0.000 A 
ATOM      8  C   UNL     1       2.344   3.370  18.238  0.00  0.00    +0.000 A 
ATOM      9  C   UNL     1       3.067   3.661  17.088  0.00  0.00    +0.000 A 
ATOM     10  C   UNL     1       4.421   4.004  17.186  0.00  0.00    +0.000 A 
ATOM     11  C   UNL     1       5.156   4.528  15.975  0.00  0.00    +0.000 C 
BRANCH   8  12
ATOM     12  O   UNL     1       1.009   3.129  18.103  0.00  0.00    +0.000 OA
ATOM     13  H   UNL     1       0.610   3.879  17.631  0.00  0.00    +0.000 HD
ENDBRANCH   8  12
ENDBRANCH   1   2
BRANCH   1  14
ATOM     14  C   UNL     1       6.804   7.877  16.939  0.00  0.00    +0.000 C 
BRANCH  14  16
ATOM     15  C   UNL     1       8.468   9.331  18.203  0.00  0.00    +0.000 C 
ATOM     16  C   UNL     1       7.929   7.923  17.985  0.00  0.00    +0.000 C 
ENDBRANCH  14  16
ENDBRANCH   1  14
BRANCH   1  17
ATOM     17  C   UNL     1       4.462   7.134  16.926  0.00  0.00    +0.000 C 
BRANCH  17  18
ATOM     18  C   UNL     1       3.689   7.390  18.236  0.00  0.00    +0.000 C 
BRANCH  18  19
ATOM     19  N   UNL     1       2.217   7.320  18.120  0.00  0.00    +0.000 NA
ATOM     20  C   UNL     1       1.635   6.892  19.419  0.00  0.00    +0.000 C 
ATOM     21  C   UNL     1       1.854   7.898  20.570  0.00  0.00    +0.000 C 
ATOM     22  N   UNL     1       1.430   9.253  20.186  0.00  0.00    +0.000 N 
ATOM     23  C   UNL     1       1.821   9.730  18.848  0.00  0.00    +0.000 C 
ATOM     24  C   UNL     1       1.610   8.629  17.783  0.00  0.00    +0.000 C 
BRANCH  22  25
ATOM     25  C   UNL     1       0.453   9.931  20.889  0.00  0.00    +0.000 A 
ATOM     26  C   UNL     1      -0.297  10.943  20.288  0.00  0.00    +0.000 A 
ATOM     27  C   UNL     1      -1.246  11.625  21.034  0.00  0.00    +0.000 A 
ATOM     28  N   UNL     1      -1.511  11.369  22.328  0.00  0.00    +0.000 NA
ATOM     29  C   UNL     1      -0.794  10.379  22.891  0.00  0.00    +0.000 A 
ATOM     30  C   UNL     1       0.178   9.653  22.230  0.00  0.00    +0.000 A 
ENDBRANCH  22  25
ENDBRANCH  18  19
ENDBRANCH  17  18
ENDBRANCH   1  17
TORSDOF 8
ENDMDL
MODEL 3
REMARK VINA RESULT:      -6.3      3.823      8.250
REMARK  Name = 
REMARK  9 active torsions:
REMARK  status: ('A' for Active; 'I' for Inactive)
REMARK    1  A    between atoms: C_1  and  C_2
REMARK    2  A    between atoms: C_2  and  C_3
REMARK    3  A    between atoms: C_3  and  N_4
REMARK    4  A    between atoms: N_4  and  C_5
REMARK    5  A    between atoms: N_4  and  C_19
REMARK    6  A    between atoms: C_5  and  C_6
REMARK    7  A    between atoms: C_6  and  N_7
REMARK    8  A    between atoms: N_10  and  C_11
REMARK    9  A    between atoms: C_25  and  O_26
REMARK                            x       y       z     vdW  Elec       q    Type
REMARK                         _______ _______ _______ _____ _____    ______ ____
ROOT
ATOM      1  N   UNL     1       3.425   6.068  18.186  0.00  0.00    +0.000 NA
ENDROOT
BRANCH   1   2
ATOM      2  C   UNL     1       4.580   5.635  19.025  0.00  0.00    +0.000 C 
ATOM      3  C   UNL     1       4.547   4.109  19.273  0.00  0.00    +0.000 C 
ATOM      4  C   UNL     1       4.557   3.331  17.951  0.00  0.00    +0.000 C 
ATOM      5  C   UNL     1       5.453   3.932  16.890  0.00  0.00    +0.000 A 
ATOM      6  C   UNL     1       5.492   3.347  15.617  0.00  0.00    +0.000 A 
ATOM      7  C   UNL     1       6.264   3.910  14.599  0.00  0.00    +0.000 A 
ATOM      8  C   UNL     1       7.041   5.030  14.870  0.00  0.00    +0.000 A 
ATOM      9  C   UNL     1       7.024   5.622  16.127  0.00  0.00    +0.000 A 
ATOM     10  C   UNL     1       6.180   5.115  17.122  0.00  0.00    +0.000 A 
ATOM     11  C   UNL     1       5.996   5.876  18.414  0.00  0.00    +0.000 C 
BRANCH   8  12
ATOM     12  O   UNL     1       7.811   5.611  13.905  0.00  0.00    +0.000 OA
ATOM     13  H   UNL     1       7.220   5.996  13.236  0.00  0.00    +0.000 HD
ENDBRANCH   8  12
ENDBRANCH   1   2
BRANCH   1  14
ATOM     14  C   UNL     1       2.121   5.592  18.681  0.00  0.00    +0.000 C 
BRANCH  14  16
ATOM     15  C   UNL     1       1.033   3.302  18.448  0.00  0.00    +0.000 C 
ATOM     16  C   UNL     1       1.420   4.596  17.743  0.00  0.00    +0.000 C 
ENDBRANCH  14  16
ENDBRANCH   1  14
BRANCH   1  17
ATOM     17  C   UNL     1       3.407   7.498  17.813  0.00  0.00    +0.000 C 
BRANCH  17  18
ATOM     18  C   UNL     1       2.281   8.326  18.464  0.00  0.00    +0.000 C 
BRANCH  18  19
ATOM     19  N   UNL     1       1.679   9.359  17.594  0.00  0.00    +0.000 NA
ATOM     20  C   UNL     1       0.206   9.380  17.794  0.00  0.00    +0.000 C 
ATOM     21  C   UNL     1      -0.232   9.808  19.211  0.00  0.00    +0.000 C 
ATOM     22  N   UNL     1       0.405  11.073  19.610  0.00  0.00    +0.000 N 
ATOM     23  C   UNL     1       1.842  11.227  19.321  0.00  0.00    +0.000 C 
ATOM     24  C   UNL     1       2.177  10.721  17.899  0.00  0.00    +0.000 C 
BRANCH  22  25
ATOM     25  C   UNL     1      -0.343  12.185  19.944  0.00  0.00    +0.000 A 
ATOM     26  C   UNL     1      -1.686  12.068  20.306  0.00  0.00    +0.000 A 
ATOM     27  C   UNL     1      -2.416  13.209  20.603  0.00  0.00    +0.000 A 
ATOM     28  N   UNL     1      -1.907  14.455  20.578  0.00  0.00    +0.000 NA
ATOM     29  C   UNL     1      -0.606  14.552  20.245  0.00  0.00    +0.000 A 
ATOM     30  C   UNL     1       0.195  13.473  19.924  0.00  0.00    +0.000 A 
ENDBRANCH  22  25
ENDBRANCH  18  19
ENDBRANCH  17  18
ENDBRANCH   1  17
TORSDOF 8
ENDMDL
MODEL 4
REMARK VINA RESULT:      -6.3      1.183      1.544
REMARK  Name = 
REMARK  9 active torsions:
REMARK  status: ('A' for Active; 'I' for Inactive)
REMARK    1  A    between atoms: C_1  and  C_2
REMARK    2  A    between atoms: C_2  and  C_3
REMARK    3  A    between atoms: C_3  and  N_4
REMARK    4  A    between atoms: N_4  and  C_5
REMARK    5  A    between atoms: N_4  and  C_19
REMARK    6  A    between atoms: C_5  and  C_6
REMARK    7  A    between atoms: C_6  and  N_7
REMARK    8  A    between atoms: N_10  and  C_11
REMARK    9  A    between atoms: C_25  and  O_26
REMARK                            x       y       z     vdW  Elec       q    Type
REMARK                         _______ _______ _______ _____ _____    ______ ____
ROOT
ATOM      1  N   UNL     1       2.306   5.753  19.782  0.00  0.00    +0.000 NA
ENDROOT
BRANCH   1   2
ATOM      2  C   UNL     1       1.507   4.972  20.771  0.00  0.00    +0.000 C 
ATOM      3  C   UNL     1       0.335   4.236  20.081  0.00  0.00    +0.000 C 
ATOM      4  C   UNL     1       0.841   3.297  18.979  0.00  0.00    +0.000 C 
ATOM      5  C   UNL     1       2.123   2.572  19.327  0.00  0.00    +0.000 A 
ATOM      6  C   UNL     1       2.718   1.738  18.371  0.00  0.00    +0.000 A 
ATOM      7  C   UNL     1       3.931   1.101  18.640  0.00  0.00    +0.000 A 
ATOM      8  C   UNL     1       4.523   1.256  19.888  0.00  0.00    +0.000 A 
ATOM      9  C   UNL     1       3.946   2.070  20.854  0.00  0.00    +0.000 A 
ATOM     10  C   UNL     1       2.780   2.785  20.555  0.00  0.00    +0.000 A 
ATOM     11  C   UNL     1       2.269   3.832  21.517  0.00  0.00    +0.000 C 
BRANCH   8  12
ATOM     12  O   UNL     1       5.706   0.650  20.193  0.00  0.00    +0.000 OA
ATOM     13  H   UNL     1       5.577  -0.312  20.139  0.00  0.00    +0.000 HD
ENDBRANCH   8  12
ENDBRANCH   1   2
BRANCH   1  14
ATOM     14  C   UNL     1       1.905   7.167  19.679  0.00  0.00    +0.000 C 
BRANCH  14  16
ATOM     15  C   UNL     1       0.445   8.754  21.031  0.00  0.00    +0.000 C 
ATOM     16  C   UNL     1       1.672   7.853  21.035  0.00  0.00    +0.000 C 
ENDBRANCH  14  16
ENDBRANCH   1  14
BRANCH   1  17
ATOM     17  C   UNL     1       3.771   5.579  19.866  0.00  0.00    +0.000 C 
BRANCH  17  18
ATOM     18  C   UNL     1       4.572   6.241  18.726  0.00  0.00    +0.000 C 
BRANCH  18  19
ATOM     19  N   UNL     1       5.863   5.595  18.408  0.00  0.00    +0.000 NA
ATOM     20  C   UNL     1       5.617   4.250  17.825  0.00  0.00    +0.000 C 
ATOM     21  C   UNL     1       4.888   4.277  16.464  0.00  0.00    +0.000 C 
ATOM     22  N   UNL     1       5.554   5.185  15.517  0.00  0.00    +0.000 N 
ATOM     23  C   UNL     1       5.984   6.498  16.027  0.00  0.00    +0.000 C 
ATOM     24  C   UNL     1       6.653   6.361  17.415  0.00  0.00    +0.000 C 
BRANCH  22  25
ATOM     25  C   UNL     1       6.045   4.734  14.307  0.00  0.00    +0.000 A 
ATOM     26  C   UNL     1       5.323   3.825  13.531  0.00  0.00    +0.000 A 
ATOM     27  C   UNL     1       5.861   3.367  12.337  0.00  0.00    +0.000 A 
ATOM     28  N   UNL     1       7.056   3.755  11.854  0.00  0.00    +0.000 NA
ATOM     29  C   UNL     1       7.733   4.644  12.602  0.00  0.00    +0.000 A 
ATOM     30  C   UNL     1       7.281   5.147  13.808  0.00  0.00    +0.000 A 
ENDBRANCH  22  25
ENDBRANCH  18  19
ENDBRANCH  17  18
ENDBRANCH   1  17
TORSDOF 8
ENDMDL
MODEL 5
REMARK VINA RESULT:      -6.3      0.928      1.012
REMARK  Name = 
REMARK  9 active torsions:
REMARK  status: ('A' for Active; 'I' for Inactive)
REMARK    1  A    between atoms: C_1  and  C_2
REMARK    2  A    between atoms: C_2  and  C_3
REMARK    3  A    between atoms: C_3  and  N_4
REMARK    4  A    between atoms: N_4  and  C_5
REMARK    5  A    between atoms: N_4  and  C_19
REMARK    6  A    between atoms: C_5  and  C_6
REMARK    7  A    between atoms: C_6  and  N_7
REMARK    8  A    between atoms: N_10  and  C_11
REMARK    9  A    between atoms: C_25  and  O_26
REMARK                            x       y       z     vdW  Elec       q    Type
REMARK                         _______ _______ _______ _____ _____    ______ ____
ROOT
ATOM      1  N   UNL     1       2.590   5.885  19.745  0.00  0.00    +0.000 NA
ENDROOT
BRANCH   1   2
ATOM      2  C   UNL     1       1.712   5.141  20.696  0.00  0.00    +0.000 C 
ATOM      3  C   UNL     1       0.520   4.490  19.958  0.00  0.00    +0.000 C 
ATOM      4  C   UNL     1       1.002   3.536  18.857  0.00  0.00    +0.000 C 
ATOM      5  C   UNL     1       2.225   2.729  19.234  0.00  0.00    +0.000 A 
ATOM      6  C   UNL     1       2.797   1.872  18.284  0.00  0.00    +0.000 A 
ATOM      7  C   UNL     1       3.959   1.157  18.580  0.00  0.00    +0.000 A 
ATOM      8  C   UNL     1       4.519   1.257  19.848  0.00  0.00    +0.000 A 
ATOM      9  C   UNL     1       3.963   2.092  20.809  0.00  0.00    +0.000 A 
ATOM     10  C   UNL     1       2.853   2.882  20.485  0.00  0.00    +0.000 A 
ATOM     11  C   UNL     1       2.377   3.945  21.447  0.00  0.00    +0.000 C 
BRANCH   8  12
ATOM     12  O   UNL     1       5.652   0.574  20.181  0.00  0.00    +0.000 OA
ATOM     13  H   UNL     1       6.355   0.834  19.563  0.00  0.00    +0.000 HD
ENDBRANCH   8  12
ENDBRANCH   1   2
BRANCH   1  14
ATOM     14  C   UNL     1       2.143   7.262  19.478  0.00  0.00    +0.000 C 
BRANCH  14  16
ATOM     15  C   UNL     1       0.410   8.701  20.665  0.00  0.00    +0.000 C 
ATOM     16  C   UNL     1       1.791   8.065  20.741  0.00  0.00    +0.000 C 
ENDBRANCH  14  16
ENDBRANCH   1  14
BRANCH   1  17
ATOM     17  C   UNL     1       4.041   5.798  20.014  0.00  0.00    +0.000 C 
BRANCH  17  18
ATOM     18  C   UNL     1       4.881   5.204  18.866  0.00  0.00    +0.000 C 
BRANCH  18  19
ATOM     19  N   UNL     1       5.575   6.196  18.018  0.00  0.00    +0.000 NA
ATOM     20  C   UNL     1       6.915   5.675  17.639  0.00  0.00    +0.000 C 
ATOM     21  C   UNL     1       6.873   4.413  16.749  0.00  0.00    +0.000 C 
ATOM     22  N   UNL     1       5.998   4.609  15.583  0.00  0.00    +0.000 N 
ATOM     23  C   UNL     1       4.697   5.260  15.815  0.00  0.00    +0.000 C 
ATOM     24  C   UNL     1       4.847   6.476  16.758  0.00  0.00    +0.000 C 
BRANCH  22  25
ATOM     25  C   UNL     1       6.476   4.490  14.293  0.00  0.00    +0.000 A 
ATOM     26  C   UNL     1       7.512   5.303  13.831  0.00  0.00    +0.000 A 
ATOM     27  C   UNL     1       7.945   5.180  12.519  0.00  0.00    +0.000 A 
ATOM     28  N   UNL     1       7.432   4.301  11.638  0.00  0.00    +0.000 NA
ATOM     29  C   UNL     1       6.446   3.511  12.101  0.00  0.00    +0.000 A 
ATOM     30  C   UNL     1       5.944   3.570  13.387  0.00  0.00    +0.000 A 
ENDBRANCH  22  25
ENDBRANCH  18  19
ENDBRANCH  17  18
ENDBRANCH   1  17
TORSDOF 8
ENDMDL
MODEL 6
REMARK VINA RESULT:      -6.2      3.525      7.773
REMARK  Name = 
REMARK  9 active torsions:
REMARK  status: ('A' for Active; 'I' for Inactive)
REMARK    1  A    between atoms: C_1  and  C_2
REMARK    2  A    between atoms: C_2  and  C_3
REMARK    3  A    between atoms: C_3  and  N_4
REMARK    4  A    between atoms: N_4  and  C_5
REMARK    5  A    between atoms: N_4  and  C_19
REMARK    6  A    between atoms: C_5  and  C_6
REMARK    7  A    between atoms: C_6  and  N_7
REMARK    8  A    between atoms: N_10  and  C_11
REMARK    9  A    between atoms: C_25  and  O_26
REMARK                            x       y       z     vdW  Elec       q    Type
REMARK                         _______ _______ _______ _____ _____    ______ ____
ROOT
ATOM      1  N   UNL     1       3.428   6.009  18.231  0.00  0.00    +0.000 NA
ENDROOT
BRANCH   1   2
ATOM      2  C   UNL     1       2.709   5.024  17.372  0.00  0.00    +0.000 C 
ATOM      3  C   UNL     1       3.660   3.903  16.894  0.00  0.00    +0.000 C 
ATOM      4  C   UNL     1       4.298   3.172  18.082  0.00  0.00    +0.000 C 
ATOM      5  C   UNL     1       3.359   2.957  19.249  0.00  0.00    +0.000 A 
ATOM      6  C   UNL     1       3.849   2.359  20.419  0.00  0.00    +0.000 A 
ATOM      7  C   UNL     1       3.023   2.198  21.533  0.00  0.00    +0.000 A 
ATOM      8  C   UNL     1       1.691   2.587  21.460  0.00  0.00    +0.000 A 
ATOM      9  C   UNL     1       1.182   3.173  20.308  0.00  0.00    +0.000 A 
ATOM     10  C   UNL     1       2.030   3.421  19.221  0.00  0.00    +0.000 A 
ATOM     11  C   UNL     1       1.540   4.247  18.055  0.00  0.00    +0.000 C 
BRANCH   8  12
ATOM     12  O   UNL     1       0.850   2.446  22.524  0.00  0.00    +0.000 OA
ATOM     13  H   UNL     1       1.387   2.408  23.333  0.00  0.00    +0.000 HD
ENDBRANCH   8  12
ENDBRANCH   1   2
BRANCH   1  14
ATOM     14  C   UNL     1       4.442   6.797  17.510  0.00  0.00    +0.000 C 
BRANCH  14  16
ATOM     15  C   UNL     1       6.811   6.229  16.772  0.00  0.00    +0.000 C 
ATOM     16  C   UNL     1       5.888   6.513  17.949  0.00  0.00    +0.000 C 
ENDBRANCH  14  16
ENDBRANCH   1  14
BRANCH   1  17
ATOM     17  C   UNL     1       2.572   6.840  19.104  0.00  0.00    +0.000 C 
BRANCH  17  18
ATOM     18  C   UNL     1       1.900   8.039  18.404  0.00  0.00    +0.000 C 
BRANCH  18  19
ATOM     19  N   UNL     1       2.074   9.340  19.083  0.00  0.00    +0.000 NA
ATOM     20  C   UNL     1       1.562  10.429  18.209  0.00  0.00    +0.000 C 
ATOM     21  C   UNL     1       0.042  10.364  17.947  0.00  0.00    +0.000 C 
ATOM     22  N   UNL     1      -0.715  10.252  19.204  0.00  0.00    +0.000 N 
ATOM     23  C   UNL     1      -0.209   9.308  20.216  0.00  0.00    +0.000 C 
ATOM     24  C   UNL     1       1.326   9.421  20.359  0.00  0.00    +0.000 C 
BRANCH  22  25
ATOM     25  C   UNL     1      -1.657  11.195  19.567  0.00  0.00    +0.000 A 
ATOM     26  C   UNL     1      -1.488  11.981  20.707  0.00  0.00    +0.000 A 
ATOM     27  C   UNL     1      -2.471  12.894  21.060  0.00  0.00    +0.000 A 
ATOM     28  N   UNL     1      -3.602  13.090  20.357  0.00  0.00    +0.000 NA
ATOM     29  C   UNL     1      -3.744  12.338  19.250  0.00  0.00    +0.000 A 
ATOM     30  C   UNL     1      -2.824  11.398  18.827  0.00  0.00    +0.000 A 
ENDBRANCH  22  25
ENDBRANCH  18  19
ENDBRANCH  17  18
ENDBRANCH   1  17
TORSDOF 8
ENDMDL
MODEL 7
REMARK VINA RESULT:      -6.2      3.663      8.123
REMARK  Name = 
REMARK  9 active torsions:
REMARK  status: ('A' for Active; 'I' for Inactive)
REMARK    1  A    between atoms: C_1  and  C_2
REMARK    2  A    between atoms: C_2  and  C_3
REMARK    3  A    between atoms: C_3  and  N_4
REMARK    4  A    between atoms: N_4  and  C_5
REMARK    5  A    between atoms: N_4  and  C_19
REMARK    6  A    between atoms: C_5  and  C_6
REMARK    7  A    between atoms: C_6  and  N_7
REMARK    8  A    between atoms: N_10  and  C_11
REMARK    9  A    between atoms: C_25  and  O_26
REMARK                            x       y       z     vdW  Elec       q    Type
REMARK                         _______ _______ _______ _____ _____    ______ ____
ROOT
ATOM      1  N   UNL     1       3.337   5.667  18.434  0.00  0.00    +0.000 NA
ENDROOT
BRANCH   1   2
ATOM      2  C   UNL     1       4.504   5.204  19.242  0.00  0.00    +0.000 C 
ATOM      3  C   UNL     1       4.509   3.664  19.378  0.00  0.00    +0.000 C 
ATOM      4  C   UNL     1       4.539   2.985  18.003  0.00  0.00    +0.000 C 
ATOM      5  C   UNL     1       5.419   3.683  16.990  0.00  0.00    +0.000 A 
ATOM      6  C   UNL     1       5.473   3.193  15.678  0.00  0.00    +0.000 A 
ATOM      7  C   UNL     1       6.230   3.848  14.705  0.00  0.00    +0.000 A 
ATOM      8  C   UNL     1       6.978   4.965  15.058  0.00  0.00    +0.000 A 
ATOM      9  C   UNL     1       6.947   5.463  16.354  0.00  0.00    +0.000 A 
ATOM     10  C   UNL     1       6.116   4.865  17.309  0.00  0.00    +0.000 A 
ATOM     11  C   UNL     1       5.913   5.525  18.652  0.00  0.00    +0.000 C 
BRANCH   8  12
ATOM     12  O   UNL     1       7.733   5.634  14.139  0.00  0.00    +0.000 OA
ATOM     13  H   UNL     1       8.665   5.400  14.285  0.00  0.00    +0.000 HD
ENDBRANCH   8  12
ENDBRANCH   1   2
BRANCH   1  14
ATOM     14  C   UNL     1       2.041   5.166  18.923  0.00  0.00    +0.000 C 
BRANCH  14  16
ATOM     15  C   UNL     1       0.942   2.906  18.519  0.00  0.00    +0.000 C 
ATOM     16  C   UNL     1       1.302   4.261  17.924  0.00  0.00    +0.000 C 
ENDBRANCH  14  16
ENDBRANCH   1  14
BRANCH   1  17
ATOM     17  C   UNL     1       3.311   7.111  18.122  0.00  0.00    +0.000 C 
BRANCH  17  18
ATOM     18  C   UNL     1       2.009   7.839  18.515  0.00  0.00    +0.000 C 
BRANCH  18  19
ATOM     19  N   UNL     1       2.189   9.211  19.035  0.00  0.00    +0.000 NA
ATOM     20  C   UNL     1       1.601  10.186  18.079  0.00  0.00    +0.000 C 
ATOM     21  C   UNL     1       0.070  10.064  17.916  0.00  0.00    +0.000 C 
ATOM     22  N   UNL     1      -0.611  10.079  19.220  0.00  0.00    +0.000 N 
ATOM     23  C   UNL     1      -0.025   9.262  20.298  0.00  0.00    +0.000 C 
ATOM     24  C   UNL     1       1.513   9.419  20.337  0.00  0.00    +0.000 C 
BRANCH  22  25
ATOM     25  C   UNL     1      -1.555  11.038  19.532  0.00  0.00    +0.000 A 
ATOM     26  C   UNL     1      -1.429  11.827  20.676  0.00  0.00    +0.000 A 
ATOM     27  C   UNL     1      -2.413  12.757  20.976  0.00  0.00    +0.000 A 
ATOM     28  N   UNL     1      -3.505  12.968  20.217  0.00  0.00    +0.000 NA
ATOM     29  C   UNL     1      -3.604  12.213  19.108  0.00  0.00    +0.000 A 
ATOM     30  C   UNL     1      -2.680  11.256  18.735  0.00  0.00    +0.000 A 
ENDBRANCH  22  25
ENDBRANCH  18  19
ENDBRANCH  17  18
ENDBRANCH   1  17
TORSDOF 8
ENDMDL
MODEL 8
REMARK VINA RESULT:      -6.2      3.690      7.935
REMARK  Name = 
REMARK  9 active torsions:
REMARK  status: ('A' for Active; 'I' for Inactive)
REMARK    1  A    between atoms: C_1  and  C_2
REMARK    2  A    between atoms: C_2  and  C_3
REMARK    3  A    between atoms: C_3  and  N_4
REMARK    4  A    between atoms: N_4  and  C_5
REMARK    5  A    between atoms: N_4  and  C_19
REMARK    6  A    between atoms: C_5  and  C_6
REMARK    7  A    between atoms: C_6  and  N_7
REMARK    8  A    between atoms: N_10  and  C_11
REMARK    9  A    between atoms: C_25  and  O_26
REMARK                            x       y       z     vdW  Elec       q    Type
REMARK                         _______ _______ _______ _____ _____    ______ ____
ROOT
ATOM      1  N   UNL     1       3.355   6.120  18.256  0.00  0.00    +0.000 NA
ENDROOT
BRANCH   1   2
ATOM      2  C   UNL     1       2.563   5.164  17.428  0.00  0.00    +0.000 C 
ATOM      3  C   UNL     1       3.462   4.040  16.863  0.00  0.00    +0.000 C 
ATOM      4  C   UNL     1       4.167   3.274  17.990  0.00  0.00    +0.000 C 
ATOM      5  C   UNL     1       3.306   3.048  19.214  0.00  0.00    +0.000 A 
ATOM      6  C   UNL     1       3.865   2.418  20.335  0.00  0.00    +0.000 A 
ATOM      7  C   UNL     1       3.115   2.245  21.499  0.00  0.00    +0.000 A 
ATOM      8  C   UNL     1       1.787   2.655  21.525  0.00  0.00    +0.000 A 
ATOM      9  C   UNL     1       1.210   3.273  20.423  0.00  0.00    +0.000 A 
ATOM     10  C   UNL     1       1.986   3.532  19.286  0.00  0.00    +0.000 A 
ATOM     11  C   UNL     1       1.431   4.390  18.173  0.00  0.00    +0.000 C 
BRANCH   8  12
ATOM     12  O   UNL     1       1.018   2.503  22.641  0.00  0.00    +0.000 OA
ATOM     13  H   UNL     1       1.566   2.707  23.417  0.00  0.00    +0.000 HD
ENDBRANCH   8  12
ENDBRANCH   1   2
BRANCH   1  14
ATOM     14  C   UNL     1       4.275   6.963  17.473  0.00  0.00    +0.000 C 
BRANCH  14  16
ATOM     15  C   UNL     1       6.425   6.035  16.475  0.00  0.00    +0.000 C 
ATOM     16  C   UNL     1       5.762   6.648  17.701  0.00  0.00    +0.000 C 
ENDBRANCH  14  16
ENDBRANCH   1  14
BRANCH   1  17
ATOM     17  C   UNL     1       2.584   6.890  19.255  0.00  0.00    +0.000 C 
BRANCH  17  18
ATOM     18  C   UNL     1       2.292   8.353  18.864  0.00  0.00    +0.000 C 
BRANCH  18  19
ATOM     19  N   UNL     1       0.867   8.743  18.908  0.00  0.00    +0.000 NA
ATOM     20  C   UNL     1       0.389   8.719  20.316  0.00  0.00    +0.000 C 
ATOM     21  C   UNL     1       1.071   9.759  21.231  0.00  0.00    +0.000 C 
ATOM     22  N   UNL     1       1.018  11.107  20.644  0.00  0.00    +0.000 N 
ATOM     23  C   UNL     1       1.326  11.232  19.208  0.00  0.00    +0.000 C 
ATOM     24  C   UNL     1       0.636  10.113  18.395  0.00  0.00    +0.000 C 
BRANCH  22  25
ATOM     25  C   UNL     1       0.407  12.158  21.301  0.00  0.00    +0.000 A 
ATOM     26  C   UNL     1      -0.588  11.931  22.253  0.00  0.00    +0.000 A 
ATOM     27  C   UNL     1      -1.203  13.011  22.869  0.00  0.00    +0.000 A 
ATOM     28  N   UNL     1      -0.894  14.296  22.616  0.00  0.00    +0.000 NA
ATOM     29  C   UNL     1       0.080  14.500  21.710  0.00  0.00    +0.000 A 
ATOM     30  C   UNL     1       0.740  13.488  21.040  0.00  0.00    +0.000 A 
ENDBRANCH  22  25
ENDBRANCH  18  19
ENDBRANCH  17  18
ENDBRANCH   1  17
TORSDOF 8
ENDMDL
MODEL 9
REMARK VINA RESULT:      -6.1      3.547      8.114
REMARK  Name = 
REMARK  9 active torsions:
REMARK  status: ('A' for Active; 'I' for Inactive)
REMARK    1  A    between atoms: C_1  and  C_2
REMARK    2  A    between atoms: C_2  and  C_3
REMARK    3  A    between atoms: C_3  and  N_4
REMARK    4  A    between atoms: N_4  and  C_5
REMARK    5  A    between atoms: N_4  and  C_19
REMARK    6  A    between atoms: C_5  and  C_6
REMARK    7  A    between atoms: C_6  and  N_7
REMARK    8  A    between atoms: N_10  and  C_11
REMARK    9  A    between atoms: C_25  and  O_26
REMARK                            x       y       z     vdW  Elec       q    Type
REMARK                         _______ _______ _______ _____ _____    ______ ____
ROOT
ATOM      1  N   UNL     1       3.153   4.922  18.561  0.00  0.00    +0.000 NA
ENDROOT
BRANCH   1   2
ATOM      2  C   UNL     1       4.046   3.728  18.624  0.00  0.00    +0.000 C 
ATOM      3  C   UNL     1       4.342   3.179  17.208  0.00  0.00    +0.000 C 
ATOM      4  C   UNL     1       4.986   4.252  16.321  0.00  0.00    +0.000 C 
ATOM      5  C   UNL     1       5.983   5.132  17.044  0.00  0.00    +0.000 A 
ATOM      6  C   UNL     1       6.587   6.191  16.352  0.00  0.00    +0.000 A 
ATOM      7  C   UNL     1       7.467   7.056  17.005  0.00  0.00    +0.000 A 
ATOM      8  C   UNL     1       7.786   6.829  18.339  0.00  0.00    +0.000 A 
ATOM      9  C   UNL     1       7.207   5.780  19.041  0.00  0.00    +0.000 A 
ATOM     10  C   UNL     1       6.253   4.967  18.416  0.00  0.00    +0.000 A 
ATOM     11  C   UNL     1       5.465   3.967  19.229  0.00  0.00    +0.000 C 
BRANCH   8  12
ATOM     12  O   UNL     1       8.643   7.648  19.014  0.00  0.00    +0.000 OA
ATOM     13  H   UNL     1       9.025   8.276  18.379  0.00  0.00    +0.000 HD
ENDBRANCH   8  12
ENDBRANCH   1   2
BRANCH   1  14
ATOM     14  C   UNL     1       1.768   4.607  18.171  0.00  0.00    +0.000 C 
BRANCH  14  16
ATOM     15  C   UNL     1       0.746   2.356  18.781  0.00  0.00    +0.000 C 
ATOM     16  C   UNL     1       0.990   3.794  19.219  0.00  0.00    +0.000 C 
ENDBRANCH  14  16
ENDBRANCH   1  14
BRANCH   1  17
ATOM     17  C   UNL     1       3.227   5.835  19.720  0.00  0.00    +0.000 C 
BRANCH  17  18
ATOM     18  C   UNL     1       2.749   7.275  19.445  0.00  0.00    +0.000 C 
BRANCH  18  19
ATOM     19  N   UNL     1       1.284   7.469  19.485  0.00  0.00    +0.000 NA
ATOM     20  C   UNL     1       0.826   7.508  20.899  0.00  0.00    +0.000 C 
ATOM     21  C   UNL     1       1.367   8.709  21.705  0.00  0.00    +0.000 C 
ATOM     22  N   UNL     1       1.123   9.979  21.002  0.00  0.00    +0.000 N 
ATOM     23  C   UNL     1       1.399  10.015  19.555  0.00  0.00    +0.000 C 
ATOM     24  C   UNL     1       0.862   8.744  18.858  0.00  0.00    +0.000 C 
BRANCH  22  25
ATOM     25  C   UNL     1       0.380  10.991  21.577  0.00  0.00    +0.000 A 
ATOM     26  C   UNL     1      -0.600  10.713  22.532  0.00  0.00    +0.000 A 
ATOM     27  C   UNL     1      -1.350  11.751  23.064  0.00  0.00    +0.000 A 
ATOM     28  N   UNL     1      -1.192  13.044  22.724  0.00  0.00    +0.000 NA
ATOM     29  C   UNL     1      -0.232  13.300  21.816  0.00  0.00    +0.000 A 
ATOM     30  C   UNL     1       0.556  12.331  21.226  0.00  0.00    +0.000 A 
ENDBRANCH  22  25
ENDBRANCH  18  19
ENDBRANCH  17  18
ENDBRANCH   1  17
TORSDOF 8
ENDMDL
