MODEL 1
REMARK VINA RESULT:      -8.5      0.000      0.000
REMARK  Name = 
REMARK  9 active torsions:
REMARK  status: ('A' for Active; 'I' for Inactive)
REMARK    1  A    between atoms: C_1  and  O_2
REMARK    2  A    between atoms: O_2  and  C_3
REMARK    3  A    between atoms: C_9  and  N_10
REMARK    4  A    between atoms: C_13  and  N_14
REMARK    5  A    between atoms: N_14  and  C_15
REMARK    6  A    between atoms: C_15  and  C_16
REMARK    7  A    between atoms: C_16  and  C_17
REMARK    8  A    between atoms: C_20  and  O_21
REMARK    9  A    between atoms: C_22  and  O_23
REMARK                            x       y       z     vdW  Elec       q    Type
REMARK                         _______ _______ _______ _____ _____    ______ ____
ROOT
ATOM      1  C   UNL     1       1.076   9.922  19.887  0.00  0.00    +0.000 A 
ATOM      2  C   UNL     1       0.595   9.464  21.114  0.00  0.00    +0.000 A 
ATOM      3  C   UNL     1       0.811   8.139  21.507  0.00  0.00    +0.000 A 
ATOM      4  C   UNL     1       1.521   7.259  20.684  0.00  0.00    +0.000 A 
ATOM      5  N   UNL     1       1.668   5.916  21.046  0.00  0.00    +0.000 N 
ATOM      6  C   UNL     1       2.421   4.994  20.279  0.00  0.00    +0.000 A 
ATOM      7  C   UNL     1       2.568   3.672  20.743  0.00  0.00    +0.000 A 
ATOM      8  C   UNL     1       3.322   2.778  19.989  0.00  0.00    +0.000 A 
ATOM      9  C   UNL     1       3.850   3.152  18.749  0.00  0.00    +0.000 A 
ATOM     10  C   UNL     1       3.670   4.440  18.225  0.00  0.00    +0.000 A 
ATOM     11  C   UNL     1       2.935   5.363  19.015  0.00  0.00    +0.000 A 
ATOM     12  C   UNL     1       2.675   6.763  18.543  0.00  0.00    +0.000 A 
ATOM     13  O   UNL     1       3.016   7.131  17.422  0.00  0.00    +0.000 OA
ATOM     14  C   UNL     1       1.963   7.713  19.437  0.00  0.00    +0.000 A 
ATOM     15  C   UNL     1       1.744   9.037  19.039  0.00  0.00    +0.000 A 
ATOM     16  H   UNL     1       1.711   5.730  22.043  0.00  0.00    +0.000 HD
ENDROOT
BRANCH   7  17
ATOM     17  N   UNL     1       2.159   3.311  22.045  0.00  0.00    +0.000 N 
ATOM     18  H   UNL     1       1.809   2.359  22.093  0.00  0.00    +0.000 HD
ATOM     19  H   UNL     1       2.878   3.472  22.745  0.00  0.00    +0.000 HD
ENDBRANCH   7  17
BRANCH   1  21
ATOM     20  C   UNL     1       0.272  12.111  20.279  0.00  0.00    +0.000 C 
ATOM     21  O   UNL     1       0.904  11.188  19.398  0.00  0.00    +0.000 OA
ENDBRANCH   1  21
BRANCH  10  22
ATOM     22  N   UNL     1       4.339   4.848  17.057  0.00  0.00    +0.000 N 
ATOM     23  H   UNL     1       3.824   5.621  16.608  0.00  0.00    +0.000 HD
BRANCH  22  24
ATOM     24  C   UNL     1       4.840   3.853  16.111  0.00  0.00    +0.000 C 
BRANCH  24  25
ATOM     25  C   UNL     1       6.339   4.066  15.861  0.00  0.00    +0.000 C 
BRANCH  25  26
ATOM     26  C   UNL     1       6.909   5.126  16.775  0.00  0.00    +0.000 A 
ATOM     27  C   UNL     1       6.979   6.467  16.357  0.00  0.00    +0.000 A 
ATOM     28  C   UNL     1       7.550   7.444  17.179  0.00  0.00    +0.000 A 
ATOM     29  C   UNL     1       8.059   7.075  18.418  0.00  0.00    +0.000 A 
ATOM     30  C   UNL     1       7.988   5.750  18.840  0.00  0.00    +0.000 A 
ATOM     31  C   UNL     1       7.418   4.775  18.034  0.00  0.00    +0.000 A 
BRANCH  29  32
ATOM     32  O   UNL     1       8.648   7.980  19.258  0.00  0.00    +0.000 OA
ATOM     33  H   UNL     1       7.979   8.640  19.506  0.00  0.00    +0.000 HD
ENDBRANCH  29  32
BRANCH  30  34
ATOM     34  O   UNL     1       8.496   5.396  20.059  0.00  0.00    +0.000 OA
ATOM     35  H   UNL     1       8.223   6.121  20.655  0.00  0.00    +0.000 HD
ENDBRANCH  30  34
ENDBRANCH  25  26
ENDBRANCH  24  25
ENDBRANCH  22  24
ENDBRANCH  10  22
TORSDOF 8
ENDMDL
MODEL 2
REMARK VINA RESULT:      -8.1      0.547      1.257
REMARK  Name = 
REMARK  9 active torsions:
REMARK  status: ('A' for Active; 'I' for Inactive)
REMARK    1  A    between atoms: C_1  and  O_2
REMARK    2  A    between atoms: O_2  and  C_3
REMARK    3  A    between atoms: C_9  and  N_10
REMARK    4  A    between atoms: C_13  and  N_14
REMARK    5  A    between atoms: N_14  and  C_15
REMARK    6  A    between atoms: C_15  and  C_16
REMARK    7  A    between atoms: C_16  and  C_17
REMARK    8  A    between atoms: C_20  and  O_21
REMARK    9  A    between atoms: C_22  and  O_23
REMARK                            x       y       z     vdW  Elec       q    Type
REMARK                         _______ _______ _______ _____ _____    ______ ____
ROOT
ATOM      1  C   UNL     1       1.208   9.843  19.666  0.00  0.00    +0.000 A 
ATOM      2  C   UNL     1       0.768   9.463  20.935  0.00  0.00    +0.000 A 
ATOM      3  C   UNL     1       0.961   8.154  21.386  0.00  0.00    +0.000 A 
ATOM      4  C   UNL     1       1.608   7.211  20.581  0.00  0.00    +0.000 A 
ATOM      5  N   UNL     1       1.730   5.884  21.005  0.00  0.00    +0.000 N 
ATOM      6  C   UNL     1       2.422   4.901  20.256  0.00  0.00    +0.000 A 
ATOM      7  C   UNL     1       2.549   3.600  20.781  0.00  0.00    +0.000 A 
ATOM      8  C   UNL     1       3.242   2.645  20.043  0.00  0.00    +0.000 A 
ATOM      9  C   UNL     1       3.726   2.938  18.764  0.00  0.00    +0.000 A 
ATOM     10  C   UNL     1       3.561   4.203  18.183  0.00  0.00    +0.000 A 
ATOM     11  C   UNL     1       2.890   5.189  18.954  0.00  0.00    +0.000 A 
ATOM     12  C   UNL     1       2.651   6.571  18.421  0.00  0.00    +0.000 A 
ATOM     13  O   UNL     1       2.955   6.870  17.270  0.00  0.00    +0.000 OA
ATOM     14  C   UNL     1       2.008   7.586  19.294  0.00  0.00    +0.000 A 
ATOM     15  C   UNL     1       1.812   8.896  18.838  0.00  0.00    +0.000 A 
ATOM     16  H   UNL     1       1.811   5.746  22.008  0.00  0.00    +0.000 HD
ENDROOT
BRANCH   7  17
ATOM     17  N   UNL     1       2.186   3.318  22.116  0.00  0.00    +0.000 N 
ATOM     18  H   UNL     1       2.883   3.635  22.784  0.00  0.00    +0.000 HD
ATOM     19  H   UNL     1       1.263   3.667  22.358  0.00  0.00    +0.000 HD
ENDBRANCH   7  17
BRANCH   1  21
ATOM     20  C   UNL     1       1.130  12.177  20.033  0.00  0.00    +0.000 C 
ATOM     21  O   UNL     1       1.053  11.087  19.120  0.00  0.00    +0.000 OA
ENDBRANCH   1  21
BRANCH  10  22
ATOM     22  N   UNL     1       4.191   4.530  16.968  0.00  0.00    +0.000 N 
ATOM     23  H   UNL     1       3.537   5.047  16.360  0.00  0.00    +0.000 HD
BRANCH  22  24
ATOM     24  C   UNL     1       4.981   3.528  16.257  0.00  0.00    +0.000 C 
BRANCH  24  25
ATOM     25  C   UNL     1       6.235   4.174  15.649  0.00  0.00    +0.000 C 
BRANCH  25  26
ATOM     26  C   UNL     1       6.916   5.097  16.633  0.00  0.00    +0.000 A 
ATOM     27  C   UNL     1       7.494   4.587  17.809  0.00  0.00    +0.000 A 
ATOM     28  C   UNL     1       8.082   5.442  18.747  0.00  0.00    +0.000 A 
ATOM     29  C   UNL     1       8.084   6.811  18.509  0.00  0.00    +0.000 A 
ATOM     30  C   UNL     1       7.518   7.322  17.344  0.00  0.00    +0.000 A 
ATOM     31  C   UNL     1       6.937   6.481  16.406  0.00  0.00    +0.000 A 
BRANCH  29  32
ATOM     32  O   UNL     1       8.625   7.699  19.398  0.00  0.00    +0.000 OA
ATOM     33  H   UNL     1       9.090   7.192  20.085  0.00  0.00    +0.000 HD
ENDBRANCH  29  32
BRANCH  30  34
ATOM     34  O   UNL     1       7.520   8.670  17.122  0.00  0.00    +0.000 OA
ATOM     35  H   UNL     1       8.114   8.788  16.354  0.00  0.00    +0.000 HD
ENDBRANCH  30  34
ENDBRANCH  25  26
ENDBRANCH  24  25
ENDBRANCH  22  24
ENDBRANCH  10  22
TORSDOF 8
ENDMDL
MODEL 3
REMARK VINA RESULT:      -8.0      2.170      7.664
REMARK  Name = 
REMARK  9 active torsions:
REMARK  status: ('A' for Active; 'I' for Inactive)
REMARK    1  A    between atoms: C_1  and  O_2
REMARK    2  A    between atoms: O_2  and  C_3
REMARK    3  A    between atoms: C_9  and  N_10
REMARK    4  A    between atoms: C_13  and  N_14
REMARK    5  A    between atoms: N_14  and  C_15
REMARK    6  A    between atoms: C_15  and  C_16
REMARK    7  A    between atoms: C_16  and  C_17
REMARK    8  A    between atoms: C_20  and  O_21
REMARK    9  A    between atoms: C_22  and  O_23
REMARK                            x       y       z     vdW  Elec       q    Type
REMARK                         _______ _______ _______ _____ _____    ______ ____
ROOT
ATOM      1  C   UNL     1       6.546   5.023  15.140  0.00  0.00    +0.000 A 
ATOM      2  C   UNL     1       6.157   3.717  14.838  0.00  0.00    +0.000 A 
ATOM      3  C   UNL     1       5.144   3.093  15.573  0.00  0.00    +0.000 A 
ATOM      4  C   UNL     1       4.496   3.772  16.611  0.00  0.00    +0.000 A 
ATOM      5  N   UNL     1       3.538   3.119  17.392  0.00  0.00    +0.000 N 
ATOM      6  C   UNL     1       2.812   3.772  18.419  0.00  0.00    +0.000 A 
ATOM      7  C   UNL     1       1.822   3.057  19.122  0.00  0.00    +0.000 A 
ATOM      8  C   UNL     1       1.106   3.712  20.120  0.00  0.00    +0.000 A 
ATOM      9  C   UNL     1       1.420   5.026  20.484  0.00  0.00    +0.000 A 
ATOM     10  C   UNL     1       2.442   5.746  19.850  0.00  0.00    +0.000 A 
ATOM     11  C   UNL     1       3.144   5.090  18.805  0.00  0.00    +0.000 A 
ATOM     12  C   UNL     1       4.263   5.767  18.069  0.00  0.00    +0.000 A 
ATOM     13  O   UNL     1       4.663   6.879  18.403  0.00  0.00    +0.000 OA
ATOM     14  C   UNL     1       4.919   5.065  16.936  0.00  0.00    +0.000 A 
ATOM     15  C   UNL     1       5.937   5.690  16.205  0.00  0.00    +0.000 A 
ATOM     16  H   UNL     1       2.995   2.403  16.919  0.00  0.00    +0.000 HD
ENDROOT
BRANCH   7  17
ATOM     17  N   UNL     1       1.401   1.783  18.686  0.00  0.00    +0.000 N 
ATOM     18  H   UNL     1       0.545   1.821  18.141  0.00  0.00    +0.000 HD
ATOM     19  H   UNL     1       2.127   1.273  18.191  0.00  0.00    +0.000 HD
ENDBRANCH   7  17
BRANCH   1  21
ATOM     20  C   UNL     1       7.878   5.248  13.201  0.00  0.00    +0.000 C 
ATOM     21  O   UNL     1       7.535   5.717  14.501  0.00  0.00    +0.000 OA
ENDBRANCH   1  21
BRANCH  10  22
ATOM     22  N   UNL     1       2.638   7.113  20.117  0.00  0.00    +0.000 N 
ATOM     23  H   UNL     1       3.323   7.228  20.880  0.00  0.00    +0.000 HD
BRANCH  22  24
ATOM     24  C   UNL     1       1.492   8.014  20.220  0.00  0.00    +0.000 C 
BRANCH  24  25
ATOM     25  C   UNL     1       1.479   8.993  19.038  0.00  0.00    +0.000 C 
BRANCH  25  26
ATOM     26  C   UNL     1       0.424  10.061  19.213  0.00  0.00    +0.000 A 
ATOM     27  C   UNL     1       0.008  10.450  20.499  0.00  0.00    +0.000 A 
ATOM     28  C   UNL     1      -1.003  11.402  20.666  0.00  0.00    +0.000 A 
ATOM     29  C   UNL     1      -1.603  11.959  19.544  0.00  0.00    +0.000 A 
ATOM     30  C   UNL     1      -1.192  11.582  18.268  0.00  0.00    +0.000 A 
ATOM     31  C   UNL     1      -0.186  10.643  18.092  0.00  0.00    +0.000 A 
BRANCH  29  32
ATOM     32  O   UNL     1      -2.611  12.879  19.642  0.00  0.00    +0.000 OA
ATOM     33  H   UNL     1      -3.299  12.509  20.221  0.00  0.00    +0.000 HD
ENDBRANCH  29  32
BRANCH  30  34
ATOM     34  O   UNL     1      -1.791  12.132  17.170  0.00  0.00    +0.000 OA
ATOM     35  H   UNL     1      -1.197  12.864  16.911  0.00  0.00    +0.000 HD
ENDBRANCH  30  34
ENDBRANCH  25  26
ENDBRANCH  24  25
ENDBRANCH  22  24
ENDBRANCH  10  22
TORSDOF 8
ENDMDL
MODEL 4
REMARK VINA RESULT:      -7.9      2.882      7.735
REMARK  Name = 
REMARK  9 active torsions:
REMARK  status: ('A' for Active; 'I' for Inactive)
REMARK    1  A    between atoms: C_1  and  O_2
REMARK    2  A    between atoms: O_2  and  C_3
REMARK    3  A    between atoms: C_9  and  N_10
REMARK    4  A    between atoms: C_13  and  N_14
REMARK    5  A    between atoms: N_14  and  C_15
REMARK    6  A    between atoms: C_15  and  C_16
REMARK    7  A    between atoms: C_16  and  C_17
REMARK    8  A    between atoms: C_20  and  O_21
REMARK    9  A    between atoms: C_22  and  O_23
REMARK                            x       y       z     vdW  Elec       q    Type
REMARK                         _______ _______ _______ _____ _____    ______ ____
ROOT
ATOM      1  C   UNL     1       6.184   3.193  12.227  0.00  0.00    +0.000 A 
ATOM      2  C   UNL     1       7.003   4.283  11.927  0.00  0.00    +0.000 A 
ATOM      3  C   UNL     1       7.402   5.165  12.936  0.00  0.00    +0.000 A 
ATOM      4  C   UNL     1       6.998   4.963  14.260  0.00  0.00    +0.000 A 
ATOM      5  N   UNL     1       7.336   5.890  15.251  0.00  0.00    +0.000 N 
ATOM      6  C   UNL     1       7.000   5.708  16.616  0.00  0.00    +0.000 A 
ATOM      7  C   UNL     1       7.428   6.661  17.561  0.00  0.00    +0.000 A 
ATOM      8  C   UNL     1       7.105   6.466  18.901  0.00  0.00    +0.000 A 
ATOM      9  C   UNL     1       6.296   5.396  19.296  0.00  0.00    +0.000 A 
ATOM     10  C   UNL     1       5.798   4.465  18.374  0.00  0.00    +0.000 A 
ATOM     11  C   UNL     1       6.163   4.641  17.013  0.00  0.00    +0.000 A 
ATOM     12  C   UNL     1       5.675   3.708  15.945  0.00  0.00    +0.000 A 
ATOM     13  O   UNL     1       4.879   2.809  16.200  0.00  0.00    +0.000 OA
ATOM     14  C   UNL     1       6.143   3.894  14.547  0.00  0.00    +0.000 A 
ATOM     15  C   UNL     1       5.738   3.011  13.537  0.00  0.00    +0.000 A 
ATOM     16  H   UNL     1       8.219   6.373  15.122  0.00  0.00    +0.000 HD
ENDROOT
BRANCH   7  17
ATOM     17  N   UNL     1       8.350   7.670  17.208  0.00  0.00    +0.000 N 
ATOM     18  H   UNL     1       8.859   7.451  16.357  0.00  0.00    +0.000 HD
ATOM     19  H   UNL     1       7.927   8.593  17.154  0.00  0.00    +0.000 HD
ENDBRANCH   7  17
BRANCH   1  21
ATOM     20  C   UNL     1       6.519   1.117  11.147  0.00  0.00    +0.000 C 
ATOM     21  O   UNL     1       5.720   2.284  11.317  0.00  0.00    +0.000 OA
ENDBRANCH   1  21
BRANCH  10  22
ATOM     22  N   UNL     1       5.122   3.309  18.805  0.00  0.00    +0.000 N 
ATOM     23  H   UNL     1       5.040   2.638  18.026  0.00  0.00    +0.000 HD
BRANCH  22  24
ATOM     24  C   UNL     1       3.906   3.425  19.606  0.00  0.00    +0.000 C 
BRANCH  24  25
ATOM     25  C   UNL     1       2.753   3.964  18.747  0.00  0.00    +0.000 C 
BRANCH  25  26
ATOM     26  C   UNL     1       2.446   5.407  19.073  0.00  0.00    +0.000 A 
ATOM     27  C   UNL     1       1.964   5.765  20.344  0.00  0.00    +0.000 A 
ATOM     28  C   UNL     1       1.631   7.092  20.636  0.00  0.00    +0.000 A 
ATOM     29  C   UNL     1       1.774   8.060  19.649  0.00  0.00    +0.000 A 
ATOM     30  C   UNL     1       2.257   7.713  18.390  0.00  0.00    +0.000 A 
ATOM     31  C   UNL     1       2.595   6.400  18.094  0.00  0.00    +0.000 A 
BRANCH  29  32
ATOM     32  O   UNL     1       1.446   9.370  19.867  0.00  0.00    +0.000 OA
ATOM     33  H   UNL     1       1.271   9.783  19.004  0.00  0.00    +0.000 HD
ENDBRANCH  29  32
BRANCH  30  34
ATOM     34  O   UNL     1       2.391   8.671  17.425  0.00  0.00    +0.000 OA
ATOM     35  H   UNL     1       1.472   8.887  17.169  0.00  0.00    +0.000 HD
ENDBRANCH  30  34
ENDBRANCH  25  26
ENDBRANCH  24  25
ENDBRANCH  22  24
ENDBRANCH  10  22
TORSDOF 8
ENDMDL
MODEL 5
REMARK VINA RESULT:      -7.9      2.294      7.941
REMARK  Name = 
REMARK  9 active torsions:
REMARK  status: ('A' for Active; 'I' for Inactive)
REMARK    1  A    between atoms: C_1  and  O_2
REMARK    2  A    between atoms: O_2  and  C_3
REMARK    3  A    between atoms: C_9  and  N_10
REMARK    4  A    between atoms: C_13  and  N_14
REMARK    5  A    between atoms: N_14  and  C_15
REMARK    6  A    between atoms: C_15  and  C_16
REMARK    7  A    between atoms: C_16  and  C_17
REMARK    8  A    between atoms: C_20  and  O_21
REMARK    9  A    between atoms: C_22  and  O_23
REMARK                            x       y       z     vdW  Elec       q    Type
REMARK                         _______ _______ _______ _____ _____    ______ ____
ROOT
ATOM      1  C   UNL     1       6.541   5.033  15.032  0.00  0.00    +0.000 A 
ATOM      2  C   UNL     1       6.283   3.670  14.882  0.00  0.00    +0.000 A 
ATOM      3  C   UNL     1       5.336   3.037  15.694  0.00  0.00    +0.000 A 
ATOM      4  C   UNL     1       4.626   3.761  16.657  0.00  0.00    +0.000 A 
ATOM      5  N   UNL     1       3.737   3.109  17.517  0.00  0.00    +0.000 N 
ATOM      6  C   UNL     1       2.952   3.799  18.474  0.00  0.00    +0.000 A 
ATOM      7  C   UNL     1       2.037   3.075  19.263  0.00  0.00    +0.000 A 
ATOM      8  C   UNL     1       1.261   3.764  20.190  0.00  0.00    +0.000 A 
ATOM      9  C   UNL     1       1.444   5.134  20.403  0.00  0.00    +0.000 A 
ATOM     10  C   UNL     1       2.391   5.875  19.681  0.00  0.00    +0.000 A 
ATOM     11  C   UNL     1       3.153   5.179  18.706  0.00  0.00    +0.000 A 
ATOM     12  C   UNL     1       4.200   5.875  17.887  0.00  0.00    +0.000 A 
ATOM     13  O   UNL     1       4.489   7.050  18.090  0.00  0.00    +0.000 OA
ATOM     14  C   UNL     1       4.920   5.117  16.831  0.00  0.00    +0.000 A 
ATOM     15  C   UNL     1       5.871   5.753  16.023  0.00  0.00    +0.000 A 
ATOM     16  H   UNL     1       3.267   2.296  17.133  0.00  0.00    +0.000 HD
ENDROOT
BRANCH   7  17
ATOM     17  N   UNL     1       1.742   1.724  18.977  0.00  0.00    +0.000 N 
ATOM     18  H   UNL     1       0.767   1.582  18.732  0.00  0.00    +0.000 HD
ATOM     19  H   UNL     1       2.358   1.325  18.274  0.00  0.00    +0.000 HD
ENDBRANCH   7  17
BRANCH   1  21
ATOM     20  C   UNL     1       7.825   5.181  13.053  0.00  0.00    +0.000 C 
ATOM     21  O   UNL     1       7.457   5.744  14.308  0.00  0.00    +0.000 OA
ENDBRANCH   1  21
BRANCH  10  22
ATOM     22  N   UNL     1       2.452   7.276  19.792  0.00  0.00    +0.000 N 
ATOM     23  H   UNL     1       3.435   7.582  19.851  0.00  0.00    +0.000 HD
BRANCH  22  24
ATOM     24  C   UNL     1       1.565   7.980  20.716  0.00  0.00    +0.000 C 
BRANCH  24  25
ATOM     25  C   UNL     1       0.990   9.236  20.046  0.00  0.00    +0.000 C 
BRANCH  25  26
ATOM     26  C   UNL     1       0.112  10.019  20.995  0.00  0.00    +0.000 A 
ATOM     27  C   UNL     1      -0.100   9.567  22.309  0.00  0.00    +0.000 A 
ATOM     28  C   UNL     1      -0.950  10.260  23.176  0.00  0.00    +0.000 A 
ATOM     29  C   UNL     1      -1.595  11.404  22.723  0.00  0.00    +0.000 A 
ATOM     30  C   UNL     1      -1.385  11.861  21.424  0.00  0.00    +0.000 A 
ATOM     31  C   UNL     1      -0.538  11.182  20.559  0.00  0.00    +0.000 A 
BRANCH  29  32
ATOM     32  O   UNL     1      -2.454  12.114  23.516  0.00  0.00    +0.000 OA
ATOM     33  H   UNL     1      -1.929  12.738  24.045  0.00  0.00    +0.000 HD
ENDBRANCH  29  32
BRANCH  30  34
ATOM     34  O   UNL     1      -2.027  12.984  20.986  0.00  0.00    +0.000 OA
ATOM     35  H   UNL     1      -1.306  13.615  20.789  0.00  0.00    +0.000 HD
ENDBRANCH  30  34
ENDBRANCH  25  26
ENDBRANCH  24  25
ENDBRANCH  22  24
ENDBRANCH  10  22
TORSDOF 8
ENDMDL
MODEL 6
REMARK VINA RESULT:      -7.9      2.975      7.647
REMARK  Name = 
REMARK  9 active torsions:
REMARK  status: ('A' for Active; 'I' for Inactive)
REMARK    1  A    between atoms: C_1  and  O_2
REMARK    2  A    between atoms: O_2  and  C_3
REMARK    3  A    between atoms: C_9  and  N_10
REMARK    4  A    between atoms: C_13  and  N_14
REMARK    5  A    between atoms: N_14  and  C_15
REMARK    6  A    between atoms: C_15  and  C_16
REMARK    7  A    between atoms: C_16  and  C_17
REMARK    8  A    between atoms: C_20  and  O_21
REMARK    9  A    between atoms: C_22  and  O_23
REMARK                            x       y       z     vdW  Elec       q    Type
REMARK                         _______ _______ _______ _____ _____    ______ ____
ROOT
ATOM      1  C   UNL     1       6.222   3.220  12.227  0.00  0.00    +0.000 A 
ATOM      2  C   UNL     1       7.025   4.323  11.934  0.00  0.00    +0.000 A 
ATOM      3  C   UNL     1       7.416   5.202  12.949  0.00  0.00    +0.000 A 
ATOM      4  C   UNL     1       7.019   4.983  14.272  0.00  0.00    +0.000 A 
ATOM      5  N   UNL     1       7.347   5.905  15.271  0.00  0.00    +0.000 N 
ATOM      6  C   UNL     1       7.019   5.707  16.634  0.00  0.00    +0.000 A 
ATOM      7  C   UNL     1       7.437   6.658  17.587  0.00  0.00    +0.000 A 
ATOM      8  C   UNL     1       7.121   6.447  18.926  0.00  0.00    +0.000 A 
ATOM      9  C   UNL     1       6.327   5.363  19.314  0.00  0.00    +0.000 A 
ATOM     10  C   UNL     1       5.840   4.432  18.386  0.00  0.00    +0.000 A 
ATOM     11  C   UNL     1       6.198   4.626  17.025  0.00  0.00    +0.000 A 
ATOM     12  C   UNL     1       5.720   3.695  15.950  0.00  0.00    +0.000 A 
ATOM     13  O   UNL     1       4.936   2.783  16.200  0.00  0.00    +0.000 OA
ATOM     14  C   UNL     1       6.180   3.899  14.553  0.00  0.00    +0.000 A 
ATOM     15  C   UNL     1       5.784   3.020  13.537  0.00  0.00    +0.000 A 
ATOM     16  H   UNL     1       8.223   6.402  15.143  0.00  0.00    +0.000 HD
ENDROOT
BRANCH   7  17
ATOM     17  N   UNL     1       8.343   7.682  17.239  0.00  0.00    +0.000 N 
ATOM     18  H   UNL     1       9.309   7.368  17.251  0.00  0.00    +0.000 HD
ATOM     19  H   UNL     1       8.116   8.131  16.356  0.00  0.00    +0.000 HD
ENDBRANCH   7  17
BRANCH   1  21
ATOM     20  C   UNL     1       6.567   1.144  11.149  0.00  0.00    +0.000 C 
ATOM     21  O   UNL     1       5.769   2.312  11.310  0.00  0.00    +0.000 OA
ENDBRANCH   1  21
BRANCH  10  22
ATOM     22  N   UNL     1       5.181   3.264  18.809  0.00  0.00    +0.000 N 
ATOM     23  H   UNL     1       5.072   2.614  18.015  0.00  0.00    +0.000 HD
BRANCH  22  24
ATOM     24  C   UNL     1       3.994   3.355  19.656  0.00  0.00    +0.000 C 
BRANCH  24  25
ATOM     25  C   UNL     1       2.771   3.746  18.815  0.00  0.00    +0.000 C 
BRANCH  25  26
ATOM     26  C   UNL     1       2.481   5.226  18.912  0.00  0.00    +0.000 A 
ATOM     27  C   UNL     1       2.584   6.050  17.777  0.00  0.00    +0.000 A 
ATOM     28  C   UNL     1       2.365   7.428  17.871  0.00  0.00    +0.000 A 
ATOM     29  C   UNL     1       2.048   7.982  19.105  0.00  0.00    +0.000 A 
ATOM     30  C   UNL     1       1.939   7.171  20.232  0.00  0.00    +0.000 A 
ATOM     31  C   UNL     1       2.149   5.802  20.147  0.00  0.00    +0.000 A 
BRANCH  29  32
ATOM     32  O   UNL     1       1.843   9.325  19.265  0.00  0.00    +0.000 OA
ATOM     33  H   UNL     1       1.874   9.740  18.386  0.00  0.00    +0.000 HD
ENDBRANCH  29  32
BRANCH  30  34
ATOM     34  O   UNL     1       1.631   7.725  21.442  0.00  0.00    +0.000 OA
ATOM     35  H   UNL     1       1.225   8.586  21.219  0.00  0.00    +0.000 HD
ENDBRANCH  30  34
ENDBRANCH  25  26
ENDBRANCH  24  25
ENDBRANCH  22  24
ENDBRANCH  10  22
TORSDOF 8
ENDMDL
MODEL 7
REMARK VINA RESULT:      -7.8      2.185      7.398
REMARK  Name = 
REMARK  9 active torsions:
REMARK  status: ('A' for Active; 'I' for Inactive)
REMARK    1  A    between atoms: C_1  and  O_2
REMARK    2  A    between atoms: O_2  and  C_3
REMARK    3  A    between atoms: C_9  and  N_10
REMARK    4  A    between atoms: C_13  and  N_14
REMARK    5  A    between atoms: N_14  and  C_15
REMARK    6  A    between atoms: C_15  and  C_16
REMARK    7  A    between atoms: C_16  and  C_17
REMARK    8  A    between atoms: C_20  and  O_21
REMARK    9  A    between atoms: C_22  and  O_23
REMARK                            x       y       z     vdW  Elec       q    Type
REMARK                         _______ _______ _______ _____ _____    ______ ____
ROOT
ATOM      1  C   UNL     1       6.688   4.951  15.226  0.00  0.00    +0.000 A 
ATOM      2  C   UNL     1       6.348   3.620  14.977  0.00  0.00    +0.000 A 
ATOM      3  C   UNL     1       5.335   3.000  15.715  0.00  0.00    +0.000 A 
ATOM      4  C   UNL     1       4.639   3.705  16.701  0.00  0.00    +0.000 A 
ATOM      5  N   UNL     1       3.679   3.059  17.488  0.00  0.00    +0.000 N 
ATOM      6  C   UNL     1       2.907   3.737  18.463  0.00  0.00    +0.000 A 
ATOM      7  C   UNL     1       1.920   3.024  19.174  0.00  0.00    +0.000 A 
ATOM      8  C   UNL     1       1.157   3.702  20.120  0.00  0.00    +0.000 A 
ATOM      9  C   UNL     1       1.420   5.041  20.430  0.00  0.00    +0.000 A 
ATOM     10  C   UNL     1       2.436   5.763  19.789  0.00  0.00    +0.000 A 
ATOM     11  C   UNL     1       3.187   5.082  18.794  0.00  0.00    +0.000 A 
ATOM     12  C   UNL     1       4.304   5.759  18.056  0.00  0.00    +0.000 A 
ATOM     13  O   UNL     1       4.661   6.897  18.346  0.00  0.00    +0.000 OA
ATOM     14  C   UNL     1       5.012   5.025  16.975  0.00  0.00    +0.000 A 
ATOM     15  C   UNL     1       6.030   5.647  16.241  0.00  0.00    +0.000 A 
ATOM     16  H   UNL     1       3.173   2.305  17.036  0.00  0.00    +0.000 HD
ENDROOT
BRANCH   7  17
ATOM     17  N   UNL     1       1.550   1.718  18.789  0.00  0.00    +0.000 N 
ATOM     18  H   UNL     1       1.731   1.535  17.807  0.00  0.00    +0.000 HD
ATOM     19  H   UNL     1       1.964   0.999  19.377  0.00  0.00    +0.000 HD
ENDBRANCH   7  17
BRANCH   1  21
ATOM     20  C   UNL     1       7.863   5.316  13.208  0.00  0.00    +0.000 C 
ATOM     21  O   UNL     1       7.672   5.645  14.580  0.00  0.00    +0.000 OA
ENDBRANCH   1  21
BRANCH  10  22
ATOM     22  N   UNL     1       2.583   7.147  19.994  0.00  0.00    +0.000 N 
ATOM     23  H   UNL     1       3.039   7.321  20.903  0.00  0.00    +0.000 HD
BRANCH  22  24
ATOM     24  C   UNL     1       1.471   8.053  19.716  0.00  0.00    +0.000 C 
BRANCH  24  25
ATOM     25  C   UNL     1       1.779   8.905  18.477  0.00  0.00    +0.000 C 
BRANCH  25  26
ATOM     26  C   UNL     1       1.026  10.215  18.502  0.00  0.00    +0.000 A 
ATOM     27  C   UNL     1       1.717  11.438  18.444  0.00  0.00    +0.000 A 
ATOM     28  C   UNL     1       1.029  12.654  18.517  0.00  0.00    +0.000 A 
ATOM     29  C   UNL     1      -0.353  12.643  18.656  0.00  0.00    +0.000 A 
ATOM     30  C   UNL     1      -1.045  11.436  18.708  0.00  0.00    +0.000 A 
ATOM     31  C   UNL     1      -0.370  10.225  18.631  0.00  0.00    +0.000 A 
BRANCH  29  32
ATOM     32  O   UNL     1      -1.080  13.798  18.753  0.00  0.00    +0.000 OA
ATOM     33  H   UNL     1      -0.492  14.542  18.536  0.00  0.00    +0.000 HD
ENDBRANCH  29  32
BRANCH  30  34
ATOM     34  O   UNL     1      -2.404  11.436  18.849  0.00  0.00    +0.000 OA
ATOM     35  H   UNL     1      -2.622  10.514  19.092  0.00  0.00    +0.000 HD
ENDBRANCH  30  34
ENDBRANCH  25  26
ENDBRANCH  24  25
ENDBRANCH  22  24
ENDBRANCH  10  22
TORSDOF 8
ENDMDL
MODEL 8
REMARK VINA RESULT:      -7.8      3.822      9.470
REMARK  Name = 
REMARK  9 active torsions:
REMARK  status: ('A' for Active; 'I' for Inactive)
REMARK    1  A    between atoms: C_1  and  O_2
REMARK    2  A    between atoms: O_2  and  C_3
REMARK    3  A    between atoms: C_9  and  N_10
REMARK    4  A    between atoms: C_13  and  N_14
REMARK    5  A    between atoms: N_14  and  C_15
REMARK    6  A    between atoms: C_15  and  C_16
REMARK    7  A    between atoms: C_16  and  C_17
REMARK    8  A    between atoms: C_20  and  O_21
REMARK    9  A    between atoms: C_22  and  O_23
REMARK                            x       y       z     vdW  Elec       q    Type
REMARK                         _______ _______ _______ _____ _____    ______ ____
ROOT
ATOM      1  C   UNL     1       3.090   5.766  18.332  0.00  0.00    +0.000 A 
ATOM      2  C   UNL     1       3.044   5.261  19.633  0.00  0.00    +0.000 A 
ATOM      3  C   UNL     1       2.440   5.999  20.656  0.00  0.00    +0.000 A 
ATOM      4  C   UNL     1       1.862   7.244  20.390  0.00  0.00    +0.000 A 
ATOM      5  N   UNL     1       1.328   8.013  21.430  0.00  0.00    +0.000 N 
ATOM      6  C   UNL     1       0.683   9.255  21.211  0.00  0.00    +0.000 A 
ATOM      7  C   UNL     1       0.121   9.939  22.307  0.00  0.00    +0.000 A 
ATOM      8  C   UNL     1      -0.523  11.152  22.079  0.00  0.00    +0.000 A 
ATOM      9  C   UNL     1      -0.535  11.731  20.806  0.00  0.00    +0.000 A 
ATOM     10  C   UNL     1       0.071  11.109  19.705  0.00  0.00    +0.000 A 
ATOM     11  C   UNL     1       0.691   9.852  19.930  0.00  0.00    +0.000 A 
ATOM     12  C   UNL     1       1.378   9.108  18.823  0.00  0.00    +0.000 A 
ATOM     13  O   UNL     1       1.498   9.600  17.705  0.00  0.00    +0.000 OA
ATOM     14  C   UNL     1       1.949   7.764  19.094  0.00  0.00    +0.000 A 
ATOM     15  C   UNL     1       2.558   7.029  18.069  0.00  0.00    +0.000 A 
ATOM     16  H   UNL     1       0.929   7.491  22.204  0.00  0.00    +0.000 HD
ENDROOT
BRANCH   7  17
ATOM     17  N   UNL     1       0.005   9.317  23.569  0.00  0.00    +0.000 N 
ATOM     18  H   UNL     1       0.869   8.873  23.864  0.00  0.00    +0.000 HD
ATOM     19  H   UNL     1      -0.348   9.942  24.288  0.00  0.00    +0.000 HD
ENDBRANCH   7  17
BRANCH   1  21
ATOM     20  C   UNL     1       3.833   3.729  17.390  0.00  0.00    +0.000 C 
ATOM     21  O   UNL     1       3.672   5.139  17.266  0.00  0.00    +0.000 OA
ENDBRANCH   1  21
BRANCH  10  22
ATOM     22  N   UNL     1      -0.087  11.623  18.405  0.00  0.00    +0.000 N 
ATOM     23  H   UNL     1       0.777  12.101  18.107  0.00  0.00    +0.000 HD
BRANCH  22  24
ATOM     24  C   UNL     1      -1.306  12.342  18.042  0.00  0.00    +0.000 C 
BRANCH  24  25
ATOM     25  C   UNL     1      -2.403  11.352  17.625  0.00  0.00    +0.000 C 
BRANCH  25  26
ATOM     26  C   UNL     1      -3.672  11.563  18.418  0.00  0.00    +0.000 A 
ATOM     27  C   UNL     1      -3.675  12.390  19.555  0.00  0.00    +0.000 A 
ATOM     28  C   UNL     1      -4.834  12.550  20.321  0.00  0.00    +0.000 A 
ATOM     29  C   UNL     1      -5.990  11.875  19.950  0.00  0.00    +0.000 A 
ATOM     30  C   UNL     1      -5.996  11.059  18.822  0.00  0.00    +0.000 A 
ATOM     31  C   UNL     1      -4.852  10.899  18.053  0.00  0.00    +0.000 A 
BRANCH  29  32
ATOM     32  O   UNL     1      -7.149  11.975  20.670  0.00  0.00    +0.000 OA
ATOM     33  H   UNL     1      -7.215  12.884  21.009  0.00  0.00    +0.000 HD
ENDBRANCH  29  32
BRANCH  30  34
ATOM     34  O   UNL     1      -7.137  10.395  18.468  0.00  0.00    +0.000 OA
ATOM     35  H   UNL     1      -7.809  11.100  18.377  0.00  0.00    +0.000 HD
ENDBRANCH  30  34
ENDBRANCH  25  26
ENDBRANCH  24  25
ENDBRANCH  22  24
ENDBRANCH  10  22
TORSDOF 8
ENDMDL
MODEL 9
REMARK VINA RESULT:      -7.7      2.469      8.071
REMARK  Name = 
REMARK  9 active torsions:
REMARK  status: ('A' for Active; 'I' for Inactive)
REMARK    1  A    between atoms: C_1  and  O_2
REMARK    2  A    between atoms: O_2  and  C_3
REMARK    3  A    between atoms: C_9  and  N_10
REMARK    4  A    between atoms: C_13  and  N_14
REMARK    5  A    between atoms: N_14  and  C_15
REMARK    6  A    between atoms: C_15  and  C_16
REMARK    7  A    between atoms: C_16  and  C_17
REMARK    8  A    between atoms: C_20  and  O_21
REMARK    9  A    between atoms: C_22  and  O_23
REMARK                            x       y       z     vdW  Elec       q    Type
REMARK                         _______ _______ _______ _____ _____    ______ ____
ROOT
ATOM      1  C   UNL     1       6.347   5.014  14.940  0.00  0.00    +0.000 A 
ATOM      2  C   UNL     1       6.214   3.644  15.172  0.00  0.00    +0.000 A 
ATOM      3  C   UNL     1       5.375   3.178  16.190  0.00  0.00    +0.000 A 
ATOM      4  C   UNL     1       4.650   4.074  16.981  0.00  0.00    +0.000 A 
ATOM      5  N   UNL     1       3.873   3.608  18.046  0.00  0.00    +0.000 N 
ATOM      6  C   UNL     1       3.076   4.464  18.845  0.00  0.00    +0.000 A 
ATOM      7  C   UNL     1       2.277   3.907  19.863  0.00  0.00    +0.000 A 
ATOM      8  C   UNL     1       1.487   4.756  20.634  0.00  0.00    +0.000 A 
ATOM      9  C   UNL     1       1.549   6.143  20.466  0.00  0.00    +0.000 A 
ATOM     10  C   UNL     1       2.381   6.736  19.506  0.00  0.00    +0.000 A 
ATOM     11  C   UNL     1       3.155   5.867  18.693  0.00  0.00    +0.000 A 
ATOM     12  C   UNL     1       4.086   6.399  17.644  0.00  0.00    +0.000 A 
ATOM     13  O   UNL     1       4.271   7.606  17.510  0.00  0.00    +0.000 OA
ATOM     14  C   UNL     1       4.820   5.447  16.771  0.00  0.00    +0.000 A 
ATOM     15  C   UNL     1       5.663   5.916  15.756  0.00  0.00    +0.000 A 
ATOM     16  H   UNL     1       3.464   2.687  17.925  0.00  0.00    +0.000 HD
ENDROOT
BRANCH   7  17
ATOM     17  N   UNL     1       2.099   2.510  19.963  0.00  0.00    +0.000 N 
ATOM     18  H   UNL     1       2.971   1.999  19.868  0.00  0.00    +0.000 HD
ATOM     19  H   UNL     1       1.603   2.233  20.806  0.00  0.00    +0.000 HD
ENDBRANCH   7  17
BRANCH   1  21
ATOM     20  C   UNL     1       7.356   4.797  12.813  0.00  0.00    +0.000 C 
ATOM     21  O   UNL     1       7.152   5.575  13.988  0.00  0.00    +0.000 OA
ENDBRANCH   1  21
BRANCH  10  22
ATOM     22  N   UNL     1       2.312   8.116  19.242  0.00  0.00    +0.000 N 
ATOM     23  H   UNL     1       3.180   8.578  19.555  0.00  0.00    +0.000 HD
BRANCH  22  24
ATOM     24  C   UNL     1       1.102   8.868  19.565  0.00  0.00    +0.000 C 
BRANCH  24  25
ATOM     25  C   UNL     1       0.635   9.672  18.344  0.00  0.00    +0.000 C 
BRANCH  25  26
ATOM     26  C   UNL     1      -0.524  10.579  18.686  0.00  0.00    +0.000 A 
ATOM     27  C   UNL     1      -0.646  11.126  19.976  0.00  0.00    +0.000 A 
ATOM     28  C   UNL     1      -1.743  11.926  20.313  0.00  0.00    +0.000 A 
ATOM     29  C   UNL     1      -2.722  12.172  19.359  0.00  0.00    +0.000 A 
ATOM     30  C   UNL     1      -2.605  11.638  18.078  0.00  0.00    +0.000 A 
ATOM     31  C   UNL     1      -1.517  10.848  17.733  0.00  0.00    +0.000 A 
BRANCH  29  32
ATOM     32  O   UNL     1      -3.828  12.930  19.634  0.00  0.00    +0.000 OA
ATOM     33  H   UNL     1      -4.539  12.330  19.917  0.00  0.00    +0.000 HD
ENDBRANCH  29  32
BRANCH  30  34
ATOM     34  O   UNL     1      -3.575  11.882  17.148  0.00  0.00    +0.000 OA
ATOM     35  H   UNL     1      -4.220  12.450  17.613  0.00  0.00    +0.000 HD
ENDBRANCH  30  34
ENDBRANCH  25  26
ENDBRANCH  24  25
ENDBRANCH  22  24
ENDBRANCH  10  22
TORSDOF 8
ENDMDL
