MODEL 1
REMARK VINA RESULT:      -6.8      0.000      0.000
REMARK  Name = 
REMARK  6 active torsions:
REMARK  status: ('A' for Active; 'I' for Inactive)
REMARK    1  A    between atoms: C_1  and  O_2
REMARK    2  A    between atoms: O_2  and  C_3
REMARK    3  A    between atoms: C_3  and  C_4
REMARK    4  A    between atoms: C_8  and  C_9
REMARK    5  A    between atoms: C_9  and  O_11
REMARK    6  A    between atoms: O_11  and  C_12
REMARK                            x       y       z     vdW  Elec       q    Type
REMARK                         _______ _______ _______ _____ _____    ______ ____
ROOT
ATOM      1  C   UNL     1       5.459   5.759  15.789  0.00  0.00    +0.000 C 
ATOM      2  O   UNL     1       5.287   6.887  15.344  0.00  0.00    +0.000 OA
ATOM      3  N   UNL     1       4.768   5.343  16.960  0.00  0.00    +0.000 N 
ATOM      4  C   UNL     1       4.856   4.100  17.569  0.00  0.00    +0.000 A 
ATOM      5  C   UNL     1       4.144   4.090  18.752  0.00  0.00    +0.000 A 
ATOM      6  C   UNL     1       3.514   5.363  18.851  0.00  0.00    +0.000 A 
ATOM      7  C   UNL     1       2.647   5.940  19.806  0.00  0.00    +0.000 A 
ATOM      8  C   UNL     1       2.150   7.229  19.614  0.00  0.00    +0.000 A 
ATOM      9  C   UNL     1       2.510   7.954  18.487  0.00  0.00    +0.000 A 
ATOM     10  C   UNL     1       3.379   7.417  17.533  0.00  0.00    +0.000 A 
ATOM     11  C   UNL     1       3.882   6.114  17.725  0.00  0.00    +0.000 A 
ENDROOT
BRANCH   5  12
ATOM     12  C   UNL     1       4.058   2.976  19.692  0.00  0.00    +0.000 C 
ATOM     13  O   UNL     1       5.033   2.392  20.149  0.00  0.00    +0.000 OA
BRANCH  12  14
ATOM     14  O   UNL     1       2.764   2.656  19.997  0.00  0.00    +0.000 OA
ATOM     15  C   UNL     1       2.489   2.649  21.399  0.00  0.00    +0.000 C 
ENDBRANCH  12  14
ENDBRANCH   5  12
BRANCH   1  16
ATOM     16  C   UNL     1       6.374   4.698  15.191  0.00  0.00    +0.000 C 
BRANCH  16  18
ATOM     17  C   UNL     1       7.606   5.053  13.215  0.00  0.00    +0.000 C 
ATOM     18  O   UNL     1       7.569   5.230  14.627  0.00  0.00    +0.000 OA
ENDBRANCH  16  18
ENDBRANCH   1  16
TORSDOF 4
ENDMDL
MODEL 2
REMARK VINA RESULT:      -6.7      0.954      1.144
REMARK  Name = 
REMARK  6 active torsions:
REMARK  status: ('A' for Active; 'I' for Inactive)
REMARK    1  A    between atoms: C_1  and  O_2
REMARK    2  A    between atoms: O_2  and  C_3
REMARK    3  A    between atoms: C_3  and  C_4
REMARK    4  A    between atoms: C_8  and  C_9
REMARK    5  A    between atoms: C_9  and  O_11
REMARK    6  A    between atoms: O_11  and  C_12
REMARK                            x       y       z     vdW  Elec       q    Type
REMARK                         _______ _______ _______ _____ _____    ______ ____
ROOT
ATOM      1  C   UNL     1       5.471   5.188  15.673  0.00  0.00    +0.000 C 
ATOM      2  O   UNL     1       5.620   6.346  15.304  0.00  0.00    +0.000 OA
ATOM      3  N   UNL     1       4.583   4.890  16.743  0.00  0.00    +0.000 N 
ATOM      4  C   UNL     1       4.308   3.632  17.258  0.00  0.00    +0.000 A 
ATOM      5  C   UNL     1       3.497   3.733  18.371  0.00  0.00    +0.000 A 
ATOM      6  C   UNL     1       3.183   5.114  18.515  0.00  0.00    +0.000 A 
ATOM      7  C   UNL     1       2.387   5.834  19.434  0.00  0.00    +0.000 A 
ATOM      8  C   UNL     1       2.235   7.213  19.303  0.00  0.00    +0.000 A 
ATOM      9  C   UNL     1       2.872   7.889  18.271  0.00  0.00    +0.000 A 
ATOM     10  C   UNL     1       3.680   7.208  17.356  0.00  0.00    +0.000 A 
ATOM     11  C   UNL     1       3.834   5.812  17.487  0.00  0.00    +0.000 A 
ENDROOT
BRANCH   5  12
ATOM     12  C   UNL     1       3.050   2.624  19.210  0.00  0.00    +0.000 C 
ATOM     13  O   UNL     1       2.306   1.733  18.823  0.00  0.00    +0.000 OA
BRANCH  12  14
ATOM     14  O   UNL     1       3.553   2.702  20.480  0.00  0.00    +0.000 OA
ATOM     15  C   UNL     1       2.548   2.715  21.495  0.00  0.00    +0.000 C 
ENDBRANCH  12  14
ENDBRANCH   5  12
BRANCH   1  16
ATOM     16  C   UNL     1       6.161   3.968  15.073  0.00  0.00    +0.000 C 
BRANCH  16  18
ATOM     17  C   UNL     1       5.983   3.525  12.768  0.00  0.00    +0.000 C 
ATOM     18  O   UNL     1       6.713   4.206  13.782  0.00  0.00    +0.000 OA
ENDBRANCH  16  18
ENDBRANCH   1  16
TORSDOF 4
ENDMDL
MODEL 3
REMARK VINA RESULT:      -6.6      2.378      4.083
REMARK  Name = 
REMARK  6 active torsions:
REMARK  status: ('A' for Active; 'I' for Inactive)
REMARK    1  A    between atoms: C_1  and  O_2
REMARK    2  A    between atoms: O_2  and  C_3
REMARK    3  A    between atoms: C_3  and  C_4
REMARK    4  A    between atoms: C_8  and  C_9
REMARK    5  A    between atoms: C_9  and  O_11
REMARK    6  A    between atoms: O_11  and  C_12
REMARK                            x       y       z     vdW  Elec       q    Type
REMARK                         _______ _______ _______ _____ _____    ______ ____
ROOT
ATOM      1  C   UNL     1       5.563   4.760  16.173  0.00  0.00    +0.000 C 
ATOM      2  O   UNL     1       5.751   3.589  15.865  0.00  0.00    +0.000 OA
ATOM      3  N   UNL     1       4.465   5.108  17.007  0.00  0.00    +0.000 N 
ATOM      4  C   UNL     1       4.136   6.383  17.443  0.00  0.00    +0.000 A 
ATOM      5  C   UNL     1       2.940   6.364  18.132  0.00  0.00    +0.000 A 
ATOM      6  C   UNL     1       2.538   5.000  18.201  0.00  0.00    +0.000 A 
ATOM      7  C   UNL     1       1.433   4.346  18.790  0.00  0.00    +0.000 A 
ATOM      8  C   UNL     1       1.319   2.959  18.722  0.00  0.00    +0.000 A 
ATOM      9  C   UNL     1       2.290   2.212  18.069  0.00  0.00    +0.000 A 
ATOM     10  C   UNL     1       3.387   2.830  17.462  0.00  0.00    +0.000 A 
ATOM     11  C   UNL     1       3.503   4.234  17.530  0.00  0.00    +0.000 A 
ENDROOT
BRANCH   5  12
ATOM     12  C   UNL     1       2.250   7.527  18.685  0.00  0.00    +0.000 C 
ATOM     13  O   UNL     1       2.084   7.714  19.883  0.00  0.00    +0.000 OA
BRANCH  12  14
ATOM     14  O   UNL     1       1.804   8.375  17.710  0.00  0.00    +0.000 OA
ATOM     15  C   UNL     1       1.618   9.718  18.158  0.00  0.00    +0.000 C 
ENDBRANCH  12  14
ENDBRANCH   5  12
BRANCH   1  16
ATOM     16  C   UNL     1       6.425   5.941  15.745  0.00  0.00    +0.000 C 
BRANCH  16  18
ATOM     17  C   UNL     1       7.526   7.261  17.355  0.00  0.00    +0.000 C 
ATOM     18  O   UNL     1       7.601   6.100  16.534  0.00  0.00    +0.000 OA
ENDBRANCH  16  18
ENDBRANCH   1  16
TORSDOF 4
ENDMDL
MODEL 4
REMARK VINA RESULT:      -6.6      2.390      5.602
REMARK  Name = 
REMARK  6 active torsions:
REMARK  status: ('A' for Active; 'I' for Inactive)
REMARK    1  A    between atoms: C_1  and  O_2
REMARK    2  A    between atoms: O_2  and  C_3
REMARK    3  A    between atoms: C_3  and  C_4
REMARK    4  A    between atoms: C_8  and  C_9
REMARK    5  A    between atoms: C_9  and  O_11
REMARK    6  A    between atoms: O_11  and  C_12
REMARK                            x       y       z     vdW  Elec       q    Type
REMARK                         _______ _______ _______ _____ _____    ______ ____
ROOT
ATOM      1  C   UNL     1       2.543   2.727  18.213  0.00  0.00    +0.000 C 
ATOM      2  O   UNL     1       3.250   1.813  17.806  0.00  0.00    +0.000 OA
ATOM      3  N   UNL     1       2.885   4.076  17.921  0.00  0.00    +0.000 N 
ATOM      4  C   UNL     1       2.178   5.205  18.305  0.00  0.00    +0.000 A 
ATOM      5  C   UNL     1       2.867   6.349  17.955  0.00  0.00    +0.000 A 
ATOM      6  C   UNL     1       4.024   5.918  17.245  0.00  0.00    +0.000 A 
ATOM      7  C   UNL     1       5.088   6.609  16.621  0.00  0.00    +0.000 A 
ATOM      8  C   UNL     1       6.089   5.902  15.957  0.00  0.00    +0.000 A 
ATOM      9  C   UNL     1       6.050   4.515  15.912  0.00  0.00    +0.000 A 
ATOM     10  C   UNL     1       5.021   3.803  16.534  0.00  0.00    +0.000 A 
ATOM     11  C   UNL     1       4.007   4.517  17.205  0.00  0.00    +0.000 A 
ENDROOT
BRANCH   5  12
ATOM     12  C   UNL     1       2.461   7.721  18.251  0.00  0.00    +0.000 C 
ATOM     13  O   UNL     1       2.392   8.608  17.411  0.00  0.00    +0.000 OA
BRANCH  12  14
ATOM     14  O   UNL     1       2.176   7.900  19.577  0.00  0.00    +0.000 OA
ATOM     15  C   UNL     1       1.254   8.962  19.827  0.00  0.00    +0.000 C 
ENDBRANCH  12  14
ENDBRANCH   5  12
BRANCH   1  16
ATOM     16  C   UNL     1       1.268   2.567  19.033  0.00  0.00    +0.000 C 
BRANCH  16  18
ATOM     17  C   UNL     1       1.534   3.216  21.281  0.00  0.00    +0.000 C 
ATOM     18  O   UNL     1       1.503   2.126  20.366  0.00  0.00    +0.000 OA
ENDBRANCH  16  18
ENDBRANCH   1  16
TORSDOF 4
ENDMDL
MODEL 5
REMARK VINA RESULT:      -6.5      1.119      1.383
REMARK  Name = 
REMARK  6 active torsions:
REMARK  status: ('A' for Active; 'I' for Inactive)
REMARK    1  A    between atoms: C_1  and  O_2
REMARK    2  A    between atoms: O_2  and  C_3
REMARK    3  A    between atoms: C_3  and  C_4
REMARK    4  A    between atoms: C_8  and  C_9
REMARK    5  A    between atoms: C_9  and  O_11
REMARK    6  A    between atoms: O_11  and  C_12
REMARK                            x       y       z     vdW  Elec       q    Type
REMARK                         _______ _______ _______ _____ _____    ______ ____
ROOT
ATOM      1  C   UNL     1       5.230   5.630  16.001  0.00  0.00    +0.000 C 
ATOM      2  O   UNL     1       5.279   6.800  15.640  0.00  0.00    +0.000 OA
ATOM      3  N   UNL     1       4.379   5.252  17.076  0.00  0.00    +0.000 N 
ATOM      4  C   UNL     1       4.215   3.971  17.583  0.00  0.00    +0.000 A 
ATOM      5  C   UNL     1       3.408   3.995  18.703  0.00  0.00    +0.000 A 
ATOM      6  C   UNL     1       2.981   5.345  18.861  0.00  0.00    +0.000 A 
ATOM      7  C   UNL     1       2.136   5.988  19.792  0.00  0.00    +0.000 A 
ATOM      8  C   UNL     1       1.868   7.351  19.673  0.00  0.00    +0.000 A 
ATOM      9  C   UNL     1       2.437   8.085  18.641  0.00  0.00    +0.000 A 
ATOM     10  C   UNL     1       3.292   7.481  17.714  0.00  0.00    +0.000 A 
ATOM     11  C   UNL     1       3.563   6.102  17.833  0.00  0.00    +0.000 A 
ENDROOT
BRANCH   5  12
ATOM     12  C   UNL     1       3.063   2.847  19.537  0.00  0.00    +0.000 C 
ATOM     13  O   UNL     1       3.452   2.699  20.688  0.00  0.00    +0.000 OA
BRANCH  12  14
ATOM     14  O   UNL     1       2.263   1.953  18.880  0.00  0.00    +0.000 OA
ATOM     15  C   UNL     1       0.892   2.349  18.816  0.00  0.00    +0.000 C 
ENDBRANCH  12  14
ENDBRANCH   5  12
BRANCH   1  16
ATOM     16  C   UNL     1       6.014   4.477  15.386  0.00  0.00    +0.000 C 
BRANCH  16  18
ATOM     17  C   UNL     1       7.653   4.546  17.076  0.00  0.00    +0.000 C 
ATOM     18  O   UNL     1       7.408   4.522  15.674  0.00  0.00    +0.000 OA
ENDBRANCH  16  18
ENDBRANCH   1  16
TORSDOF 4
ENDMDL
MODEL 6
REMARK VINA RESULT:      -6.5      1.457      1.481
REMARK  Name = 
REMARK  6 active torsions:
REMARK  status: ('A' for Active; 'I' for Inactive)
REMARK    1  A    between atoms: C_1  and  O_2
REMARK    2  A    between atoms: O_2  and  C_3
REMARK    3  A    between atoms: C_3  and  C_4
REMARK    4  A    between atoms: C_8  and  C_9
REMARK    5  A    between atoms: C_9  and  O_11
REMARK    6  A    between atoms: O_11  and  C_12
REMARK                            x       y       z     vdW  Elec       q    Type
REMARK                         _______ _______ _______ _____ _____    ______ ____
ROOT
ATOM      1  C   UNL     1       6.022   5.505  15.826  0.00  0.00    +0.000 C 
ATOM      2  O   UNL     1       6.228   6.711  15.771  0.00  0.00    +0.000 OA
ATOM      3  N   UNL     1       4.941   5.002  16.601  0.00  0.00    +0.000 N 
ATOM      4  C   UNL     1       4.584   3.670  16.747  0.00  0.00    +0.000 A 
ATOM      5  C   UNL     1       3.565   3.542  17.669  0.00  0.00    +0.000 A 
ATOM      6  C   UNL     1       3.211   4.864  18.063  0.00  0.00    +0.000 A 
ATOM      7  C   UNL     1       2.238   5.382  18.946  0.00  0.00    +0.000 A 
ATOM      8  C   UNL     1       2.098   6.759  19.108  0.00  0.00    +0.000 A 
ATOM      9  C   UNL     1       2.921   7.630  18.407  0.00  0.00    +0.000 A 
ATOM     10  C   UNL     1       3.905   7.148  17.539  0.00  0.00    +0.000 A 
ATOM     11  C   UNL     1       4.046   5.755  17.373  0.00  0.00    +0.000 A 
ENDROOT
BRANCH   5  12
ATOM     12  C   UNL     1       2.972   2.287  18.125  0.00  0.00    +0.000 C 
ATOM     13  O   UNL     1       3.586   1.429  18.746  0.00  0.00    +0.000 OA
BRANCH  12  14
ATOM     14  O   UNL     1       1.656   2.178  17.769  0.00  0.00    +0.000 OA
ATOM     15  C   UNL     1       0.759   2.177  18.881  0.00  0.00    +0.000 C 
ENDBRANCH  12  14
ENDBRANCH   5  12
BRANCH   1  16
ATOM     16  C   UNL     1       6.834   4.431  15.111  0.00  0.00    +0.000 C 
BRANCH  16  18
ATOM     17  C   UNL     1       6.118   3.614  13.022  0.00  0.00    +0.000 C 
ATOM     18  O   UNL     1       6.884   4.605  13.698  0.00  0.00    +0.000 OA
ENDBRANCH  16  18
ENDBRANCH   1  16
TORSDOF 4
ENDMDL
MODEL 7
REMARK VINA RESULT:      -6.5      2.366      3.884
REMARK  Name = 
REMARK  6 active torsions:
REMARK  status: ('A' for Active; 'I' for Inactive)
REMARK    1  A    between atoms: C_1  and  O_2
REMARK    2  A    between atoms: O_2  and  C_3
REMARK    3  A    between atoms: C_3  and  C_4
REMARK    4  A    between atoms: C_8  and  C_9
REMARK    5  A    between atoms: C_9  and  O_11
REMARK    6  A    between atoms: O_11  and  C_12
REMARK                            x       y       z     vdW  Elec       q    Type
REMARK                         _______ _______ _______ _____ _____    ______ ____
ROOT
ATOM      1  C   UNL     1       5.467   4.773  16.153  0.00  0.00    +0.000 C 
ATOM      2  O   UNL     1       5.638   3.604  15.828  0.00  0.00    +0.000 OA
ATOM      3  N   UNL     1       4.392   5.122  17.016  0.00  0.00    +0.000 N 
ATOM      4  C   UNL     1       4.084   6.395  17.472  0.00  0.00    +0.000 A 
ATOM      5  C   UNL     1       2.905   6.378  18.190  0.00  0.00    +0.000 A 
ATOM      6  C   UNL     1       2.494   5.016  18.254  0.00  0.00    +0.000 A 
ATOM      7  C   UNL     1       1.397   4.365  18.863  0.00  0.00    +0.000 A 
ATOM      8  C   UNL     1       1.271   2.979  18.784  0.00  0.00    +0.000 A 
ATOM      9  C   UNL     1       2.220   2.231  18.100  0.00  0.00    +0.000 A 
ATOM     10  C   UNL     1       3.307   2.848  17.473  0.00  0.00    +0.000 A 
ATOM     11  C   UNL     1       3.436   4.249  17.553  0.00  0.00    +0.000 A 
ENDROOT
BRANCH   5  12
ATOM     12  C   UNL     1       2.237   7.540  18.771  0.00  0.00    +0.000 C 
ATOM     13  O   UNL     1       1.783   8.466  18.112  0.00  0.00    +0.000 OA
BRANCH  12  14
ATOM     14  O   UNL     1       2.187   7.477  20.137  0.00  0.00    +0.000 OA
ATOM     15  C   UNL     1       1.275   8.408  20.721  0.00  0.00    +0.000 C 
ENDBRANCH  12  14
ENDBRANCH   5  12
BRANCH   1  16
ATOM     16  C   UNL     1       6.328   5.951  15.716  0.00  0.00    +0.000 C 
BRANCH  16  18
ATOM     17  C   UNL     1       7.531   7.103  17.381  0.00  0.00    +0.000 C 
ATOM     18  O   UNL     1       7.559   6.048  16.426  0.00  0.00    +0.000 OA
ENDBRANCH  16  18
ENDBRANCH   1  16
TORSDOF 4
ENDMDL
MODEL 8
REMARK VINA RESULT:      -6.4      1.025      1.304
REMARK  Name = 
REMARK  6 active torsions:
REMARK  status: ('A' for Active; 'I' for Inactive)
REMARK    1  A    between atoms: C_1  and  O_2
REMARK    2  A    between atoms: O_2  and  C_3
REMARK    3  A    between atoms: C_3  and  C_4
REMARK    4  A    between atoms: C_8  and  C_9
REMARK    5  A    between atoms: C_9  and  O_11
REMARK    6  A    between atoms: O_11  and  C_12
REMARK                            x       y       z     vdW  Elec       q    Type
REMARK                         _______ _______ _______ _____ _____    ______ ____
ROOT
ATOM      1  C   UNL     1       5.250   5.618  16.013  0.00  0.00    +0.000 C 
ATOM      2  O   UNL     1       5.330   6.793  15.677  0.00  0.00    +0.000 OA
ATOM      3  N   UNL     1       4.366   5.235  17.058  0.00  0.00    +0.000 N 
ATOM      4  C   UNL     1       4.166   3.948  17.535  0.00  0.00    +0.000 A 
ATOM      5  C   UNL     1       3.332   3.965  18.635  0.00  0.00    +0.000 A 
ATOM      6  C   UNL     1       2.926   5.319  18.810  0.00  0.00    +0.000 A 
ATOM      7  C   UNL     1       2.070   5.960  19.733  0.00  0.00    +0.000 A 
ATOM      8  C   UNL     1       1.831   7.329  19.635  0.00  0.00    +0.000 A 
ATOM      9  C   UNL     1       2.440   8.073  18.633  0.00  0.00    +0.000 A 
ATOM     10  C   UNL     1       3.305   7.471  17.715  0.00  0.00    +0.000 A 
ATOM     11  C   UNL     1       3.547   6.085  17.813  0.00  0.00    +0.000 A 
ENDROOT
BRANCH   5  12
ATOM     12  C   UNL     1       2.945   2.807  19.437  0.00  0.00    +0.000 C 
ATOM     13  O   UNL     1       2.486   1.774  18.966  0.00  0.00    +0.000 OA
BRANCH  12  14
ATOM     14  O   UNL     1       3.146   3.014  20.774  0.00  0.00    +0.000 OA
ATOM     15  C   UNL     1       2.013   2.691  21.581  0.00  0.00    +0.000 C 
ENDBRANCH  12  14
ENDBRANCH   5  12
BRANCH   1  16
ATOM     16  C   UNL     1       6.028   4.463  15.394  0.00  0.00    +0.000 C 
BRANCH  16  18
ATOM     17  C   UNL     1       7.658   4.504  17.093  0.00  0.00    +0.000 C 
ATOM     18  O   UNL     1       7.421   4.494  15.689  0.00  0.00    +0.000 OA
ENDBRANCH  16  18
ENDBRANCH   1  16
TORSDOF 4
ENDMDL
MODEL 9
REMARK VINA RESULT:      -6.4      2.177      3.889
REMARK  Name = 
REMARK  6 active torsions:
REMARK  status: ('A' for Active; 'I' for Inactive)
REMARK    1  A    between atoms: C_1  and  O_2
REMARK    2  A    between atoms: O_2  and  C_3
REMARK    3  A    between atoms: C_3  and  C_4
REMARK    4  A    between atoms: C_8  and  C_9
REMARK    5  A    between atoms: C_9  and  O_11
REMARK    6  A    between atoms: O_11  and  C_12
REMARK                            x       y       z     vdW  Elec       q    Type
REMARK                         _______ _______ _______ _____ _____    ______ ____
ROOT
ATOM      1  C   UNL     1       5.514   4.553  16.057  0.00  0.00    +0.000 C 
ATOM      2  O   UNL     1       5.647   3.364  15.790  0.00  0.00    +0.000 OA
ATOM      3  N   UNL     1       4.473   4.974  16.929  0.00  0.00    +0.000 N 
ATOM      4  C   UNL     1       4.210   6.277  17.325  0.00  0.00    +0.000 A 
ATOM      5  C   UNL     1       3.050   6.329  18.073  0.00  0.00    +0.000 A 
ATOM      6  C   UNL     1       2.607   4.983  18.220  0.00  0.00    +0.000 A 
ATOM      7  C   UNL     1       1.512   4.395  18.891  0.00  0.00    +0.000 A 
ATOM      8  C   UNL     1       1.349   3.010  18.888  0.00  0.00    +0.000 A 
ATOM      9  C   UNL     1       2.259   2.203  18.221  0.00  0.00    +0.000 A 
ATOM     10  C   UNL     1       3.344   2.757  17.533  0.00  0.00    +0.000 A 
ATOM     11  C   UNL     1       3.510   4.157  17.536  0.00  0.00    +0.000 A 
ENDROOT
BRANCH   5  12
ATOM     12  C   UNL     1       2.429   7.537  18.609  0.00  0.00    +0.000 C 
ATOM     13  O   UNL     1       2.139   7.688  19.789  0.00  0.00    +0.000 OA
BRANCH  12  14
ATOM     14  O   UNL     1       2.199   8.474  17.640  0.00  0.00    +0.000 OA
ATOM     15  C   UNL     1       1.318   9.520  18.050  0.00  0.00    +0.000 C 
ENDBRANCH  12  14
ENDBRANCH   5  12
BRANCH   1  16
ATOM     16  C   UNL     1       6.392   5.683  15.536  0.00  0.00    +0.000 C 
BRANCH  16  18
ATOM     17  C   UNL     1       7.575   5.104  13.584  0.00  0.00    +0.000 C 
ATOM     18  O   UNL     1       7.634   5.237  15.000  0.00  0.00    +0.000 OA
ENDBRANCH  16  18
ENDBRANCH   1  16
TORSDOF 4
ENDMDL
