MODEL 1
REMARK VINA RESULT:      -8.4      0.000      0.000
REMARK  Name = 
REMARK  14 active torsions:
REMARK  status: ('A' for Active; 'I' for Inactive)
REMARK    1  A    between atoms: C_1  and  O_2
REMARK    2  A    between atoms: O_2  and  C_3
REMARK    3  A    between atoms: C_5  and  O_6
REMARK    4  A    between atoms: O_6  and  C_7
REMARK    5  A    between atoms: C_9  and  C_10
REMARK    6  A    between atoms: N_12  and  C_13
REMARK    7  A    between atoms: C_13  and  C_14
REMARK    8  A    between atoms: C_13  and  C_30
REMARK    9  A    between atoms: C_14  and  O_16
REMARK   10  A    between atoms: O_16  and  C_17
REMARK   11  A    between atoms: C_17  and  C_18
REMARK   12  A    between atoms: N_20  and  C_21
REMARK   13  A    between atoms: C_30  and  C_31
REMARK   14  A    between atoms: C_30  and  C_32
REMARK                            x       y       z     vdW  Elec       q    Type
REMARK                         _______ _______ _______ _____ _____    ______ ____
ROOT
ATOM      1  C   UNL     1       2.229   4.308  19.373  0.00  0.00    +0.000 C 
ENDROOT
BRANCH   1   4
ATOM      2  C   UNL     1       4.743   3.500  19.450  0.00  0.00    +0.000 C 
ATOM      3  O   UNL     1       5.356   2.563  19.972  0.00  0.00    +0.000 OA
ATOM      4  N   UNL     1       3.407   3.508  19.731  0.00  0.00    +0.000 N 
ATOM      5  H   UNL     1       3.202   2.757  20.382  0.00  0.00    +0.000 HD
BRANCH   2  10
ATOM      6  C   UNL     1       7.117   6.224  18.088  0.00  0.00    +0.000 A 
ATOM      7  C   UNL     1       6.825   6.104  16.728  0.00  0.00    +0.000 A 
ATOM      8  C   UNL     1       5.881   5.192  16.284  0.00  0.00    +0.000 A 
ATOM      9  C   UNL     1       5.241   4.382  17.221  0.00  0.00    +0.000 A 
ATOM     10  C   UNL     1       5.513   4.470  18.608  0.00  0.00    +0.000 A 
ATOM     11  C   UNL     1       6.459   5.415  19.030  0.00  0.00    +0.000 A 
BRANCH   6  13
ATOM     12  C   UNL     1       7.927   8.444  17.720  0.00  0.00    +0.000 C 
ATOM     13  O   UNL     1       8.064   7.179  18.345  0.00  0.00    +0.000 OA
ENDBRANCH   6  13
BRANCH   8  14
ATOM     14  O   UNL     1       5.679   5.166  14.935  0.00  0.00    +0.000 OA
ATOM     15  C   UNL     1       6.250   4.065  14.238  0.00  0.00    +0.000 C 
ENDBRANCH   8  14
ENDBRANCH   2  10
ENDBRANCH   1   4
BRANCH   1  16
ATOM     16  C   UNL     1       0.948   3.504  19.703  0.00  0.00    +0.000 C 
ATOM     17  C   UNL     1       0.559   2.456  18.655  0.00  0.00    +0.000 C 
ATOM     18  C   UNL     1       0.975   2.863  21.092  0.00  0.00    +0.000 C 
ENDBRANCH   1  16
BRANCH   1  19
ATOM     19  C   UNL     1       2.332   5.730  20.006  0.00  0.00    +0.000 C 
ATOM     20  O   UNL     1       1.664   6.116  20.958  0.00  0.00    +0.000 OA
BRANCH  19  21
ATOM     21  O   UNL     1       3.178   6.545  19.295  0.00  0.00    +0.000 OA
BRANCH  21  22
ATOM     22  C   UNL     1       2.634   7.071  18.069  0.00  0.00    +0.000 C 
BRANCH  22  23
ATOM     23  C   UNL     1       2.042   8.467  18.309  0.00  0.00    +0.000 C 
ATOM     24  O   UNL     1       2.138   9.333  17.439  0.00  0.00    +0.000 OA
ATOM     25  N   UNL     1       1.439   8.653  19.546  0.00  0.00    +0.000 N 
ATOM     26  H   UNL     1       1.551   7.938  20.259  0.00  0.00    +0.000 HD
BRANCH  25  27
ATOM     27  C   UNL     1       0.770   9.837  19.966  0.00  0.00    +0.000 A 
ATOM     28  C   UNL     1       0.462  10.892  19.093  0.00  0.00    +0.000 A 
ATOM     29  C   UNL     1      -0.172  12.049  19.557  0.00  0.00    +0.000 A 
ATOM     30  C   UNL     1      -0.511  12.155  20.899  0.00  0.00    +0.000 A 
ATOM     31  F   UNL     1      -1.107  13.272  21.336  0.00  0.00    +0.000 F 
ATOM     32  C   UNL     1      -0.238  11.113  21.775  0.00  0.00    +0.000 A 
ATOM     33  F   UNL     1      -0.577  11.223  23.069  0.00  0.00    +0.000 F 
ATOM     34  C   UNL     1       0.389   9.960  21.307  0.00  0.00    +0.000 A 
ATOM     35  F   UNL     1       0.650   8.957  22.162  0.00  0.00    +0.000 F 
ENDBRANCH  25  27
ENDBRANCH  22  23
ENDBRANCH  21  22
ENDBRANCH  19  21
ENDBRANCH   1  19
TORSDOF 10
ENDMDL
MODEL 2
REMARK VINA RESULT:      -8.1      1.257      2.681
REMARK  Name = 
REMARK  14 active torsions:
REMARK  status: ('A' for Active; 'I' for Inactive)
REMARK    1  A    between atoms: C_1  and  O_2
REMARK    2  A    between atoms: O_2  and  C_3
REMARK    3  A    between atoms: C_5  and  O_6
REMARK    4  A    between atoms: O_6  and  C_7
REMARK    5  A    between atoms: C_9  and  C_10
REMARK    6  A    between atoms: N_12  and  C_13
REMARK    7  A    between atoms: C_13  and  C_14
REMARK    8  A    between atoms: C_13  and  C_30
REMARK    9  A    between atoms: C_14  and  O_16
REMARK   10  A    between atoms: O_16  and  C_17
REMARK   11  A    between atoms: C_17  and  C_18
REMARK   12  A    between atoms: N_20  and  C_21
REMARK   13  A    between atoms: C_30  and  C_31
REMARK   14  A    between atoms: C_30  and  C_32
REMARK                            x       y       z     vdW  Elec       q    Type
REMARK                         _______ _______ _______ _____ _____    ______ ____
ROOT
ATOM      1  C   UNL     1       2.190   4.480  19.234  0.00  0.00    +0.000 C 
ENDROOT
BRANCH   1   4
ATOM      2  C   UNL     1       4.724   3.750  19.386  0.00  0.00    +0.000 C 
ATOM      3  O   UNL     1       5.374   2.940  20.056  0.00  0.00    +0.000 OA
ATOM      4  N   UNL     1       3.396   3.785  19.701  0.00  0.00    +0.000 N 
ATOM      5  H   UNL     1       3.228   3.167  20.488  0.00  0.00    +0.000 HD
BRANCH   2  10
ATOM      6  C   UNL     1       6.010   5.399  16.139  0.00  0.00    +0.000 A 
ATOM      7  C   UNL     1       6.951   6.268  16.697  0.00  0.00    +0.000 A 
ATOM      8  C   UNL     1       7.166   6.295  18.065  0.00  0.00    +0.000 A 
ATOM      9  C   UNL     1       6.412   5.449  18.878  0.00  0.00    +0.000 A 
ATOM     10  C   UNL     1       5.447   4.557  18.352  0.00  0.00    +0.000 A 
ATOM     11  C   UNL     1       5.263   4.539  16.962  0.00  0.00    +0.000 A 
BRANCH   6  13
ATOM     12  C   UNL     1       6.824   4.716  13.997  0.00  0.00    +0.000 C 
ATOM     13  O   UNL     1       5.936   5.501  14.776  0.00  0.00    +0.000 OA
ENDBRANCH   6  13
BRANCH   8  14
ATOM     14  O   UNL     1       8.110   7.182  18.494  0.00  0.00    +0.000 OA
ATOM     15  C   UNL     1       8.073   8.472  17.896  0.00  0.00    +0.000 C 
ENDBRANCH   8  14
ENDBRANCH   2  10
ENDBRANCH   1   4
BRANCH   1  16
ATOM     16  C   UNL     1       0.939   3.737  19.763  0.00  0.00    +0.000 C 
ATOM     17  C   UNL     1       0.347   2.706  18.795  0.00  0.00    +0.000 C 
ATOM     18  C   UNL     1       1.147   3.098  21.138  0.00  0.00    +0.000 C 
ENDBRANCH   1  16
BRANCH   1  19
ATOM     19  C   UNL     1       2.281   6.000  19.570  0.00  0.00    +0.000 C 
ATOM     20  O   UNL     1       2.978   6.805  18.964  0.00  0.00    +0.000 OA
BRANCH  19  21
ATOM     21  O   UNL     1       1.578   6.314  20.707  0.00  0.00    +0.000 OA
BRANCH  21  22
ATOM     22  C   UNL     1       1.809   7.639  21.224  0.00  0.00    +0.000 C 
BRANCH  22  23
ATOM     23  C   UNL     1       0.490   8.422  21.280  0.00  0.00    +0.000 C 
ATOM     24  O   UNL     1      -0.574   7.823  21.438  0.00  0.00    +0.000 OA
ATOM     25  N   UNL     1       0.606   9.797  21.122  0.00  0.00    +0.000 N 
ATOM     26  H   UNL     1       1.501  10.183  20.834  0.00  0.00    +0.000 HD
BRANCH  25  27
ATOM     27  C   UNL     1      -0.467  10.728  21.200  0.00  0.00    +0.000 A 
ATOM     28  C   UNL     1      -1.003  11.374  20.076  0.00  0.00    +0.000 A 
ATOM     29  C   UNL     1      -2.039  12.304  20.205  0.00  0.00    +0.000 A 
ATOM     30  C   UNL     1      -2.553  12.588  21.463  0.00  0.00    +0.000 A 
ATOM     31  F   UNL     1      -3.538  13.489  21.578  0.00  0.00    +0.000 F 
ATOM     32  C   UNL     1      -2.055  11.942  22.586  0.00  0.00    +0.000 A 
ATOM     33  F   UNL     1      -2.565  12.220  23.796  0.00  0.00    +0.000 F 
ATOM     34  C   UNL     1      -1.026  11.012  22.452  0.00  0.00    +0.000 A 
ATOM     35  F   UNL     1      -0.548  10.393  23.544  0.00  0.00    +0.000 F 
ENDBRANCH  25  27
ENDBRANCH  22  23
ENDBRANCH  21  22
ENDBRANCH  19  21
ENDBRANCH   1  19
TORSDOF 10
ENDMDL
MODEL 3
REMARK VINA RESULT:      -7.9      4.042      8.627
REMARK  Name = 
REMARK  14 active torsions:
REMARK  status: ('A' for Active; 'I' for Inactive)
REMARK    1  A    between atoms: C_1  and  O_2
REMARK    2  A    between atoms: O_2  and  C_3
REMARK    3  A    between atoms: C_5  and  O_6
REMARK    4  A    between atoms: O_6  and  C_7
REMARK    5  A    between atoms: C_9  and  C_10
REMARK    6  A    between atoms: N_12  and  C_13
REMARK    7  A    between atoms: C_13  and  C_14
REMARK    8  A    between atoms: C_13  and  C_30
REMARK    9  A    between atoms: C_14  and  O_16
REMARK   10  A    between atoms: O_16  and  C_17
REMARK   11  A    between atoms: C_17  and  C_18
REMARK   12  A    between atoms: N_20  and  C_21
REMARK   13  A    between atoms: C_30  and  C_31
REMARK   14  A    between atoms: C_30  and  C_32
REMARK                            x       y       z     vdW  Elec       q    Type
REMARK                         _______ _______ _______ _____ _____    ______ ____
ROOT
ATOM      1  C   UNL     1       2.990   5.815  19.181  0.00  0.00    +0.000 C 
ENDROOT
BRANCH   1   4
ATOM      2  C   UNL     1       2.526   8.133  18.003  0.00  0.00    +0.000 C 
ATOM      3  O   UNL     1       2.914   8.697  16.975  0.00  0.00    +0.000 OA
ATOM      4  N   UNL     1       3.093   6.907  18.206  0.00  0.00    +0.000 N 
ATOM      5  H   UNL     1       3.784   6.740  17.482  0.00  0.00    +0.000 HD
BRANCH   2  10
ATOM      6  C   UNL     1      -0.398  10.232  19.403  0.00  0.00    +0.000 A 
ATOM      7  C   UNL     1      -0.236   9.949  20.760  0.00  0.00    +0.000 A 
ATOM      8  C   UNL     1       0.793   9.129  21.195  0.00  0.00    +0.000 A 
ATOM      9  C   UNL     1       1.655   8.577  20.248  0.00  0.00    +0.000 A 
ATOM     10  C   UNL     1       1.521   8.836  18.862  0.00  0.00    +0.000 A 
ATOM     11  C   UNL     1       0.482   9.684  18.453  0.00  0.00    +0.000 A 
BRANCH   6  13
ATOM     12  C   UNL     1      -1.644  12.180  20.010  0.00  0.00    +0.000 C 
ATOM     13  O   UNL     1      -1.457  11.064  19.156  0.00  0.00    +0.000 OA
ENDBRANCH   6  13
BRANCH   8  14
ATOM     14  O   UNL     1       0.853   8.926  22.543  0.00  0.00    +0.000 OA
ATOM     15  C   UNL     1      -0.085   9.654  23.327  0.00  0.00    +0.000 C 
ENDBRANCH   8  14
ENDBRANCH   2  10
ENDBRANCH   1   4
BRANCH   1  16
ATOM     16  C   UNL     1       1.791   4.910  18.805  0.00  0.00    +0.000 C 
ATOM     17  C   UNL     1       2.054   3.945  17.643  0.00  0.00    +0.000 C 
ATOM     18  C   UNL     1       1.212   4.143  19.995  0.00  0.00    +0.000 C 
ENDBRANCH   1  16
BRANCH   1  19
ATOM     19  C   UNL     1       4.368   5.102  19.337  0.00  0.00    +0.000 C 
ATOM     20  O   UNL     1       4.517   3.966  19.771  0.00  0.00    +0.000 OA
BRANCH  19  21
ATOM     21  O   UNL     1       5.414   5.942  19.041  0.00  0.00    +0.000 OA
BRANCH  21  22
ATOM     22  C   UNL     1       6.723   5.349  19.142  0.00  0.00    +0.000 C 
BRANCH  22  23
ATOM     23  C   UNL     1       7.215   4.918  17.752  0.00  0.00    +0.000 C 
ATOM     24  O   UNL     1       8.206   4.193  17.649  0.00  0.00    +0.000 OA
ATOM     25  N   UNL     1       6.485   5.414  16.681  0.00  0.00    +0.000 N 
ATOM     26  H   UNL     1       5.787   6.132  16.854  0.00  0.00    +0.000 HD
BRANCH  25  27
ATOM     27  C   UNL     1       6.715   5.100  15.312  0.00  0.00    +0.000 A 
ATOM     28  C   UNL     1       7.801   5.608  14.583  0.00  0.00    +0.000 A 
ATOM     29  C   UNL     1       7.970   5.294  13.230  0.00  0.00    +0.000 A 
ATOM     30  C   UNL     1       7.056   4.460  12.600  0.00  0.00    +0.000 A 
ATOM     31  F   UNL     1       7.221   4.174  11.301  0.00  0.00    +0.000 F 
ATOM     32  C   UNL     1       5.988   3.926  13.309  0.00  0.00    +0.000 A 
ATOM     33  F   UNL     1       5.116   3.116  12.691  0.00  0.00    +0.000 F 
ATOM     34  C   UNL     1       5.827   4.238  14.658  0.00  0.00    +0.000 A 
ATOM     35  F   UNL     1       4.790   3.719  15.336  0.00  0.00    +0.000 F 
ENDBRANCH  25  27
ENDBRANCH  22  23
ENDBRANCH  21  22
ENDBRANCH  19  21
ENDBRANCH   1  19
TORSDOF 10
ENDMDL
MODEL 4
REMARK VINA RESULT:      -7.9      1.637      2.840
REMARK  Name = 
REMARK  14 active torsions:
REMARK  status: ('A' for Active; 'I' for Inactive)
REMARK    1  A    between atoms: C_1  and  O_2
REMARK    2  A    between atoms: O_2  and  C_3
REMARK    3  A    between atoms: C_5  and  O_6
REMARK    4  A    between atoms: O_6  and  C_7
REMARK    5  A    between atoms: C_9  and  C_10
REMARK    6  A    between atoms: N_12  and  C_13
REMARK    7  A    between atoms: C_13  and  C_14
REMARK    8  A    between atoms: C_13  and  C_30
REMARK    9  A    between atoms: C_14  and  O_16
REMARK   10  A    between atoms: O_16  and  C_17
REMARK   11  A    between atoms: C_17  and  C_18
REMARK   12  A    between atoms: N_20  and  C_21
REMARK   13  A    between atoms: C_30  and  C_31
REMARK   14  A    between atoms: C_30  and  C_32
REMARK                            x       y       z     vdW  Elec       q    Type
REMARK                         _______ _______ _______ _____ _____    ______ ____
ROOT
ATOM      1  C   UNL     1       2.291   4.230  18.674  0.00  0.00    +0.000 C 
ENDROOT
BRANCH   1   4
ATOM      2  C   UNL     1       4.828   3.763  19.240  0.00  0.00    +0.000 C 
ATOM      3  O   UNL     1       5.440   3.082  20.070  0.00  0.00    +0.000 OA
ATOM      4  N   UNL     1       3.471   3.697  19.367  0.00  0.00    +0.000 N 
ATOM      5  H   UNL     1       3.243   3.136  20.181  0.00  0.00    +0.000 HD
BRANCH   2  10
ATOM      6  C   UNL     1       6.379   5.292  16.050  0.00  0.00    +0.000 A 
ATOM      7  C   UNL     1       7.225   6.228  16.649  0.00  0.00    +0.000 A 
ATOM      8  C   UNL     1       7.298   6.336  18.028  0.00  0.00    +0.000 A 
ATOM      9  C   UNL     1       6.496   5.503  18.809  0.00  0.00    +0.000 A 
ATOM     10  C   UNL     1       5.623   4.545  18.240  0.00  0.00    +0.000 A 
ATOM     11  C   UNL     1       5.583   4.445  16.841  0.00  0.00    +0.000 A 
BRANCH   6  13
ATOM     12  C   UNL     1       6.319   4.090  13.984  0.00  0.00    +0.000 C 
ATOM     13  O   UNL     1       6.441   5.318  14.683  0.00  0.00    +0.000 OA
ENDBRANCH   6  13
BRANCH   8  14
ATOM     14  O   UNL     1       8.160   7.284  18.499  0.00  0.00    +0.000 OA
ATOM     15  C   UNL     1       8.098   8.555  17.863  0.00  0.00    +0.000 C 
ENDBRANCH   8  14
ENDBRANCH   2  10
ENDBRANCH   1   4
BRANCH   1  16
ATOM     16  C   UNL     1       1.017   3.574  19.262  0.00  0.00    +0.000 C 
ATOM     17  C   UNL     1       0.582   2.280  18.565  0.00  0.00    +0.000 C 
ATOM     18  C   UNL     1       1.092   3.349  20.773  0.00  0.00    +0.000 C 
ENDBRANCH   1  16
BRANCH   1  19
ATOM     19  C   UNL     1       2.325   5.789  18.674  0.00  0.00    +0.000 C 
ATOM     20  O   UNL     1       3.106   6.467  18.017  0.00  0.00    +0.000 OA
BRANCH  19  21
ATOM     21  O   UNL     1       1.452   6.318  19.593  0.00  0.00    +0.000 OA
BRANCH  21  22
ATOM     22  C   UNL     1       2.060   7.114  20.628  0.00  0.00    +0.000 C 
BRANCH  22  23
ATOM     23  C   UNL     1       1.515   8.549  20.580  0.00  0.00    +0.000 C 
ATOM     24  O   UNL     1       1.282   9.153  21.627  0.00  0.00    +0.000 OA
ATOM     25  N   UNL     1       1.302   9.063  19.307  0.00  0.00    +0.000 N 
ATOM     26  H   UNL     1       1.368   8.438  18.509  0.00  0.00    +0.000 HD
BRANCH  25  27
ATOM     27  C   UNL     1       0.865  10.385  19.016  0.00  0.00    +0.000 A 
ATOM     28  C   UNL     1       1.749  11.449  18.782  0.00  0.00    +0.000 A 
ATOM     29  C   UNL     1       1.272  12.739  18.527  0.00  0.00    +0.000 A 
ATOM     30  C   UNL     1      -0.096  12.972  18.497  0.00  0.00    +0.000 A 
ATOM     31  F   UNL     1      -0.542  14.213  18.263  0.00  0.00    +0.000 F 
ATOM     32  C   UNL     1      -0.989  11.929  18.701  0.00  0.00    +0.000 A 
ATOM     33  F   UNL     1      -2.309  12.164  18.662  0.00  0.00    +0.000 F 
ATOM     34  C   UNL     1      -0.510  10.644  18.949  0.00  0.00    +0.000 A 
ATOM     35  F   UNL     1      -1.381   9.640  19.147  0.00  0.00    +0.000 F 
ENDBRANCH  25  27
ENDBRANCH  22  23
ENDBRANCH  21  22
ENDBRANCH  19  21
ENDBRANCH   1  19
TORSDOF 10
ENDMDL
MODEL 5
REMARK VINA RESULT:      -7.8      4.070      8.308
REMARK  Name = 
REMARK  14 active torsions:
REMARK  status: ('A' for Active; 'I' for Inactive)
REMARK    1  A    between atoms: C_1  and  O_2
REMARK    2  A    between atoms: O_2  and  C_3
REMARK    3  A    between atoms: C_5  and  O_6
REMARK    4  A    between atoms: O_6  and  C_7
REMARK    5  A    between atoms: C_9  and  C_10
REMARK    6  A    between atoms: N_12  and  C_13
REMARK    7  A    between atoms: C_13  and  C_14
REMARK    8  A    between atoms: C_13  and  C_30
REMARK    9  A    between atoms: C_14  and  O_16
REMARK   10  A    between atoms: O_16  and  C_17
REMARK   11  A    between atoms: C_17  and  C_18
REMARK   12  A    between atoms: N_20  and  C_21
REMARK   13  A    between atoms: C_30  and  C_31
REMARK   14  A    between atoms: C_30  and  C_32
REMARK                            x       y       z     vdW  Elec       q    Type
REMARK                         _______ _______ _______ _____ _____    ______ ____
ROOT
ATOM      1  C   UNL     1       3.732   4.882  19.115  0.00  0.00    +0.000 C 
ENDROOT
BRANCH   1   4
ATOM      2  C   UNL     1       3.209   7.118  17.810  0.00  0.00    +0.000 C 
ATOM      3  O   UNL     1       3.520   7.598  16.714  0.00  0.00    +0.000 OA
ATOM      4  N   UNL     1       3.771   5.899  18.057  0.00  0.00    +0.000 N 
ATOM      5  H   UNL     1       4.396   5.664  17.293  0.00  0.00    +0.000 HD
BRANCH   2  10
ATOM      6  C   UNL     1       1.248   8.657  20.759  0.00  0.00    +0.000 A 
ATOM      7  C   UNL     1       0.500   9.600  20.052  0.00  0.00    +0.000 A 
ATOM      8  C   UNL     1       0.617   9.710  18.676  0.00  0.00    +0.000 A 
ATOM      9  C   UNL     1       1.511   8.871  18.011  0.00  0.00    +0.000 A 
ATOM     10  C   UNL     1       2.291   7.905  18.693  0.00  0.00    +0.000 A 
ATOM     11  C   UNL     1       2.138   7.804  20.083  0.00  0.00    +0.000 A 
BRANCH   6  13
ATOM     12  C   UNL     1       0.026   9.594  22.589  0.00  0.00    +0.000 C 
ATOM     13  O   UNL     1       0.999   8.683  22.106  0.00  0.00    +0.000 OA
ENDBRANCH   6  13
BRANCH   8  14
ATOM     14  O   UNL     1      -0.165  10.664  18.094  0.00  0.00    +0.000 OA
ATOM     15  C   UNL     1      -1.555  10.373  18.018  0.00  0.00    +0.000 C 
ENDBRANCH   8  14
ENDBRANCH   2  10
ENDBRANCH   1   4
BRANCH   1  16
ATOM     16  C   UNL     1       2.401   4.097  19.016  0.00  0.00    +0.000 C 
ATOM     17  C   UNL     1       1.377   4.427  20.107  0.00  0.00    +0.000 C 
ATOM     18  C   UNL     1       1.741   4.192  17.639  0.00  0.00    +0.000 C 
ENDBRANCH   1  16
BRANCH   1  19
ATOM     19  C   UNL     1       5.037   4.030  19.091  0.00  0.00    +0.000 C 
ATOM     20  O   UNL     1       5.095   2.857  18.742  0.00  0.00    +0.000 OA
BRANCH  19  21
ATOM     21  O   UNL     1       6.103   4.714  19.623  0.00  0.00    +0.000 OA
BRANCH  21  22
ATOM     22  C   UNL     1       6.647   5.749  18.783  0.00  0.00    +0.000 C 
BRANCH  22  23
ATOM     23  C   UNL     1       7.133   5.150  17.454  0.00  0.00    +0.000 C 
ATOM     24  O   UNL     1       8.071   4.352  17.447  0.00  0.00    +0.000 OA
ATOM     25  N   UNL     1       6.460   5.589  16.322  0.00  0.00    +0.000 N 
ATOM     26  H   UNL     1       5.812   6.367  16.407  0.00  0.00    +0.000 HD
BRANCH  25  27
ATOM     27  C   UNL     1       6.692   5.127  14.996  0.00  0.00    +0.000 A 
ATOM     28  C   UNL     1       7.802   5.518  14.233  0.00  0.00    +0.000 A 
ATOM     29  C   UNL     1       7.973   5.060  12.922  0.00  0.00    +0.000 A 
ATOM     30  C   UNL     1       7.037   4.197  12.369  0.00  0.00    +0.000 A 
ATOM     31  F   UNL     1       7.204   3.773  11.110  0.00  0.00    +0.000 F 
ATOM     32  C   UNL     1       5.944   3.776  13.115  0.00  0.00    +0.000 A 
ATOM     33  F   UNL     1       5.050   2.937  12.573  0.00  0.00    +0.000 F 
ATOM     34  C   UNL     1       5.781   4.232  14.422  0.00  0.00    +0.000 A 
ATOM     35  F   UNL     1       4.719   3.821  15.137  0.00  0.00    +0.000 F 
ENDBRANCH  25  27
ENDBRANCH  22  23
ENDBRANCH  21  22
ENDBRANCH  19  21
ENDBRANCH   1  19
TORSDOF 10
ENDMDL
MODEL 6
REMARK VINA RESULT:      -7.8      0.946      2.198
REMARK  Name = 
REMARK  14 active torsions:
REMARK  status: ('A' for Active; 'I' for Inactive)
REMARK    1  A    between atoms: C_1  and  O_2
REMARK    2  A    between atoms: O_2  and  C_3
REMARK    3  A    between atoms: C_5  and  O_6
REMARK    4  A    between atoms: O_6  and  C_7
REMARK    5  A    between atoms: C_9  and  C_10
REMARK    6  A    between atoms: N_12  and  C_13
REMARK    7  A    between atoms: C_13  and  C_14
REMARK    8  A    between atoms: C_13  and  C_30
REMARK    9  A    between atoms: C_14  and  O_16
REMARK   10  A    between atoms: O_16  and  C_17
REMARK   11  A    between atoms: C_17  and  C_18
REMARK   12  A    between atoms: N_20  and  C_21
REMARK   13  A    between atoms: C_30  and  C_31
REMARK   14  A    between atoms: C_30  and  C_32
REMARK                            x       y       z     vdW  Elec       q    Type
REMARK                         _______ _______ _______ _____ _____    ______ ____
ROOT
ATOM      1  C   UNL     1       2.149   4.220  19.065  0.00  0.00    +0.000 C 
ENDROOT
BRANCH   1   4
ATOM      2  C   UNL     1       4.698   3.574  19.311  0.00  0.00    +0.000 C 
ATOM      3  O   UNL     1       5.355   2.823  20.040  0.00  0.00    +0.000 OA
ATOM      4  N   UNL     1       3.363   3.588  19.595  0.00  0.00    +0.000 N 
ATOM      5  H   UNL     1       3.194   3.010  20.412  0.00  0.00    +0.000 HD
BRANCH   2  10
ATOM      6  C   UNL     1       6.000   5.090  16.006  0.00  0.00    +0.000 A 
ATOM      7  C   UNL     1       6.919   6.000  16.534  0.00  0.00    +0.000 A 
ATOM      8  C   UNL     1       7.116   6.095  17.902  0.00  0.00    +0.000 A 
ATOM      9  C   UNL     1       6.365   5.275  18.745  0.00  0.00    +0.000 A 
ATOM     10  C   UNL     1       5.421   4.344  18.249  0.00  0.00    +0.000 A 
ATOM     11  C   UNL     1       5.256   4.257  16.859  0.00  0.00    +0.000 A 
BRANCH   6  13
ATOM     12  C   UNL     1       7.123   4.831  13.911  0.00  0.00    +0.000 C 
ATOM     13  O   UNL     1       5.942   5.126  14.638  0.00  0.00    +0.000 OA
ENDBRANCH   6  13
BRANCH   8  14
ATOM     14  O   UNL     1       8.040   7.017  18.300  0.00  0.00    +0.000 OA
ATOM     15  C   UNL     1       7.909   8.316  17.735  0.00  0.00    +0.000 C 
ENDBRANCH   8  14
ENDBRANCH   2  10
ENDBRANCH   1   4
BRANCH   1  16
ATOM     16  C   UNL     1       0.907   3.468  19.604  0.00  0.00    +0.000 C 
ATOM     17  C   UNL     1       0.428   2.306  18.727  0.00  0.00    +0.000 C 
ATOM     18  C   UNL     1       1.064   2.995  21.050  0.00  0.00    +0.000 C 
ENDBRANCH   1  16
BRANCH   1  19
ATOM     19  C   UNL     1       2.187   5.758  19.321  0.00  0.00    +0.000 C 
ATOM     20  O   UNL     1       2.113   6.280  20.427  0.00  0.00    +0.000 OA
BRANCH  19  21
ATOM     21  O   UNL     1       2.193   6.470  18.147  0.00  0.00    +0.000 OA
BRANCH  21  22
ATOM     22  C   UNL     1       2.860   7.746  18.208  0.00  0.00    +0.000 C 
BRANCH  22  23
ATOM     23  C   UNL     1       1.832   8.884  18.123  0.00  0.00    +0.000 C 
ATOM     24  O   UNL     1       1.058   8.942  17.167  0.00  0.00    +0.000 OA
ATOM     25  N   UNL     1       1.875   9.804  19.162  0.00  0.00    +0.000 N 
ATOM     26  H   UNL     1       2.651   9.767  19.817  0.00  0.00    +0.000 HD
BRANCH  25  27
ATOM     27  C   UNL     1       0.983  10.900  19.328  0.00  0.00    +0.000 A 
ATOM     28  C   UNL     1       1.134  12.118  18.648  0.00  0.00    +0.000 A 
ATOM     29  C   UNL     1       0.248  13.178  18.865  0.00  0.00    +0.000 A 
ATOM     30  C   UNL     1      -0.803  13.023  19.758  0.00  0.00    +0.000 A 
ATOM     31  F   UNL     1      -1.639  14.049  19.968  0.00  0.00    +0.000 F 
ATOM     32  C   UNL     1      -0.986  11.818  20.423  0.00  0.00    +0.000 A 
ATOM     33  F   UNL     1      -2.009  11.677  21.280  0.00  0.00    +0.000 F 
ATOM     34  C   UNL     1      -0.103  10.763  20.200  0.00  0.00    +0.000 A 
ATOM     35  F   UNL     1      -0.287   9.600  20.849  0.00  0.00    +0.000 F 
ENDBRANCH  25  27
ENDBRANCH  22  23
ENDBRANCH  21  22
ENDBRANCH  19  21
ENDBRANCH   1  19
TORSDOF 10
ENDMDL
MODEL 7
REMARK VINA RESULT:      -7.8      1.334      1.702
REMARK  Name = 
REMARK  14 active torsions:
REMARK  status: ('A' for Active; 'I' for Inactive)
REMARK    1  A    between atoms: C_1  and  O_2
REMARK    2  A    between atoms: O_2  and  C_3
REMARK    3  A    between atoms: C_5  and  O_6
REMARK    4  A    between atoms: O_6  and  C_7
REMARK    5  A    between atoms: C_9  and  C_10
REMARK    6  A    between atoms: N_12  and  C_13
REMARK    7  A    between atoms: C_13  and  C_14
REMARK    8  A    between atoms: C_13  and  C_30
REMARK    9  A    between atoms: C_14  and  O_16
REMARK   10  A    between atoms: O_16  and  C_17
REMARK   11  A    between atoms: C_17  and  C_18
REMARK   12  A    between atoms: N_20  and  C_21
REMARK   13  A    between atoms: C_30  and  C_31
REMARK   14  A    between atoms: C_30  and  C_32
REMARK                            x       y       z     vdW  Elec       q    Type
REMARK                         _______ _______ _______ _____ _____    ______ ____
ROOT
ATOM      1  C   UNL     1       1.168   3.283  19.354  0.00  0.00    +0.000 C 
ENDROOT
BRANCH   1   4
ATOM      2  C   UNL     1       3.394   2.064  18.623  0.00  0.00    +0.000 C 
ATOM      3  O   UNL     1       3.747   0.892  18.452  0.00  0.00    +0.000 OA
ATOM      4  N   UNL     1       2.102   2.194  19.045  0.00  0.00    +0.000 N 
ATOM      5  H   UNL     1       1.711   1.270  19.195  0.00  0.00    +0.000 HD
BRANCH   2  10
ATOM      6  C   UNL     1       6.100   4.810  18.850  0.00  0.00    +0.000 A 
ATOM      7  C   UNL     1       6.215   5.112  17.491  0.00  0.00    +0.000 A 
ATOM      8  C   UNL     1       5.430   4.463  16.553  0.00  0.00    +0.000 A 
ATOM      9  C   UNL     1       4.533   3.488  16.989  0.00  0.00    +0.000 A 
ATOM     10  C   UNL     1       4.390   3.151  18.357  0.00  0.00    +0.000 A 
ATOM     11  C   UNL     1       5.185   3.837  19.286  0.00  0.00    +0.000 A 
BRANCH   6  13
ATOM     12  C   UNL     1       7.979   6.282  18.994  0.00  0.00    +0.000 C 
ATOM     13  O   UNL     1       6.944   5.553  19.632  0.00  0.00    +0.000 OA
ENDBRANCH   6  13
BRANCH   8  14
ATOM     14  O   UNL     1       5.629   4.841  15.257  0.00  0.00    +0.000 OA
ATOM     15  C   UNL     1       6.971   4.786  14.788  0.00  0.00    +0.000 C 
ENDBRANCH   8  14
ENDBRANCH   2  10
ENDBRANCH   1   4
BRANCH   1  16
ATOM     16  C   UNL     1       1.279   3.635  20.858  0.00  0.00    +0.000 C 
ATOM     17  C   UNL     1       1.418   2.428  21.792  0.00  0.00    +0.000 C 
ATOM     18  C   UNL     1       2.375   4.657  21.163  0.00  0.00    +0.000 C 
ENDBRANCH   1  16
BRANCH   1  19
ATOM     19  C   UNL     1       1.367   4.463  18.354  0.00  0.00    +0.000 C 
ATOM     20  O   UNL     1       1.130   4.402  17.153  0.00  0.00    +0.000 OA
BRANCH  19  21
ATOM     21  O   UNL     1       1.955   5.548  18.956  0.00  0.00    +0.000 OA
BRANCH  21  22
ATOM     22  C   UNL     1       2.646   6.443  18.063  0.00  0.00    +0.000 C 
BRANCH  22  23
ATOM     23  C   UNL     1       2.314   7.901  18.416  0.00  0.00    +0.000 C 
ATOM     24  O   UNL     1       2.775   8.817  17.735  0.00  0.00    +0.000 OA
ATOM     25  N   UNL     1       1.505   8.075  19.530  0.00  0.00    +0.000 N 
ATOM     26  H   UNL     1       1.307   7.273  20.123  0.00  0.00    +0.000 HD
BRANCH  25  27
ATOM     27  C   UNL     1       1.017   9.324  20.007  0.00  0.00    +0.000 A 
ATOM     28  C   UNL     1       0.990  10.485  19.219  0.00  0.00    +0.000 A 
ATOM     29  C   UNL     1       0.528  11.698  19.740  0.00  0.00    +0.000 A 
ATOM     30  C   UNL     1       0.080  11.755  21.052  0.00  0.00    +0.000 A 
ATOM     31  F   UNL     1      -0.351  12.924  21.546  0.00  0.00    +0.000 F 
ATOM     32  C   UNL     1       0.074  10.612  21.842  0.00  0.00    +0.000 A 
ATOM     33  F   UNL     1      -0.368  10.678  23.107  0.00  0.00    +0.000 F 
ATOM     34  C   UNL     1       0.531   9.405  21.317  0.00  0.00    +0.000 A 
ATOM     35  F   UNL     1       0.523   8.305  22.088  0.00  0.00    +0.000 F 
ENDBRANCH  25  27
ENDBRANCH  22  23
ENDBRANCH  21  22
ENDBRANCH  19  21
ENDBRANCH   1  19
TORSDOF 10
ENDMDL
MODEL 8
REMARK VINA RESULT:      -7.8      1.232      1.512
REMARK  Name = 
REMARK  14 active torsions:
REMARK  status: ('A' for Active; 'I' for Inactive)
REMARK    1  A    between atoms: C_1  and  O_2
REMARK    2  A    between atoms: O_2  and  C_3
REMARK    3  A    between atoms: C_5  and  O_6
REMARK    4  A    between atoms: O_6  and  C_7
REMARK    5  A    between atoms: C_9  and  C_10
REMARK    6  A    between atoms: N_12  and  C_13
REMARK    7  A    between atoms: C_13  and  C_14
REMARK    8  A    between atoms: C_13  and  C_30
REMARK    9  A    between atoms: C_14  and  O_16
REMARK   10  A    between atoms: O_16  and  C_17
REMARK   11  A    between atoms: C_17  and  C_18
REMARK   12  A    between atoms: N_20  and  C_21
REMARK   13  A    between atoms: C_30  and  C_31
REMARK   14  A    between atoms: C_30  and  C_32
REMARK                            x       y       z     vdW  Elec       q    Type
REMARK                         _______ _______ _______ _____ _____    ______ ____
ROOT
ATOM      1  C   UNL     1       2.159   4.185  18.734  0.00  0.00    +0.000 C 
ENDROOT
BRANCH   1   4
ATOM      2  C   UNL     1       4.752   3.740  18.976  0.00  0.00    +0.000 C 
ATOM      3  O   UNL     1       5.472   3.097  19.747  0.00  0.00    +0.000 OA
ATOM      4  N   UNL     1       3.423   3.683  19.286  0.00  0.00    +0.000 N 
ATOM      5  H   UNL     1       3.309   3.161  20.149  0.00  0.00    +0.000 HD
BRANCH   2  10
ATOM      6  C   UNL     1       6.878   6.060  16.737  0.00  0.00    +0.000 A 
ATOM      7  C   UNL     1       6.472   5.585  15.488  0.00  0.00    +0.000 A 
ATOM      8  C   UNL     1       5.534   4.571  15.387  0.00  0.00    +0.000 A 
ATOM      9  C   UNL     1       5.013   4.021  16.558  0.00  0.00    +0.000 A 
ATOM     10  C   UNL     1       5.402   4.472  17.842  0.00  0.00    +0.000 A 
ATOM     11  C   UNL     1       6.340   5.512  17.914  0.00  0.00    +0.000 A 
BRANCH   6  13
ATOM     12  C   UNL     1       7.792   8.074  17.646  0.00  0.00    +0.000 C 
ATOM     13  O   UNL     1       7.802   7.067  16.648  0.00  0.00    +0.000 OA
ENDBRANCH   6  13
BRANCH   8  14
ATOM     14  O   UNL     1       5.214   4.192  14.116  0.00  0.00    +0.000 OA
ATOM     15  C   UNL     1       6.294   3.735  13.310  0.00  0.00    +0.000 C 
ENDBRANCH   8  14
ENDBRANCH   2  10
ENDBRANCH   1   4
BRANCH   1  16
ATOM     16  C   UNL     1       0.978   3.500  19.464  0.00  0.00    +0.000 C 
ATOM     17  C   UNL     1       0.467   2.218  18.796  0.00  0.00    +0.000 C 
ATOM     18  C   UNL     1       1.249   3.240  20.946  0.00  0.00    +0.000 C 
ENDBRANCH   1  16
BRANCH   1  19
ATOM     19  C   UNL     1       2.155   5.744  18.730  0.00  0.00    +0.000 C 
ATOM     20  O   UNL     1       2.734   6.439  17.903  0.00  0.00    +0.000 OA
BRANCH  19  21
ATOM     21  O   UNL     1       1.523   6.255  19.838  0.00  0.00    +0.000 OA
BRANCH  21  22
ATOM     22  C   UNL     1       2.180   7.380  20.453  0.00  0.00    +0.000 C 
BRANCH  22  23
ATOM     23  C   UNL     1       1.377   8.665  20.198  0.00  0.00    +0.000 C 
ATOM     24  O   UNL     1       1.520   9.279  19.141  0.00  0.00    +0.000 OA
ATOM     25  N   UNL     1       0.534   9.055  21.230  0.00  0.00    +0.000 N 
ATOM     26  H   UNL     1       0.603   8.579  22.125  0.00  0.00    +0.000 HD
BRANCH  25  27
ATOM     27  C   UNL     1      -0.350  10.169  21.195  0.00  0.00    +0.000 A 
ATOM     28  C   UNL     1      -0.821  10.734  20.000  0.00  0.00    +0.000 A 
ATOM     29  C   UNL     1      -1.666  11.849  20.014  0.00  0.00    +0.000 A 
ATOM     30  C   UNL     1      -2.054  12.401  21.227  0.00  0.00    +0.000 A 
ATOM     31  F   UNL     1      -2.854  13.475  21.230  0.00  0.00    +0.000 F 
ATOM     32  C   UNL     1      -1.620  11.842  22.423  0.00  0.00    +0.000 A 
ATOM     33  F   UNL     1      -2.007  12.380  23.589  0.00  0.00    +0.000 F 
ATOM     34  C   UNL     1      -0.782  10.729  22.403  0.00  0.00    +0.000 A 
ATOM     35  F   UNL     1      -0.365  10.196  23.564  0.00  0.00    +0.000 F 
ENDBRANCH  25  27
ENDBRANCH  22  23
ENDBRANCH  21  22
ENDBRANCH  19  21
ENDBRANCH   1  19
TORSDOF 10
ENDMDL
MODEL 9
REMARK VINA RESULT:      -7.7      1.809      3.052
REMARK  Name = 
REMARK  14 active torsions:
REMARK  status: ('A' for Active; 'I' for Inactive)
REMARK    1  A    between atoms: C_1  and  O_2
REMARK    2  A    between atoms: O_2  and  C_3
REMARK    3  A    between atoms: C_5  and  O_6
REMARK    4  A    between atoms: O_6  and  C_7
REMARK    5  A    between atoms: C_9  and  C_10
REMARK    6  A    between atoms: N_12  and  C_13
REMARK    7  A    between atoms: C_13  and  C_14
REMARK    8  A    between atoms: C_13  and  C_30
REMARK    9  A    between atoms: C_14  and  O_16
REMARK   10  A    between atoms: O_16  and  C_17
REMARK   11  A    between atoms: C_17  and  C_18
REMARK   12  A    between atoms: N_20  and  C_21
REMARK   13  A    between atoms: C_30  and  C_31
REMARK   14  A    between atoms: C_30  and  C_32
REMARK                            x       y       z     vdW  Elec       q    Type
REMARK                         _______ _______ _______ _____ _____    ______ ____
ROOT
ATOM      1  C   UNL     1       2.281   4.487  18.843  0.00  0.00    +0.000 C 
ENDROOT
BRANCH   1   4
ATOM      2  C   UNL     1       4.845   3.913  19.107  0.00  0.00    +0.000 C 
ATOM      3  O   UNL     1       5.539   3.318  19.938  0.00  0.00    +0.000 OA
ATOM      4  N   UNL     1       3.522   3.974  19.436  0.00  0.00    +0.000 N 
ATOM      5  H   UNL     1       3.391   3.560  20.353  0.00  0.00    +0.000 HD
BRANCH   2  10
ATOM      6  C   UNL     1       6.404   4.510  15.624  0.00  0.00    +0.000 A 
ATOM      7  C   UNL     1       6.752   5.855  15.771  0.00  0.00    +0.000 A 
ATOM      8  C   UNL     1       6.507   6.524  16.959  0.00  0.00    +0.000 A 
ATOM      9  C   UNL     1       5.890   5.833  18.002  0.00  0.00    +0.000 A 
ATOM     10  C   UNL     1       5.518   4.471  17.890  0.00  0.00    +0.000 A 
ATOM     11  C   UNL     1       5.795   3.814  16.682  0.00  0.00    +0.000 A 
BRANCH   6  13
ATOM     12  C   UNL     1       5.684   3.830  13.448  0.00  0.00    +0.000 C 
ATOM     13  O   UNL     1       6.727   4.010  14.391  0.00  0.00    +0.000 OA
ENDBRANCH   6  13
BRANCH   8  14
ATOM     14  O   UNL     1       6.892   7.832  16.987  0.00  0.00    +0.000 OA
ATOM     15  C   UNL     1       7.999   8.141  17.826  0.00  0.00    +0.000 C 
ENDBRANCH   8  14
ENDBRANCH   2  10
ENDBRANCH   1   4
BRANCH   1  16
ATOM     16  C   UNL     1       1.073   3.759  19.483  0.00  0.00    +0.000 C 
ATOM     17  C   UNL     1       0.565   2.545  18.698  0.00  0.00    +0.000 C 
ATOM     18  C   UNL     1       1.302   3.372  20.945  0.00  0.00    +0.000 C 
ENDBRANCH   1  16
BRANCH   1  19
ATOM     19  C   UNL     1       2.258   6.045  18.908  0.00  0.00    +0.000 C 
ATOM     20  O   UNL     1       2.161   6.779  17.931  0.00  0.00    +0.000 OA
BRANCH  19  21
ATOM     21  O   UNL     1       2.481   6.506  20.182  0.00  0.00    +0.000 OA
BRANCH  21  22
ATOM     22  C   UNL     1       1.307   6.960  20.883  0.00  0.00    +0.000 C 
BRANCH  22  23
ATOM     23  C   UNL     1       1.306   8.493  20.976  0.00  0.00    +0.000 C 
ATOM     24  O   UNL     1       1.700   9.046  22.003  0.00  0.00    +0.000 OA
ATOM     25  N   UNL     1       0.824   9.157  19.856  0.00  0.00    +0.000 N 
ATOM     26  H   UNL     1       0.371   8.618  19.124  0.00  0.00    +0.000 HD
BRANCH  25  27
ATOM     27  C   UNL     1       0.788  10.569  19.689  0.00  0.00    +0.000 A 
ATOM     28  C   UNL     1      -0.032  11.409  20.457  0.00  0.00    +0.000 A 
ATOM     29  C   UNL     1      -0.056  12.791  20.238  0.00  0.00    +0.000 A 
ATOM     30  C   UNL     1       0.750  13.343  19.252  0.00  0.00    +0.000 A 
ATOM     31  F   UNL     1       0.712  14.665  19.042  0.00  0.00    +0.000 F 
ATOM     32  C   UNL     1       1.589  12.533  18.497  0.00  0.00    +0.000 A 
ATOM     33  F   UNL     1       2.369  13.079  17.552  0.00  0.00    +0.000 F 
ATOM     34  C   UNL     1       1.612  11.158  18.723  0.00  0.00    +0.000 A 
ATOM     35  F   UNL     1       2.425  10.382  17.987  0.00  0.00    +0.000 F 
ENDBRANCH  25  27
ENDBRANCH  22  23
ENDBRANCH  21  22
ENDBRANCH  19  21
ENDBRANCH   1  19
TORSDOF 10
ENDMDL
