MODEL 1
REMARK VINA RESULT:      -8.7      0.000      0.000
REMARK  Name = 
REMARK  4 active torsions:
REMARK  status: ('A' for Active; 'I' for Inactive)
REMARK    1  A    between atoms: C_2  and  C_3
REMARK    2  A    between atoms: C_2  and  C_15
REMARK    3  A    between atoms: C_4  and  C_5
REMARK    4  A    between atoms: C_9  and  C_10
REMARK                            x       y       z     vdW  Elec       q    Type
REMARK                         _______ _______ _______ _____ _____    ______ ____
ROOT
ATOM      1  C   UNL     1       8.073   7.806  18.168  0.00  0.00    +0.000 C 
ATOM      2  C   UNL     1       8.214   9.065  17.744  0.00  0.00    +0.000 C 
ENDROOT
BRANCH   2   3
ATOM      3  C   UNL     1       8.992  10.065  18.484  0.00  0.00    +0.000 A 
ATOM      4  C   UNL     1       8.975  10.035  19.881  0.00  0.00    +0.000 A 
ATOM      5  C   UNL     1       9.656  11.005  20.617  0.00  0.00    +0.000 A 
ATOM      6  C   UNL     1      10.358  12.019  19.963  0.00  0.00    +0.000 A 
ATOM      7  C   UNL     1      10.384  12.076  18.568  0.00  0.00    +0.000 A 
ATOM      8  C   UNL     1       9.689  11.097  17.834  0.00  0.00    +0.000 A 
BRANCH   7   9
ATOM      9  C   UNL     1      11.124  13.165  17.833  0.00  0.00    +0.000 C 
ATOM     10  F   UNL     1      10.307  14.039  17.184  0.00  0.00    +0.000 F 
ATOM     11  F   UNL     1      11.895  13.918  18.665  0.00  0.00    +0.000 F 
ATOM     12  F   UNL     1      11.972  12.673  16.888  0.00  0.00    +0.000 F 
ENDBRANCH   7   9
ENDBRANCH   2   3
BRANCH   1  14
ATOM     13  O   UNL     1       7.720   6.540  16.182  0.00  0.00    +0.000 OA
ATOM     14  C   UNL     1       7.368   6.809  17.321  0.00  0.00    +0.000 C 
BRANCH  14  15
ATOM     15  C   UNL     1       6.145   6.225  17.914  0.00  0.00    +0.000 A 
ATOM     16  C   UNL     1       4.853   6.668  17.518  0.00  0.00    +0.000 A 
ATOM     17  C   UNL     1       3.717   5.950  17.888  0.00  0.00    +0.000 A 
ATOM     18  C   UNL     1       3.913   4.806  18.624  0.00  0.00    +0.000 A 
ATOM     19  C   UNL     1       5.160   4.429  19.081  0.00  0.00    +0.000 A 
ATOM     20  C   UNL     1       6.297   5.139  18.776  0.00  0.00    +0.000 A 
ATOM     21  O   UNL     1       5.124   3.236  19.738  0.00  0.00    +0.000 OA
ATOM     22  C   UNL     1       3.816   2.790  19.329  0.00  0.00    +0.000 C 
ATOM     23  O   UNL     1       2.964   3.881  18.928  0.00  0.00    +0.000 OA
ENDBRANCH  14  15
ENDBRANCH   1  14
TORSDOF 4
ENDMDL
MODEL 2
REMARK VINA RESULT:      -8.3      5.715      7.624
REMARK  Name = 
REMARK  4 active torsions:
REMARK  status: ('A' for Active; 'I' for Inactive)
REMARK    1  A    between atoms: C_2  and  C_3
REMARK    2  A    between atoms: C_2  and  C_15
REMARK    3  A    between atoms: C_4  and  C_5
REMARK    4  A    between atoms: C_9  and  C_10
REMARK                            x       y       z     vdW  Elec       q    Type
REMARK                         _______ _______ _______ _____ _____    ______ ____
ROOT
ATOM      1  C   UNL     1       1.917   5.419  18.151  0.00  0.00    +0.000 C 
ATOM      2  C   UNL     1       2.541   6.593  18.017  0.00  0.00    +0.000 C 
ENDROOT
BRANCH   2   3
ATOM      3  C   UNL     1       1.996   7.844  18.557  0.00  0.00    +0.000 A 
ATOM      4  C   UNL     1       1.978   8.979  17.743  0.00  0.00    +0.000 A 
ATOM      5  C   UNL     1       1.520  10.199  18.242  0.00  0.00    +0.000 A 
ATOM      6  C   UNL     1       1.079  10.297  19.563  0.00  0.00    +0.000 A 
ATOM      7  C   UNL     1       1.092   9.178  20.399  0.00  0.00    +0.000 A 
ATOM      8  C   UNL     1       1.562   7.954  19.888  0.00  0.00    +0.000 A 
BRANCH   7   9
ATOM      9  C   UNL     1       0.633   9.254  21.833  0.00  0.00    +0.000 C 
ATOM     10  F   UNL     1      -0.420   8.439  22.114  0.00  0.00    +0.000 F 
ATOM     11  F   UNL     1       1.616   8.914  22.710  0.00  0.00    +0.000 F 
ATOM     12  F   UNL     1       0.239  10.510  22.188  0.00  0.00    +0.000 F 
ENDBRANCH   7   9
ENDBRANCH   2   3
BRANCH   1  14
ATOM     13  O   UNL     1       1.941   3.162  17.391  0.00  0.00    +0.000 OA
ATOM     14  C   UNL     1       2.570   4.169  17.681  0.00  0.00    +0.000 C 
BRANCH  14  15
ATOM     15  C   UNL     1       4.049   4.189  17.677  0.00  0.00    +0.000 A 
ATOM     16  C   UNL     1       4.782   4.089  16.462  0.00  0.00    +0.000 A 
ATOM     17  C   UNL     1       6.148   4.358  16.439  0.00  0.00    +0.000 A 
ATOM     18  C   UNL     1       6.732   4.735  17.625  0.00  0.00    +0.000 A 
ATOM     19  C   UNL     1       6.036   4.744  18.817  0.00  0.00    +0.000 A 
ATOM     20  C   UNL     1       4.698   4.438  18.886  0.00  0.00    +0.000 A 
ATOM     21  O   UNL     1       6.797   5.205  19.849  0.00  0.00    +0.000 OA
ATOM     22  C   UNL     1       7.881   5.781  19.094  0.00  0.00    +0.000 C 
ATOM     23  O   UNL     1       7.998   5.207  17.776  0.00  0.00    +0.000 OA
ENDBRANCH  14  15
ENDBRANCH   1  14
TORSDOF 4
ENDMDL
MODEL 3
REMARK VINA RESULT:      -8.3      6.766      7.950
REMARK  Name = 
REMARK  4 active torsions:
REMARK  status: ('A' for Active; 'I' for Inactive)
REMARK    1  A    between atoms: C_2  and  C_3
REMARK    2  A    between atoms: C_2  and  C_15
REMARK    3  A    between atoms: C_4  and  C_5
REMARK    4  A    between atoms: C_9  and  C_10
REMARK                            x       y       z     vdW  Elec       q    Type
REMARK                         _______ _______ _______ _____ _____    ______ ____
ROOT
ATOM      1  C   UNL     1       6.824   4.612  17.075  0.00  0.00    +0.000 C 
ATOM      2  C   UNL     1       6.066   5.059  16.069  0.00  0.00    +0.000 C 
ENDROOT
BRANCH   2   3
ATOM      3  C   UNL     1       6.351   4.744  14.665  0.00  0.00    +0.000 A 
ATOM      4  C   UNL     1       7.556   5.179  14.107  0.00  0.00    +0.000 A 
ATOM      5  C   UNL     1       7.834   4.947  12.759  0.00  0.00    +0.000 A 
ATOM      6  C   UNL     1       6.907   4.282  11.954  0.00  0.00    +0.000 A 
ATOM      7  C   UNL     1       5.692   3.844  12.486  0.00  0.00    +0.000 A 
ATOM      8  C   UNL     1       5.418   4.088  13.845  0.00  0.00    +0.000 A 
BRANCH   7   9
ATOM      9  C   UNL     1       4.667   3.134  11.640  0.00  0.00    +0.000 C 
ATOM     10  F   UNL     1       5.086   1.929  11.168  0.00  0.00    +0.000 F 
ATOM     11  F   UNL     1       3.514   2.889  12.322  0.00  0.00    +0.000 F 
ATOM     12  F   UNL     1       4.302   3.858  10.545  0.00  0.00    +0.000 F 
ENDBRANCH   7   9
ENDBRANCH   2   3
BRANCH   1  14
ATOM     13  O   UNL     1       7.231   5.141  19.361  0.00  0.00    +0.000 OA
ATOM     14  C   UNL     1       6.424   4.870  18.483  0.00  0.00    +0.000 C 
BRANCH  14  15
ATOM     15  C   UNL     1       4.987   4.685  18.778  0.00  0.00    +0.000 A 
ATOM     16  C   UNL     1       4.058   5.747  18.604  0.00  0.00    +0.000 A 
ATOM     17  C   UNL     1       2.688   5.498  18.641  0.00  0.00    +0.000 A 
ATOM     18  C   UNL     1       2.294   4.196  18.835  0.00  0.00    +0.000 A 
ATOM     19  C   UNL     1       3.197   3.184  19.092  0.00  0.00    +0.000 A 
ATOM     20  C   UNL     1       4.554   3.401  19.110  0.00  0.00    +0.000 A 
ATOM     21  O   UNL     1       2.589   1.969  19.192  0.00  0.00    +0.000 OA
ATOM     22  C   UNL     1       1.303   2.311  18.635  0.00  0.00    +0.000 C 
ATOM     23  O   UNL     1       1.023   3.722  18.726  0.00  0.00    +0.000 OA
ENDBRANCH  14  15
ENDBRANCH   1  14
TORSDOF 4
ENDMDL
MODEL 4
REMARK VINA RESULT:      -8.3      7.248      9.326
REMARK  Name = 
REMARK  4 active torsions:
REMARK  status: ('A' for Active; 'I' for Inactive)
REMARK    1  A    between atoms: C_2  and  C_3
REMARK    2  A    between atoms: C_2  and  C_15
REMARK    3  A    between atoms: C_4  and  C_5
REMARK    4  A    between atoms: C_9  and  C_10
REMARK                            x       y       z     vdW  Elec       q    Type
REMARK                         _______ _______ _______ _____ _____    ______ ____
ROOT
ATOM      1  C   UNL     1       2.138   7.792  18.056  0.00  0.00    +0.000 C 
ATOM      2  C   UNL     1       3.426   7.569  17.778  0.00  0.00    +0.000 C 
ENDROOT
BRANCH   2   3
ATOM      3  C   UNL     1       3.933   6.249  17.388  0.00  0.00    +0.000 A 
ATOM      4  C   UNL     1       4.941   6.171  16.422  0.00  0.00    +0.000 A 
ATOM      5  C   UNL     1       5.406   4.930  15.986  0.00  0.00    +0.000 A 
ATOM      6  C   UNL     1       4.866   3.753  16.508  0.00  0.00    +0.000 A 
ATOM      7  C   UNL     1       3.854   3.804  17.468  0.00  0.00    +0.000 A 
ATOM      8  C   UNL     1       3.386   5.060  17.897  0.00  0.00    +0.000 A 
BRANCH   7   9
ATOM      9  C   UNL     1       3.242   2.551  18.042  0.00  0.00    +0.000 C 
ATOM     10  F   UNL     1       3.832   1.404  17.606  0.00  0.00    +0.000 F 
ATOM     11  F   UNL     1       3.314   2.516  19.401  0.00  0.00    +0.000 F 
ATOM     12  F   UNL     1       1.920   2.430  17.738  0.00  0.00    +0.000 F 
ENDBRANCH   7   9
ENDBRANCH   2   3
BRANCH   1  14
ATOM     13  O   UNL     1       1.889  10.114  17.591  0.00  0.00    +0.000 OA
ATOM     14  C   UNL     1       1.663   9.172  18.337  0.00  0.00    +0.000 C 
BRANCH  14  15
ATOM     15  C   UNL     1       0.976   9.355  19.633  0.00  0.00    +0.000 A 
ATOM     16  C   UNL     1       1.389   8.642  20.792  0.00  0.00    +0.000 A 
ATOM     17  C   UNL     1       0.909   9.000  22.049  0.00  0.00    +0.000 A 
ATOM     18  C   UNL     1       0.047  10.069  22.108  0.00  0.00    +0.000 A 
ATOM     19  C   UNL     1      -0.421  10.700  20.973  0.00  0.00    +0.000 A 
ATOM     20  C   UNL     1      -0.006  10.343  19.713  0.00  0.00    +0.000 A 
ATOM     21  O   UNL     1      -1.216  11.766  21.271  0.00  0.00    +0.000 OA
ATOM     22  C   UNL     1      -0.896  11.904  22.670  0.00  0.00    +0.000 C 
ATOM     23  O   UNL     1      -0.389  10.681  23.241  0.00  0.00    +0.000 OA
ENDBRANCH  14  15
ENDBRANCH   1  14
TORSDOF 4
ENDMDL
MODEL 5
REMARK VINA RESULT:      -8.3      7.498      8.906
REMARK  Name = 
REMARK  4 active torsions:
REMARK  status: ('A' for Active; 'I' for Inactive)
REMARK    1  A    between atoms: C_2  and  C_3
REMARK    2  A    between atoms: C_2  and  C_15
REMARK    3  A    between atoms: C_4  and  C_5
REMARK    4  A    between atoms: C_9  and  C_10
REMARK                            x       y       z     vdW  Elec       q    Type
REMARK                         _______ _______ _______ _____ _____    ______ ____
ROOT
ATOM      1  C   UNL     1       1.903   8.377  17.689  0.00  0.00    +0.000 C 
ATOM      2  C   UNL     1       1.607   9.330  18.579  0.00  0.00    +0.000 C 
ENDROOT
BRANCH   2   3
ATOM      3  C   UNL     1       0.449  10.217  18.430  0.00  0.00    +0.000 A 
ATOM      4  C   UNL     1       0.499  11.493  18.999  0.00  0.00    +0.000 A 
ATOM      5  C   UNL     1      -0.606  12.342  18.927  0.00  0.00    +0.000 A 
ATOM      6  C   UNL     1      -1.775  11.922  18.289  0.00  0.00    +0.000 A 
ATOM      7  C   UNL     1      -1.853  10.650  17.719  0.00  0.00    +0.000 A 
ATOM      8  C   UNL     1      -0.735   9.798  17.803  0.00  0.00    +0.000 A 
BRANCH   7   9
ATOM      9  C   UNL     1      -3.105  10.164  17.034  0.00  0.00    +0.000 C 
ATOM     10  F   UNL     1      -3.928  11.166  16.623  0.00  0.00    +0.000 F 
ATOM     11  F   UNL     1      -2.832   9.423  15.925  0.00  0.00    +0.000 F 
ATOM     12  F   UNL     1      -3.861   9.364  17.837  0.00  0.00    +0.000 F 
ENDBRANCH   7   9
ENDBRANCH   2   3
BRANCH   1  14
ATOM     13  O   UNL     1       4.160   7.633  17.544  0.00  0.00    +0.000 OA
ATOM     14  C   UNL     1       3.023   7.436  17.948  0.00  0.00    +0.000 C 
BRANCH  14  15
ATOM     15  C   UNL     1       2.654   6.188  18.650  0.00  0.00    +0.000 A 
ATOM     16  C   UNL     1       2.248   6.203  20.013  0.00  0.00    +0.000 A 
ATOM     17  C   UNL     1       1.667   5.075  20.588  0.00  0.00    +0.000 A 
ATOM     18  C   UNL     1       1.497   3.978  19.779  0.00  0.00    +0.000 A 
ATOM     19  C   UNL     1       1.973   3.937  18.484  0.00  0.00    +0.000 A 
ATOM     20  C   UNL     1       2.593   5.014  17.898  0.00  0.00    +0.000 A 
ATOM     21  O   UNL     1       1.640   2.776  17.853  0.00  0.00    +0.000 OA
ATOM     22  C   UNL     1       0.643   2.293  18.775  0.00  0.00    +0.000 C 
ATOM     23  O   UNL     1       0.797   2.855  20.094  0.00  0.00    +0.000 OA
ENDBRANCH  14  15
ENDBRANCH   1  14
TORSDOF 4
ENDMDL
MODEL 6
REMARK VINA RESULT:      -8.2      1.018      1.223
REMARK  Name = 
REMARK  4 active torsions:
REMARK  status: ('A' for Active; 'I' for Inactive)
REMARK    1  A    between atoms: C_2  and  C_3
REMARK    2  A    between atoms: C_2  and  C_15
REMARK    3  A    between atoms: C_4  and  C_5
REMARK    4  A    between atoms: C_9  and  C_10
REMARK                            x       y       z     vdW  Elec       q    Type
REMARK                         _______ _______ _______ _____ _____    ______ ____
ROOT
ATOM      1  C   UNL     1       7.876   7.738  18.038  0.00  0.00    +0.000 C 
ATOM      2  C   UNL     1       7.879   8.993  17.580  0.00  0.00    +0.000 C 
ENDROOT
BRANCH   2   3
ATOM      3  C   UNL     1       8.560  10.089  18.279  0.00  0.00    +0.000 A 
ATOM      4  C   UNL     1       9.279   9.802  19.442  0.00  0.00    +0.000 A 
ATOM      5  C   UNL     1       9.891  10.828  20.164  0.00  0.00    +0.000 A 
ATOM      6  C   UNL     1       9.787  12.151  19.732  0.00  0.00    +0.000 A 
ATOM      7  C   UNL     1       9.068  12.464  18.577  0.00  0.00    +0.000 A 
ATOM      8  C   UNL     1       8.448  11.424  17.859  0.00  0.00    +0.000 A 
BRANCH   7   9
ATOM      9  C   UNL     1       8.927  13.884  18.091  0.00  0.00    +0.000 C 
ATOM     10  F   UNL     1       7.854  14.081  17.277  0.00  0.00    +0.000 F 
ATOM     11  F   UNL     1       8.788  14.770  19.116  0.00  0.00    +0.000 F 
ATOM     12  F   UNL     1      10.014  14.304  17.385  0.00  0.00    +0.000 F 
ENDBRANCH   7   9
ENDBRANCH   2   3
BRANCH   1  14
ATOM     13  O   UNL     1       7.693   6.318  16.135  0.00  0.00    +0.000 OA
ATOM     14  C   UNL     1       7.264   6.650  17.231  0.00  0.00    +0.000 C 
BRANCH  14  15
ATOM     15  C   UNL     1       6.036   6.053  17.798  0.00  0.00    +0.000 A 
ATOM     16  C   UNL     1       4.749   6.430  17.326  0.00  0.00    +0.000 A 
ATOM     17  C   UNL     1       3.623   5.691  17.681  0.00  0.00    +0.000 A 
ATOM     18  C   UNL     1       3.823   4.592  18.482  0.00  0.00    +0.000 A 
ATOM     19  C   UNL     1       5.060   4.283  19.011  0.00  0.00    +0.000 A 
ATOM     20  C   UNL     1       6.185   5.016  18.720  0.00  0.00    +0.000 A 
ATOM     21  O   UNL     1       5.035   3.122  19.725  0.00  0.00    +0.000 OA
ATOM     22  C   UNL     1       3.762   2.610  19.283  0.00  0.00    +0.000 C 
ATOM     23  O   UNL     1       2.893   3.649  18.790  0.00  0.00    +0.000 OA
ENDBRANCH  14  15
ENDBRANCH   1  14
TORSDOF 4
ENDMDL
MODEL 7
REMARK VINA RESULT:      -8.2      7.019      8.147
REMARK  Name = 
REMARK  4 active torsions:
REMARK  status: ('A' for Active; 'I' for Inactive)
REMARK    1  A    between atoms: C_2  and  C_3
REMARK    2  A    between atoms: C_2  and  C_15
REMARK    3  A    between atoms: C_4  and  C_5
REMARK    4  A    between atoms: C_9  and  C_10
REMARK                            x       y       z     vdW  Elec       q    Type
REMARK                         _______ _______ _______ _____ _____    ______ ____
ROOT
ATOM      1  C   UNL     1       6.347   4.205  16.981  0.00  0.00    +0.000 C 
ATOM      2  C   UNL     1       5.963   4.990  15.969  0.00  0.00    +0.000 C 
ENDROOT
BRANCH   2   3
ATOM      3  C   UNL     1       6.283   4.689  14.570  0.00  0.00    +0.000 A 
ATOM      4  C   UNL     1       7.497   5.140  14.043  0.00  0.00    +0.000 A 
ATOM      5  C   UNL     1       7.808   4.922  12.701  0.00  0.00    +0.000 A 
ATOM      6  C   UNL     1       6.907   4.254  11.869  0.00  0.00    +0.000 A 
ATOM      7  C   UNL     1       5.685   3.800  12.369  0.00  0.00    +0.000 A 
ATOM      8  C   UNL     1       5.377   4.031  13.723  0.00  0.00    +0.000 A 
BRANCH   7   9
ATOM      9  C   UNL     1       4.686   3.086  11.494  0.00  0.00    +0.000 C 
ATOM     10  F   UNL     1       3.473   2.903  12.084  0.00  0.00    +0.000 F 
ATOM     11  F   UNL     1       4.443   3.757  10.335  0.00  0.00    +0.000 F 
ATOM     12  F   UNL     1       5.112   1.847  11.122  0.00  0.00    +0.000 F 
ENDBRANCH   7   9
ENDBRANCH   2   3
BRANCH   1  14
ATOM     13  O   UNL     1       6.620   5.038  19.194  0.00  0.00    +0.000 OA
ATOM     14  C   UNL     1       5.899   4.500  18.366  0.00  0.00    +0.000 C 
BRANCH  14  15
ATOM     15  C   UNL     1       4.547   4.012  18.714  0.00  0.00    +0.000 A 
ATOM     16  C   UNL     1       3.955   2.926  18.013  0.00  0.00    +0.000 A 
ATOM     17  C   UNL     1       2.803   2.314  18.502  0.00  0.00    +0.000 A 
ATOM     18  C   UNL     1       2.292   2.798  19.682  0.00  0.00    +0.000 A 
ATOM     19  C   UNL     1       2.817   3.909  20.312  0.00  0.00    +0.000 A 
ATOM     20  C   UNL     1       3.925   4.566  19.833  0.00  0.00    +0.000 A 
ATOM     21  O   UNL     1       2.191   4.171  21.493  0.00  0.00    +0.000 OA
ATOM     22  C   UNL     1       1.487   2.924  21.660  0.00  0.00    +0.000 C 
ATOM     23  O   UNL     1       1.292   2.232  20.410  0.00  0.00    +0.000 OA
ENDBRANCH  14  15
ENDBRANCH   1  14
TORSDOF 4
ENDMDL
MODEL 8
REMARK VINA RESULT:      -8.2      6.448      8.610
REMARK  Name = 
REMARK  4 active torsions:
REMARK  status: ('A' for Active; 'I' for Inactive)
REMARK    1  A    between atoms: C_2  and  C_3
REMARK    2  A    between atoms: C_2  and  C_15
REMARK    3  A    between atoms: C_4  and  C_5
REMARK    4  A    between atoms: C_9  and  C_10
REMARK                            x       y       z     vdW  Elec       q    Type
REMARK                         _______ _______ _______ _____ _____    ______ ____
ROOT
ATOM      1  C   UNL     1       1.949   7.932  18.137  0.00  0.00    +0.000 C 
ATOM      2  C   UNL     1       3.217   7.541  17.978  0.00  0.00    +0.000 C 
ENDROOT
BRANCH   2   3
ATOM      3  C   UNL     1       3.579   6.197  17.515  0.00  0.00    +0.000 A 
ATOM      4  C   UNL     1       2.786   5.113  17.904  0.00  0.00    +0.000 A 
ATOM      5  C   UNL     1       3.133   3.815  17.530  0.00  0.00    +0.000 A 
ATOM      6  C   UNL     1       4.278   3.586  16.765  0.00  0.00    +0.000 A 
ATOM      7  C   UNL     1       5.090   4.650  16.369  0.00  0.00    +0.000 A 
ATOM      8  C   UNL     1       4.736   5.956  16.757  0.00  0.00    +0.000 A 
BRANCH   7   9
ATOM      9  C   UNL     1       6.339   4.434  15.553  0.00  0.00    +0.000 C 
ATOM     10  F   UNL     1       6.625   5.461  14.707  0.00  0.00    +0.000 F 
ATOM     11  F   UNL     1       7.444   4.270  16.332  0.00  0.00    +0.000 F 
ATOM     12  F   UNL     1       6.267   3.317  14.775  0.00  0.00    +0.000 F 
ENDBRANCH   7   9
ENDBRANCH   2   3
BRANCH   1  14
ATOM     13  O   UNL     1       2.035  10.293  17.846  0.00  0.00    +0.000 OA
ATOM     14  C   UNL     1       1.642   9.339  18.501  0.00  0.00    +0.000 C 
BRANCH  14  15
ATOM     15  C   UNL     1       0.904   9.519  19.770  0.00  0.00    +0.000 A 
ATOM     16  C   UNL     1       1.241   8.768  20.930  0.00  0.00    +0.000 A 
ATOM     17  C   UNL     1       0.717   9.117  22.172  0.00  0.00    +0.000 A 
ATOM     18  C   UNL     1      -0.110  10.213  22.217  0.00  0.00    +0.000 A 
ATOM     19  C   UNL     1      -0.506  10.884  21.077  0.00  0.00    +0.000 A 
ATOM     20  C   UNL     1      -0.047  10.539  19.828  0.00  0.00    +0.000 A 
ATOM     21  O   UNL     1      -1.276  11.970  21.364  0.00  0.00    +0.000 OA
ATOM     22  C   UNL     1      -1.015  12.068  22.778  0.00  0.00    +0.000 C 
ATOM     23  O   UNL     1      -0.575  10.817  23.344  0.00  0.00    +0.000 OA
ENDBRANCH  14  15
ENDBRANCH   1  14
TORSDOF 4
ENDMDL
MODEL 9
REMARK VINA RESULT:      -8.2      7.456      8.682
REMARK  Name = 
REMARK  4 active torsions:
REMARK  status: ('A' for Active; 'I' for Inactive)
REMARK    1  A    between atoms: C_2  and  C_3
REMARK    2  A    between atoms: C_2  and  C_15
REMARK    3  A    between atoms: C_4  and  C_5
REMARK    4  A    between atoms: C_9  and  C_10
REMARK                            x       y       z     vdW  Elec       q    Type
REMARK                         _______ _______ _______ _____ _____    ______ ____
ROOT
ATOM      1  C   UNL     1       1.912   8.230  17.777  0.00  0.00    +0.000 C 
ATOM      2  C   UNL     1       1.589   9.086  18.751  0.00  0.00    +0.000 C 
ENDROOT
BRANCH   2   3
ATOM      3  C   UNL     1       0.562  10.121  18.587  0.00  0.00    +0.000 A 
ATOM      4  C   UNL     1       0.669  11.301  19.327  0.00  0.00    +0.000 A 
ATOM      5  C   UNL     1      -0.320  12.281  19.239  0.00  0.00    +0.000 A 
ATOM      6  C   UNL     1      -1.429  12.089  18.412  0.00  0.00    +0.000 A 
ATOM      7  C   UNL     1      -1.562  10.916  17.667  0.00  0.00    +0.000 A 
ATOM      8  C   UNL     1      -0.563   9.930  17.768  0.00  0.00    +0.000 A 
BRANCH   7   9
ATOM      9  C   UNL     1      -2.753  10.674  16.775  0.00  0.00    +0.000 C 
ATOM     10  F   UNL     1      -3.725  11.620  16.890  0.00  0.00    +0.000 F 
ATOM     11  F   UNL     1      -2.413  10.644  15.457  0.00  0.00    +0.000 F 
ATOM     12  F   UNL     1      -3.360   9.481  17.027  0.00  0.00    +0.000 F 
ENDBRANCH   7   9
ENDBRANCH   2   3
BRANCH   1  14
ATOM     13  O   UNL     1       4.063   7.211  17.739  0.00  0.00    +0.000 OA
ATOM     14  C   UNL     1       2.880   7.134  18.037  0.00  0.00    +0.000 C 
BRANCH  14  15
ATOM     15  C   UNL     1       2.300   5.894  18.598  0.00  0.00    +0.000 A 
ATOM     16  C   UNL     1       1.849   4.845  17.751  0.00  0.00    +0.000 A 
ATOM     17  C   UNL     1       1.541   3.594  18.281  0.00  0.00    +0.000 A 
ATOM     18  C   UNL     1       1.709   3.430  19.635  0.00  0.00    +0.000 A 
ATOM     19  C   UNL     1       2.060   4.476  20.465  0.00  0.00    +0.000 A 
ATOM     20  C   UNL     1       2.327   5.735  19.984  0.00  0.00    +0.000 A 
ATOM     21  O   UNL     1       2.227   4.070  21.755  0.00  0.00    +0.000 OA
ATOM     22  C   UNL     1       2.275   2.645  21.542  0.00  0.00    +0.000 C 
ATOM     23  O   UNL     1       1.636   2.252  20.311  0.00  0.00    +0.000 OA
ENDBRANCH  14  15
ENDBRANCH   1  14
TORSDOF 4
ENDMDL
