MODEL 1
REMARK VINA RESULT:      -9.3      0.000      0.000
REMARK  Name = 
REMARK  1 active torsions:
REMARK  status: ('A' for Active; 'I' for Inactive)
REMARK    1  A    between atoms: C_4  and  C_5
REMARK                            x       y       z     vdW  Elec       q    Type
REMARK                         _______ _______ _______ _____ _____    ______ ____
ROOT
ATOM      1  C   UNL     1       4.161   3.706  18.407  0.00  0.00    +0.000 A 
ATOM      2  N   UNL     1       3.939   2.461  18.805  0.00  0.00    +0.000 NA
ATOM      3  N   UNL     1       2.971   2.472  19.778  0.00  0.00    +0.000 NA
ATOM      4  C   UNL     1       2.598   3.720  19.944  0.00  0.00    +0.000 A 
ATOM      5  C   UNL     1       1.658   4.311  20.801  0.00  0.00    +0.000 A 
ATOM      6  C   UNL     1       1.459   5.631  20.727  0.00  0.00    +0.000 A 
ATOM      7  C   UNL     1       2.237   6.447  19.729  0.00  0.00    +0.000 A 
ATOM      8  N   UNL     1       2.000   7.812  19.645  0.00  0.00    +0.000 N 
ATOM      9  C   UNL     1       1.640   8.652  20.787  0.00  0.00    +0.000 C 
ATOM     10  C   UNL     1       0.303   9.324  20.508  0.00  0.00    +0.000 C 
ATOM     11  C   UNL     1       0.370  10.120  19.205  0.00  0.00    +0.000 C 
ATOM     12  C   UNL     1       0.875   9.257  18.046  0.00  0.00    +0.000 C 
ATOM     13  C   UNL     1       2.187   8.560  18.399  0.00  0.00    +0.000 C 
ATOM     14  O   UNL     1       1.243  11.248  19.398  0.00  0.00    +0.000 OA
ATOM     15  C   UNL     1       0.537  12.359  18.847  0.00  0.00    +0.000 C 
ATOM     16  C   UNL     1      -0.907  12.006  19.068  0.00  0.00    +0.000 C 
ATOM     17  O   UNL     1      -0.947  10.593  18.872  0.00  0.00    +0.000 OA
ATOM     18  N   UNL     1       3.113   5.901  18.923  0.00  0.00    +0.000 NA
ATOM     19  N   UNL     1       3.284   4.546  19.077  0.00  0.00    +0.000 N 
ENDROOT
BRANCH   1  23
ATOM     20  C   UNL     1       7.114   4.708  15.478  0.00  0.00    +0.000 A 
ATOM     21  C   UNL     1       5.813   4.394  15.093  0.00  0.00    +0.000 A 
ATOM     22  C   UNL     1       4.855   4.088  16.062  0.00  0.00    +0.000 A 
ATOM     23  C   UNL     1       5.178   4.100  17.429  0.00  0.00    +0.000 A 
ATOM     24  C   UNL     1       6.492   4.420  17.799  0.00  0.00    +0.000 A 
ATOM     25  C   UNL     1       7.454   4.721  16.830  0.00  0.00    +0.000 A 
ENDBRANCH   1  23
TORSDOF 1
ENDMDL
MODEL 2
REMARK VINA RESULT:      -8.1      4.057      6.580
REMARK  Name = 
REMARK  1 active torsions:
REMARK  status: ('A' for Active; 'I' for Inactive)
REMARK    1  A    between atoms: C_4  and  C_5
REMARK                            x       y       z     vdW  Elec       q    Type
REMARK                         _______ _______ _______ _____ _____    ______ ____
ROOT
ATOM      1  C   UNL     1       6.597   4.324  13.437  0.00  0.00    +0.000 A 
ATOM      2  N   UNL     1       7.770   4.872  13.149  0.00  0.00    +0.000 NA
ATOM      3  N   UNL     1       8.166   5.653  14.206  0.00  0.00    +0.000 NA
ATOM      4  C   UNL     1       7.243   5.553  15.133  0.00  0.00    +0.000 A 
ATOM      5  C   UNL     1       7.126   6.134  16.405  0.00  0.00    +0.000 A 
ATOM      6  C   UNL     1       6.071   5.820  17.163  0.00  0.00    +0.000 A 
ATOM      7  C   UNL     1       5.042   4.851  16.642  0.00  0.00    +0.000 A 
ATOM      8  N   UNL     1       3.967   4.512  17.451  0.00  0.00    +0.000 N 
ATOM      9  C   UNL     1       3.336   5.429  18.400  0.00  0.00    +0.000 C 
ATOM     10  C   UNL     1       3.406   4.826  19.796  0.00  0.00    +0.000 C 
ATOM     11  C   UNL     1       2.755   3.444  19.810  0.00  0.00    +0.000 C 
ATOM     12  C   UNL     1       3.337   2.539  18.722  0.00  0.00    +0.000 C 
ATOM     13  C   UNL     1       3.296   3.214  17.353  0.00  0.00    +0.000 C 
ATOM     14  O   UNL     1       1.337   3.599  19.617  0.00  0.00    +0.000 OA
ATOM     15  C   UNL     1       0.736   2.768  20.609  0.00  0.00    +0.000 C 
ATOM     16  C   UNL     1       1.725   2.796  21.741  0.00  0.00    +0.000 C 
ATOM     17  O   UNL     1       2.992   2.823  21.086  0.00  0.00    +0.000 OA
ATOM     18  N   UNL     1       5.148   4.301  15.458  0.00  0.00    +0.000 NA
ATOM     19  N   UNL     1       6.243   4.695  14.727  0.00  0.00    +0.000 N 
ENDROOT
BRANCH   1  23
ATOM     20  C   UNL     1       4.458   1.878  10.655  0.00  0.00    +0.000 A 
ATOM     21  C   UNL     1       5.714   1.492  11.118  0.00  0.00    +0.000 A 
ATOM     22  C   UNL     1       6.392   2.292  12.041  0.00  0.00    +0.000 A 
ATOM     23  C   UNL     1       5.823   3.481  12.523  0.00  0.00    +0.000 A 
ATOM     24  C   UNL     1       4.557   3.853  12.050  0.00  0.00    +0.000 A 
ATOM     25  C   UNL     1       3.879   3.057  11.121  0.00  0.00    +0.000 A 
ENDBRANCH   1  23
TORSDOF 1
ENDMDL
MODEL 3
REMARK VINA RESULT:      -8.0      3.034      4.875
REMARK  Name = 
REMARK  1 active torsions:
REMARK  status: ('A' for Active; 'I' for Inactive)
REMARK    1  A    between atoms: C_4  and  C_5
REMARK                            x       y       z     vdW  Elec       q    Type
REMARK                         _______ _______ _______ _____ _____    ______ ____
ROOT
ATOM      1  C   UNL     1       2.648   6.083  18.776  0.00  0.00    +0.000 A 
ATOM      2  N   UNL     1       3.635   6.011  17.894  0.00  0.00    +0.000 NA
ATOM      3  N   UNL     1       3.807   7.245  17.318  0.00  0.00    +0.000 NA
ATOM      4  C   UNL     1       2.940   8.059  17.872  0.00  0.00    +0.000 A 
ATOM      5  C   UNL     1       2.668   9.420  17.668  0.00  0.00    +0.000 A 
ATOM      6  C   UNL     1       1.731  10.011  18.415  0.00  0.00    +0.000 A 
ATOM      7  C   UNL     1       0.997   9.210  19.459  0.00  0.00    +0.000 A 
ATOM      8  N   UNL     1       0.046   9.843  20.247  0.00  0.00    +0.000 N 
ATOM      9  C   UNL     1      -0.808  10.934  19.781  0.00  0.00    +0.000 C 
ATOM     10  C   UNL     1      -0.587  12.152  20.666  0.00  0.00    +0.000 C 
ATOM     11  C   UNL     1      -0.849  11.799  22.130  0.00  0.00    +0.000 C 
ATOM     12  C   UNL     1      -0.044  10.572  22.564  0.00  0.00    +0.000 C 
ATOM     13  C   UNL     1      -0.257   9.399  21.610  0.00  0.00    +0.000 C 
ATOM     14  O   UNL     1      -2.257  11.553  22.300  0.00  0.00    +0.000 OA
ATOM     15  C   UNL     1      -2.620  12.280  23.472  0.00  0.00    +0.000 C 
ATOM     16  C   UNL     1      -1.678  13.451  23.469  0.00  0.00    +0.000 C 
ATOM     17  O   UNL     1      -0.460  12.908  22.960  0.00  0.00    +0.000 OA
ATOM     18  N   UNL     1       1.249   7.940  19.658  0.00  0.00    +0.000 NA
ATOM     19  N   UNL     1       2.203   7.397  18.833  0.00  0.00    +0.000 N 
ENDROOT
BRANCH   1  23
ATOM     20  C   UNL     1       1.283   2.718  21.037  0.00  0.00    +0.000 A 
ATOM     21  C   UNL     1       2.086   3.690  21.628  0.00  0.00    +0.000 A 
ATOM     22  C   UNL     1       2.508   4.793  20.883  0.00  0.00    +0.000 A 
ATOM     23  C   UNL     1       2.127   4.947  19.540  0.00  0.00    +0.000 A 
ATOM     24  C   UNL     1       1.317   3.961  18.961  0.00  0.00    +0.000 A 
ATOM     25  C   UNL     1       0.898   2.853  19.704  0.00  0.00    +0.000 A 
ENDBRANCH   1  23
TORSDOF 1
ENDMDL
MODEL 4
REMARK VINA RESULT:      -7.5      1.653      2.000
REMARK  Name = 
REMARK  1 active torsions:
REMARK  status: ('A' for Active; 'I' for Inactive)
REMARK    1  A    between atoms: C_4  and  C_5
REMARK                            x       y       z     vdW  Elec       q    Type
REMARK                         _______ _______ _______ _____ _____    ______ ____
ROOT
ATOM      1  C   UNL     1       4.349   4.816  18.693  0.00  0.00    +0.000 A 
ATOM      2  N   UNL     1       4.176   3.515  18.505  0.00  0.00    +0.000 NA
ATOM      3  N   UNL     1       2.982   3.139  19.069  0.00  0.00    +0.000 NA
ATOM      4  C   UNL     1       2.432   4.219  19.572  0.00  0.00    +0.000 A 
ATOM      5  C   UNL     1       1.227   4.422  20.262  0.00  0.00    +0.000 A 
ATOM      6  C   UNL     1       0.899   5.663  20.636  0.00  0.00    +0.000 A 
ATOM      7  C   UNL     1       1.820   6.808  20.305  0.00  0.00    +0.000 A 
ATOM      8  N   UNL     1       1.453   8.095  20.675  0.00  0.00    +0.000 N 
ATOM      9  C   UNL     1       0.693   8.414  21.883  0.00  0.00    +0.000 C 
ATOM     10  C   UNL     1      -0.585   9.141  21.490  0.00  0.00    +0.000 C 
ATOM     11  C   UNL     1      -0.255  10.387  20.669  0.00  0.00    +0.000 C 
ATOM     12  C   UNL     1       0.651  10.054  19.482  0.00  0.00    +0.000 C 
ATOM     13  C   UNL     1       1.887   9.275  19.924  0.00  0.00    +0.000 C 
ATOM     14  O   UNL     1       0.388  11.347  21.528  0.00  0.00    +0.000 OA
ATOM     15  C   UNL     1      -0.265  12.585  21.252  0.00  0.00    +0.000 C 
ATOM     16  C   UNL     1      -1.661  12.173  20.876  0.00  0.00    +0.000 C 
ATOM     17  O   UNL     1      -1.476  10.953  20.160  0.00  0.00    +0.000 OA
ATOM     18  N   UNL     1       2.944   6.626  19.658  0.00  0.00    +0.000 NA
ATOM     19  N   UNL     1       3.226   5.321  19.332  0.00  0.00    +0.000 N 
ENDROOT
BRANCH   1  23
ATOM     20  C   UNL     1       7.826   7.086  17.667  0.00  0.00    +0.000 A 
ATOM     21  C   UNL     1       7.818   6.277  18.801  0.00  0.00    +0.000 A 
ATOM     22  C   UNL     1       6.682   5.526  19.111  0.00  0.00    +0.000 A 
ATOM     23  C   UNL     1       5.542   5.565  18.292  0.00  0.00    +0.000 A 
ATOM     24  C   UNL     1       5.569   6.382  17.154  0.00  0.00    +0.000 A 
ATOM     25  C   UNL     1       6.703   7.139  16.844  0.00  0.00    +0.000 A 
ENDBRANCH   1  23
TORSDOF 1
ENDMDL
MODEL 5
REMARK VINA RESULT:      -7.3      2.413      4.265
REMARK  Name = 
REMARK  1 active torsions:
REMARK  status: ('A' for Active; 'I' for Inactive)
REMARK    1  A    between atoms: C_4  and  C_5
REMARK                            x       y       z     vdW  Elec       q    Type
REMARK                         _______ _______ _______ _____ _____    ______ ____
ROOT
ATOM      1  C   UNL     1       3.268   5.128  18.803  0.00  0.00    +0.000 A 
ATOM      2  N   UNL     1       4.251   4.871  17.952  0.00  0.00    +0.000 NA
ATOM      3  N   UNL     1       4.498   5.995  17.205  0.00  0.00    +0.000 NA
ATOM      4  C   UNL     1       3.678   6.930  17.624  0.00  0.00    +0.000 A 
ATOM      5  C   UNL     1       3.488   8.260  17.220  0.00  0.00    +0.000 A 
ATOM      6  C   UNL     1       2.585   9.007  17.862  0.00  0.00    +0.000 A 
ATOM      7  C   UNL     1       1.802   8.411  19.002  0.00  0.00    +0.000 A 
ATOM      8  N   UNL     1       0.887   9.206  19.679  0.00  0.00    +0.000 N 
ATOM      9  C   UNL     1       0.100  10.266  19.048  0.00  0.00    +0.000 C 
ATOM     10  C   UNL     1       0.390  11.585  19.749  0.00  0.00    +0.000 C 
ATOM     11  C   UNL     1       0.103  11.466  21.245  0.00  0.00    +0.000 C 
ATOM     12  C   UNL     1       0.832  10.271  21.863  0.00  0.00    +0.000 C 
ATOM     13  C   UNL     1       0.554   8.985  21.088  0.00  0.00    +0.000 C 
ATOM     14  O   UNL     1      -1.317  11.329  21.432  0.00  0.00    +0.000 OA
ATOM     15  C   UNL     1      -1.641  12.240  22.482  0.00  0.00    +0.000 C 
ATOM     16  C   UNL     1      -0.632  13.342  22.318  0.00  0.00    +0.000 C 
ATOM     17  O   UNL     1       0.554  12.660  21.909  0.00  0.00    +0.000 OA
ATOM     18  N   UNL     1       1.977   7.172  19.388  0.00  0.00    +0.000 NA
ATOM     19  N   UNL     1       2.901   6.459  18.662  0.00  0.00    +0.000 N 
ENDROOT
BRANCH   1  23
ATOM     20  C   UNL     1       1.455   2.388  21.543  0.00  0.00    +0.000 A 
ATOM     21  C   UNL     1       0.677   3.095  20.629  0.00  0.00    +0.000 A 
ATOM     22  C   UNL     1       1.286   3.971  19.728  0.00  0.00    +0.000 A 
ATOM     23  C   UNL     1       2.678   4.148  19.718  0.00  0.00    +0.000 A 
ATOM     24  C   UNL     1       3.447   3.426  20.642  0.00  0.00    +0.000 A 
ATOM     25  C   UNL     1       2.839   2.553  21.549  0.00  0.00    +0.000 A 
ENDBRANCH   1  23
TORSDOF 1
ENDMDL
MODEL 6
REMARK VINA RESULT:      -7.2      1.403      1.489
REMARK  Name = 
REMARK  1 active torsions:
REMARK  status: ('A' for Active; 'I' for Inactive)
REMARK    1  A    between atoms: C_4  and  C_5
REMARK                            x       y       z     vdW  Elec       q    Type
REMARK                         _______ _______ _______ _____ _____    ______ ____
ROOT
ATOM      1  C   UNL     1       4.183   4.625  18.758  0.00  0.00    +0.000 A 
ATOM      2  N   UNL     1       3.962   3.320  18.685  0.00  0.00    +0.000 NA
ATOM      3  N   UNL     1       2.792   3.030  19.341  0.00  0.00    +0.000 NA
ATOM      4  C   UNL     1       2.303   4.164  19.786  0.00  0.00    +0.000 A 
ATOM      5  C   UNL     1       1.146   4.460  20.521  0.00  0.00    +0.000 A 
ATOM      6  C   UNL     1       0.876   5.736  20.813  0.00  0.00    +0.000 A 
ATOM      7  C   UNL     1       1.809   6.821  20.342  0.00  0.00    +0.000 A 
ATOM      8  N   UNL     1       1.502   8.144  20.628  0.00  0.00    +0.000 N 
ATOM      9  C   UNL     1       0.821   8.582  21.846  0.00  0.00    +0.000 C 
ATOM     10  C   UNL     1      -0.455   9.318  21.466  0.00  0.00    +0.000 C 
ATOM     11  C   UNL     1      -0.137  10.485  20.532  0.00  0.00    +0.000 C 
ATOM     12  C   UNL     1       0.690  10.030  19.328  0.00  0.00    +0.000 C 
ATOM     13  C   UNL     1       1.926   9.247  19.762  0.00  0.00    +0.000 C 
ATOM     14  O   UNL     1       0.582  11.487  21.275  0.00  0.00    +0.000 OA
ATOM     15  C   UNL     1      -0.050  12.721  20.937  0.00  0.00    +0.000 C 
ATOM     16  C   UNL     1      -1.477  12.328  20.673  0.00  0.00    +0.000 C 
ATOM     17  O   UNL     1      -1.368  11.050  20.046  0.00  0.00    +0.000 OA
ATOM     18  N   UNL     1       2.888   6.551  19.651  0.00  0.00    +0.000 NA
ATOM     19  N   UNL     1       3.114   5.217  19.416  0.00  0.00    +0.000 N 
ENDROOT
BRANCH   1  23
ATOM     20  C   UNL     1       7.662   6.488  17.106  0.00  0.00    +0.000 A 
ATOM     21  C   UNL     1       6.484   6.404  16.366  0.00  0.00    +0.000 A 
ATOM     22  C   UNL     1       5.351   5.811  16.927  0.00  0.00    +0.000 A 
ATOM     23  C   UNL     1       5.373   5.301  18.235  0.00  0.00    +0.000 A 
ATOM     24  C   UNL     1       6.565   5.396  18.966  0.00  0.00    +0.000 A 
ATOM     25  C   UNL     1       7.703   5.984  18.405  0.00  0.00    +0.000 A 
ENDBRANCH   1  23
TORSDOF 1
ENDMDL
MODEL 7
REMARK VINA RESULT:      -7.0      3.126      7.907
REMARK  Name = 
REMARK  1 active torsions:
REMARK  status: ('A' for Active; 'I' for Inactive)
REMARK    1  A    between atoms: C_4  and  C_5
REMARK                            x       y       z     vdW  Elec       q    Type
REMARK                         _______ _______ _______ _____ _____    ______ ____
ROOT
ATOM      1  C   UNL     1      -1.085  10.699  19.857  0.00  0.00    +0.000 A 
ATOM      2  N   UNL     1      -1.294  11.508  20.887  0.00  0.00    +0.000 NA
ATOM      3  N   UNL     1      -0.470  11.135  21.919  0.00  0.00    +0.000 NA
ATOM      4  C   UNL     1       0.248  10.120  21.499  0.00  0.00    +0.000 A 
ATOM      5  C   UNL     1       1.234   9.345  22.127  0.00  0.00    +0.000 A 
ATOM      6  C   UNL     1       1.834   8.375  21.431  0.00  0.00    +0.000 A 
ATOM      7  C   UNL     1       1.445   8.140  19.995  0.00  0.00    +0.000 A 
ATOM      8  N   UNL     1       2.095   7.147  19.275  0.00  0.00    +0.000 N 
ATOM      9  C   UNL     1       2.580   5.897  19.859  0.00  0.00    +0.000 C 
ATOM     10  C   UNL     1       4.078   5.784  19.621  0.00  0.00    +0.000 C 
ATOM     11  C   UNL     1       4.387   5.881  18.127  0.00  0.00    +0.000 C 
ATOM     12  C   UNL     1       3.760   7.130  17.504  0.00  0.00    +0.000 C 
ATOM     13  C   UNL     1       2.270   7.224  17.823  0.00  0.00    +0.000 C 
ATOM     14  O   UNL     1       3.887   4.699  17.476  0.00  0.00    +0.000 OA
ATOM     15  C   UNL     1       4.949   4.267  16.627  0.00  0.00    +0.000 C 
ATOM     16  C   UNL     1       6.187   4.708  17.357  0.00  0.00    +0.000 C 
ATOM     17  O   UNL     1       5.812   5.953  17.943  0.00  0.00    +0.000 OA
ATOM     18  N   UNL     1       0.528   8.862  19.400  0.00  0.00    +0.000 NA
ATOM     19  N   UNL     1      -0.063   9.820  20.188  0.00  0.00    +0.000 N 
ENDROOT
BRANCH   1  23
ATOM     20  C   UNL     1      -3.395  10.765  16.257  0.00  0.00    +0.000 A 
ATOM     21  C   UNL     1      -3.792  11.506  17.368  0.00  0.00    +0.000 A 
ATOM     22  C   UNL     1      -3.017  11.490  18.529  0.00  0.00    +0.000 A 
ATOM     23  C   UNL     1      -1.830  10.743  18.597  0.00  0.00    +0.000 A 
ATOM     24  C   UNL     1      -1.444  10.005  17.470  0.00  0.00    +0.000 A 
ATOM     25  C   UNL     1      -2.221  10.015  16.308  0.00  0.00    +0.000 A 
ENDBRANCH   1  23
TORSDOF 1
ENDMDL
MODEL 8
REMARK VINA RESULT:      -6.5      2.989      7.570
REMARK  Name = 
REMARK  1 active torsions:
REMARK  status: ('A' for Active; 'I' for Inactive)
REMARK    1  A    between atoms: C_4  and  C_5
REMARK                            x       y       z     vdW  Elec       q    Type
REMARK                         _______ _______ _______ _____ _____    ______ ____
ROOT
ATOM      1  C   UNL     1       0.600  10.170  20.516  0.00  0.00    +0.000 A 
ATOM      2  N   UNL     1       0.039  10.155  21.718  0.00  0.00    +0.000 NA
ATOM      3  N   UNL     1       0.153   8.894  22.246  0.00  0.00    +0.000 NA
ATOM      4  C   UNL     1       0.801   8.161  21.372  0.00  0.00    +0.000 A 
ATOM      5  C   UNL     1       1.189   6.813  21.382  0.00  0.00    +0.000 A 
ATOM      6  C   UNL     1       1.884   6.333  20.347  0.00  0.00    +0.000 A 
ATOM      7  C   UNL     1       2.240   7.246  19.203  0.00  0.00    +0.000 A 
ATOM      8  N   UNL     1       2.987   6.741  18.147  0.00  0.00    +0.000 N 
ATOM      9  C   UNL     1       2.892   5.365  17.661  0.00  0.00    +0.000 C 
ATOM     10  C   UNL     1       4.262   4.709  17.752  0.00  0.00    +0.000 C 
ATOM     11  C   UNL     1       5.293   5.525  16.974  0.00  0.00    +0.000 C 
ATOM     12  C   UNL     1       5.287   6.994  17.404  0.00  0.00    +0.000 C 
ATOM     13  C   UNL     1       3.881   7.585  17.351  0.00  0.00    +0.000 C 
ATOM     14  O   UNL     1       4.999   5.420  15.569  0.00  0.00    +0.000 OA
ATOM     15  C   UNL     1       6.254   5.147  14.948  0.00  0.00    +0.000 C 
ATOM     16  C   UNL     1       7.008   4.379  15.997  0.00  0.00    +0.000 C 
ATOM     17  O   UNL     1       6.605   4.989  17.223  0.00  0.00    +0.000 OA
ATOM     18  N   UNL     1       1.886   8.506  19.188  0.00  0.00    +0.000 NA
ATOM     19  N   UNL     1       1.149   8.919  20.272  0.00  0.00    +0.000 N 
ENDROOT
BRANCH   1  23
ATOM     20  C   UNL     1       0.679  13.636  18.011  0.00  0.00    +0.000 A 
ATOM     21  C   UNL     1       1.829  13.214  18.674  0.00  0.00    +0.000 A 
ATOM     22  C   UNL     1       1.792  12.070  19.473  0.00  0.00    +0.000 A 
ATOM     23  C   UNL     1       0.611  11.324  19.615  0.00  0.00    +0.000 A 
ATOM     24  C   UNL     1      -0.536  11.760  18.938  0.00  0.00    +0.000 A 
ATOM     25  C   UNL     1      -0.503  12.909  18.142  0.00  0.00    +0.000 A 
ENDBRANCH   1  23
TORSDOF 1
ENDMDL
MODEL 9
REMARK VINA RESULT:      -6.5      8.094     10.440
REMARK  Name = 
REMARK  1 active torsions:
REMARK  status: ('A' for Active; 'I' for Inactive)
REMARK    1  A    between atoms: C_4  and  C_5
REMARK                            x       y       z     vdW  Elec       q    Type
REMARK                         _______ _______ _______ _____ _____    ______ ____
ROOT
ATOM      1  C   UNL     1      -4.639  12.721  20.986  0.00  0.00    +0.000 A 
ATOM      2  N   UNL     1      -5.233  12.426  22.134  0.00  0.00    +0.000 NA
ATOM      3  N   UNL     1      -4.276  12.286  23.107  0.00  0.00    +0.000 NA
ATOM      4  C   UNL     1      -3.113  12.520  22.547  0.00  0.00    +0.000 A 
ATOM      5  C   UNL     1      -1.807  12.511  23.060  0.00  0.00    +0.000 A 
ATOM      6  C   UNL     1      -0.793  12.828  22.250  0.00  0.00    +0.000 A 
ATOM      7  C   UNL     1      -1.073  13.192  20.815  0.00  0.00    +0.000 A 
ATOM      8  N   UNL     1      -0.013  13.546  19.992  0.00  0.00    +0.000 N 
ATOM      9  C   UNL     1       1.331  12.978  20.097  0.00  0.00    +0.000 C 
ATOM     10  C   UNL     1       2.329  14.101  20.337  0.00  0.00    +0.000 C 
ATOM     11  C   UNL     1       2.230  15.146  19.225  0.00  0.00    +0.000 C 
ATOM     12  C   UNL     1       0.791  15.633  19.040  0.00  0.00    +0.000 C 
ATOM     13  C   UNL     1      -0.176  14.465  18.863  0.00  0.00    +0.000 C 
ATOM     14  O   UNL     1       2.716  14.564  18.002  0.00  0.00    +0.000 OA
ATOM     15  C   UNL     1       3.590  15.546  17.448  0.00  0.00    +0.000 C 
ATOM     16  C   UNL     1       4.146  16.247  18.656  0.00  0.00    +0.000 C 
ATOM     17  O   UNL     1       3.048  16.279  19.567  0.00  0.00    +0.000 OA
ATOM     18  N   UNL     1      -2.289  13.207  20.331  0.00  0.00    +0.000 NA
ATOM     19  N   UNL     1      -3.275  12.842  21.216  0.00  0.00    +0.000 N 
ENDROOT
BRANCH   1  23
ATOM     20  C   UNL     1      -6.509  13.175  17.166  0.00  0.00    +0.000 A 
ATOM     21  C   UNL     1      -5.715  12.064  17.439  0.00  0.00    +0.000 A 
ATOM     22  C   UNL     1      -5.127  11.920  18.697  0.00  0.00    +0.000 A 
ATOM     23  C   UNL     1      -5.329  12.877  19.704  0.00  0.00    +0.000 A 
ATOM     24  C   UNL     1      -6.133  13.988  19.414  0.00  0.00    +0.000 A 
ATOM     25  C   UNL     1      -6.718  14.137  18.153  0.00  0.00    +0.000 A 
ENDBRANCH   1  23
TORSDOF 1
ENDMDL
