MODEL 1
REMARK VINA RESULT:      -8.1      0.000      0.000
REMARK  Name = 
REMARK  4 active torsions:
REMARK  status: ('A' for Active; 'I' for Inactive)
REMARK    1  A    between atoms: C_2  and  C_14
REMARK    2  A    between atoms: N_3  and  C_4
REMARK    3  A    between atoms: C_16  and  O_17
REMARK    4  A    between atoms: C_20  and  O_21
REMARK                            x       y       z     vdW  Elec       q    Type
REMARK                         _______ _______ _______ _____ _____    ______ ____
ROOT
ATOM      1  O   UNL     1       4.998   5.798  16.500  0.00  0.00    +0.000 OA
ATOM      2  C   UNL     1       5.021   4.694  15.963  0.00  0.00    +0.000 C 
ATOM      3  N   UNL     1       4.382   3.590  16.474  0.00  0.00    +0.000 N 
ATOM      4  H   UNL     1       4.463   2.734  15.928  0.00  0.00    +0.000 HD
ENDROOT
BRANCH   3   5
ATOM      5  C   UNL     1       3.572   3.558  17.691  0.00  0.00    +0.000 C 
ATOM      6  C   UNL     1       2.259   4.364  17.521  0.00  0.00    +0.000 C 
ATOM      7  C   UNL     1       1.401   4.277  18.794  0.00  0.00    +0.000 C 
ATOM      8  C   UNL     1       1.046   2.807  19.067  0.00  0.00    +0.000 C 
ATOM      9  C   UNL     1       2.330   1.985  19.263  0.00  0.00    +0.000 C 
ATOM     10  C   UNL     1       3.120   2.552  20.453  0.00  0.00    +0.000 C 
ATOM     11  C   UNL     1       3.488   4.021  20.186  0.00  0.00    +0.000 C 
ATOM     12  C   UNL     1       2.201   4.838  19.982  0.00  0.00    +0.000 C 
ATOM     13  C   UNL     1       4.350   4.107  18.914  0.00  0.00    +0.000 C 
ATOM     14  C   UNL     1       3.192   2.084  17.994  0.00  0.00    +0.000 C 
ENDBRANCH   3   5
BRANCH   2  15
ATOM     15  C   UNL     1       5.783   4.511  14.686  0.00  0.00    +0.000 A 
ATOM     16  C   UNL     1       5.181   3.704  13.704  0.00  0.00    +0.000 A 
ATOM     17  C   UNL     1       5.818   3.490  12.487  0.00  0.00    +0.000 A 
ATOM     18  C   UNL     1       7.053   4.063  12.218  0.00  0.00    +0.000 A 
ATOM     19  C   UNL     1       7.669   4.862  13.181  0.00  0.00    +0.000 A 
ATOM     20  C   UNL     1       7.038   5.083  14.412  0.00  0.00    +0.000 A 
BRANCH  17  21
ATOM     21  O   UNL     1       5.254   2.713  11.518  0.00  0.00    +0.000 OA
ATOM     22  H   UNL     1       5.943   2.462  10.879  0.00  0.00    +0.000 HD
ENDBRANCH  17  21
BRANCH  20  23
ATOM     23  O   UNL     1       7.676   5.866  15.339  0.00  0.00    +0.000 OA
ATOM     24  H   UNL     1       7.454   5.541  16.230  0.00  0.00    +0.000 HD
ENDBRANCH  20  23
ENDBRANCH   2  15
TORSDOF 4
ENDMDL
MODEL 2
REMARK VINA RESULT:      -8.1      0.144      1.600
REMARK  Name = 
REMARK  4 active torsions:
REMARK  status: ('A' for Active; 'I' for Inactive)
REMARK    1  A    between atoms: C_2  and  C_14
REMARK    2  A    between atoms: N_3  and  C_4
REMARK    3  A    between atoms: C_16  and  O_17
REMARK    4  A    between atoms: C_20  and  O_21
REMARK                            x       y       z     vdW  Elec       q    Type
REMARK                         _______ _______ _______ _____ _____    ______ ____
ROOT
ATOM      1  O   UNL     1       4.846   5.744  16.494  0.00  0.00    +0.000 OA
ATOM      2  C   UNL     1       4.964   4.633  15.986  0.00  0.00    +0.000 C 
ATOM      3  N   UNL     1       4.400   3.495  16.513  0.00  0.00    +0.000 N 
ATOM      4  H   UNL     1       4.557   2.636  15.990  0.00  0.00    +0.000 HD
ENDROOT
BRANCH   3   5
ATOM      5  C   UNL     1       3.570   3.431  17.715  0.00  0.00    +0.000 C 
ATOM      6  C   UNL     1       4.246   4.149  18.911  0.00  0.00    +0.000 C 
ATOM      7  C   UNL     1       3.336   4.112  20.150  0.00  0.00    +0.000 C 
ATOM      8  C   UNL     1       2.013   4.825  19.829  0.00  0.00    +0.000 C 
ATOM      9  C   UNL     1       1.308   4.121  18.659  0.00  0.00    +0.000 C 
ATOM     10  C   UNL     1       1.024   2.660  19.042  0.00  0.00    +0.000 C 
ATOM     11  C   UNL     1       2.341   1.934  19.357  0.00  0.00    +0.000 C 
ATOM     12  C   UNL     1       3.048   2.647  20.522  0.00  0.00    +0.000 C 
ATOM     13  C   UNL     1       3.251   1.969  18.116  0.00  0.00    +0.000 C 
ATOM     14  C   UNL     1       2.225   4.148  17.426  0.00  0.00    +0.000 C 
ENDBRANCH   3   5
BRANCH   2  15
ATOM     15  C   UNL     1       5.764   4.479  14.728  0.00  0.00    +0.000 A 
ATOM     16  C   UNL     1       5.217   3.649  13.733  0.00  0.00    +0.000 A 
ATOM     17  C   UNL     1       5.891   3.458  12.532  0.00  0.00    +0.000 A 
ATOM     18  C   UNL     1       7.110   4.078  12.292  0.00  0.00    +0.000 A 
ATOM     19  C   UNL     1       7.670   4.901  13.269  0.00  0.00    +0.000 A 
ATOM     20  C   UNL     1       7.002   5.098  14.484  0.00  0.00    +0.000 A 
BRANCH  17  21
ATOM     21  O   UNL     1       5.381   2.660  11.551  0.00  0.00    +0.000 OA
ATOM     22  H   UNL     1       5.051   1.840  11.956  0.00  0.00    +0.000 HD
ENDBRANCH  17  21
BRANCH  20  23
ATOM     23  O   UNL     1       7.586   5.906  15.425  0.00  0.00    +0.000 OA
ATOM     24  H   UNL     1       6.889   6.409  15.883  0.00  0.00    +0.000 HD
ENDBRANCH  20  23
ENDBRANCH   2  15
TORSDOF 4
ENDMDL
MODEL 3
REMARK VINA RESULT:      -8.0      0.091      1.648
REMARK  Name = 
REMARK  4 active torsions:
REMARK  status: ('A' for Active; 'I' for Inactive)
REMARK    1  A    between atoms: C_2  and  C_14
REMARK    2  A    between atoms: N_3  and  C_4
REMARK    3  A    between atoms: C_16  and  O_17
REMARK    4  A    between atoms: C_20  and  O_21
REMARK                            x       y       z     vdW  Elec       q    Type
REMARK                         _______ _______ _______ _____ _____    ______ ____
ROOT
ATOM      1  O   UNL     1       4.813   5.767  16.436  0.00  0.00    +0.000 OA
ATOM      2  C   UNL     1       4.946   4.648  15.949  0.00  0.00    +0.000 C 
ATOM      3  N   UNL     1       4.386   3.515  16.489  0.00  0.00    +0.000 N 
ATOM      4  H   UNL     1       4.555   2.648  15.983  0.00  0.00    +0.000 HD
ENDROOT
BRANCH   3   5
ATOM      5  C   UNL     1       3.543   3.465  17.683  0.00  0.00    +0.000 C 
ATOM      6  C   UNL     1       3.150   2.009  18.040  0.00  0.00    +0.000 C 
ATOM      7  C   UNL     1       2.307   1.975  19.325  0.00  0.00    +0.000 C 
ATOM      8  C   UNL     1       3.124   2.565  20.485  0.00  0.00    +0.000 C 
ATOM      9  C   UNL     1       3.510   4.019  20.168  0.00  0.00    +0.000 C 
ATOM     10  C   UNL     1       2.234   4.850  19.965  0.00  0.00    +0.000 C 
ATOM     11  C   UNL     1       1.412   4.274  18.801  0.00  0.00    +0.000 C 
ATOM     12  C   UNL     1       1.036   2.817  19.118  0.00  0.00    +0.000 C 
ATOM     13  C   UNL     1       2.256   4.311  17.514  0.00  0.00    +0.000 C 
ATOM     14  C   UNL     1       4.343   4.051  18.877  0.00  0.00    +0.000 C 
ENDBRANCH   3   5
BRANCH   2  15
ATOM     15  C   UNL     1       5.761   4.478  14.702  0.00  0.00    +0.000 A 
ATOM     16  C   UNL     1       5.219   3.647  13.705  0.00  0.00    +0.000 A 
ATOM     17  C   UNL     1       5.908   3.443  12.514  0.00  0.00    +0.000 A 
ATOM     18  C   UNL     1       7.135   4.050  12.287  0.00  0.00    +0.000 A 
ATOM     19  C   UNL     1       7.691   4.873  13.267  0.00  0.00    +0.000 A 
ATOM     20  C   UNL     1       7.009   5.084  14.471  0.00  0.00    +0.000 A 
BRANCH  17  21
ATOM     21  O   UNL     1       5.403   2.644  11.531  0.00  0.00    +0.000 OA
ATOM     22  H   UNL     1       5.359   1.731  11.863  0.00  0.00    +0.000 HD
ENDBRANCH  17  21
BRANCH  20  23
ATOM     23  O   UNL     1       7.588   5.891  15.415  0.00  0.00    +0.000 OA
ATOM     24  H   UNL     1       7.620   6.803  15.072  0.00  0.00    +0.000 HD
ENDBRANCH  20  23
ENDBRANCH   2  15
TORSDOF 4
ENDMDL
MODEL 4
REMARK VINA RESULT:      -7.9      4.023      7.345
REMARK  Name = 
REMARK  4 active torsions:
REMARK  status: ('A' for Active; 'I' for Inactive)
REMARK    1  A    between atoms: C_2  and  C_14
REMARK    2  A    between atoms: N_3  and  C_4
REMARK    3  A    between atoms: C_16  and  O_17
REMARK    4  A    between atoms: C_20  and  O_21
REMARK                            x       y       z     vdW  Elec       q    Type
REMARK                         _______ _______ _______ _____ _____    ______ ____
ROOT
ATOM      1  O   UNL     1       2.818   7.734  18.295  0.00  0.00    +0.000 OA
ATOM      2  C   UNL     1       2.135   7.547  19.298  0.00  0.00    +0.000 C 
ATOM      3  N   UNL     1       1.930   6.307  19.854  0.00  0.00    +0.000 N 
ATOM      4  H   UNL     1       1.356   6.284  20.695  0.00  0.00    +0.000 HD
ENDROOT
BRANCH   3   5
ATOM      5  C   UNL     1       2.497   5.049  19.369  0.00  0.00    +0.000 C 
ATOM      6  C   UNL     1       4.045   5.065  19.426  0.00  0.00    +0.000 C 
ATOM      7  C   UNL     1       4.618   3.716  18.959  0.00  0.00    +0.000 C 
ATOM      8  C   UNL     1       4.101   2.600  19.879  0.00  0.00    +0.000 C 
ATOM      9  C   UNL     1       2.567   2.545  19.827  0.00  0.00    +0.000 C 
ATOM     10  C   UNL     1       2.116   2.270  18.384  0.00  0.00    +0.000 C 
ATOM     11  C   UNL     1       2.620   3.386  17.455  0.00  0.00    +0.000 C 
ATOM     12  C   UNL     1       4.156   3.443  17.517  0.00  0.00    +0.000 C 
ATOM     13  C   UNL     1       2.044   4.735  17.921  0.00  0.00    +0.000 C 
ATOM     14  C   UNL     1       1.997   3.898  20.283  0.00  0.00    +0.000 C 
ENDBRANCH   3   5
BRANCH   2  15
ATOM     15  C   UNL     1       1.476   8.714  19.969  0.00  0.00    +0.000 A 
ATOM     16  C   UNL     1       1.331   8.637  21.366  0.00  0.00    +0.000 A 
ATOM     17  C   UNL     1       0.737   9.680  22.066  0.00  0.00    +0.000 A 
ATOM     18  C   UNL     1       0.276  10.811  21.406  0.00  0.00    +0.000 A 
ATOM     19  C   UNL     1       0.405  10.903  20.021  0.00  0.00    +0.000 A 
ATOM     20  C   UNL     1       0.999   9.857  19.304  0.00  0.00    +0.000 A 
BRANCH  17  21
ATOM     21  O   UNL     1       0.588   9.631  23.422  0.00  0.00    +0.000 OA
ATOM     22  H   UNL     1      -0.131  10.234  23.678  0.00  0.00    +0.000 HD
ENDBRANCH  17  21
BRANCH  20  23
ATOM     23  O   UNL     1       1.102   9.977  17.942  0.00  0.00    +0.000 OA
ATOM     24  H   UNL     1       1.070   9.088  17.546  0.00  0.00    +0.000 HD
ENDBRANCH  20  23
ENDBRANCH   2  15
TORSDOF 4
ENDMDL
MODEL 5
REMARK VINA RESULT:      -7.9      4.018      7.288
REMARK  Name = 
REMARK  4 active torsions:
REMARK  status: ('A' for Active; 'I' for Inactive)
REMARK    1  A    between atoms: C_2  and  C_14
REMARK    2  A    between atoms: N_3  and  C_4
REMARK    3  A    between atoms: C_16  and  O_17
REMARK    4  A    between atoms: C_20  and  O_21
REMARK                            x       y       z     vdW  Elec       q    Type
REMARK                         _______ _______ _______ _____ _____    ______ ____
ROOT
ATOM      1  O   UNL     1       2.753   7.692  18.260  0.00  0.00    +0.000 OA
ATOM      2  C   UNL     1       2.118   7.518  19.296  0.00  0.00    +0.000 C 
ATOM      3  N   UNL     1       1.972   6.292  19.899  0.00  0.00    +0.000 N 
ATOM      4  H   UNL     1       1.435   6.280  20.764  0.00  0.00    +0.000 HD
ENDROOT
BRANCH   3   5
ATOM      5  C   UNL     1       2.556   5.035  19.431  0.00  0.00    +0.000 C 
ATOM      6  C   UNL     1       2.138   3.844  20.330  0.00  0.00    +0.000 C 
ATOM      7  C   UNL     1       2.721   2.527  19.792  0.00  0.00    +0.000 C 
ATOM      8  C   UNL     1       2.193   2.282  18.370  0.00  0.00    +0.000 C 
ATOM      9  C   UNL     1       2.612   3.438  17.448  0.00  0.00    +0.000 C 
ATOM     10  C   UNL     1       4.146   3.532  17.417  0.00  0.00    +0.000 C 
ATOM     11  C   UNL     1       4.685   3.787  18.834  0.00  0.00    +0.000 C 
ATOM     12  C   UNL     1       4.256   2.633  19.755  0.00  0.00    +0.000 C 
ATOM     13  C   UNL     1       4.102   5.107  19.370  0.00  0.00    +0.000 C 
ATOM     14  C   UNL     1       2.038   4.755  17.995  0.00  0.00    +0.000 C 
ENDBRANCH   3   5
BRANCH   2  15
ATOM     15  C   UNL     1       1.451   8.686  19.957  0.00  0.00    +0.000 A 
ATOM     16  C   UNL     1       1.330   8.632  21.357  0.00  0.00    +0.000 A 
ATOM     17  C   UNL     1       0.732   9.679  22.049  0.00  0.00    +0.000 A 
ATOM     18  C   UNL     1       0.244  10.791  21.377  0.00  0.00    +0.000 A 
ATOM     19  C   UNL     1       0.350  10.861  19.988  0.00  0.00    +0.000 A 
ATOM     20  C   UNL     1       0.948   9.811  19.280  0.00  0.00    +0.000 A 
BRANCH  17  21
ATOM     21  O   UNL     1       0.605   9.652  23.407  0.00  0.00    +0.000 OA
ATOM     22  H   UNL     1       1.381  10.085  23.802  0.00  0.00    +0.000 HD
ENDBRANCH  17  21
BRANCH  20  23
ATOM     23  O   UNL     1       1.027   9.909  17.915  0.00  0.00    +0.000 OA
ATOM     24  H   UNL     1       0.140   9.767  17.538  0.00  0.00    +0.000 HD
ENDBRANCH  20  23
ENDBRANCH   2  15
TORSDOF 4
ENDMDL
MODEL 6
REMARK VINA RESULT:      -7.8      3.995      7.276
REMARK  Name = 
REMARK  4 active torsions:
REMARK  status: ('A' for Active; 'I' for Inactive)
REMARK    1  A    between atoms: C_2  and  C_14
REMARK    2  A    between atoms: N_3  and  C_4
REMARK    3  A    between atoms: C_16  and  O_17
REMARK    4  A    between atoms: C_20  and  O_21
REMARK                            x       y       z     vdW  Elec       q    Type
REMARK                         _______ _______ _______ _____ _____    ______ ____
ROOT
ATOM      1  O   UNL     1       2.818   7.646  18.295  0.00  0.00    +0.000 OA
ATOM      2  C   UNL     1       2.132   7.480  19.300  0.00  0.00    +0.000 C 
ATOM      3  N   UNL     1       1.909   6.249  19.869  0.00  0.00    +0.000 N 
ATOM      4  H   UNL     1       1.335   6.243  20.710  0.00  0.00    +0.000 HD
ENDROOT
BRANCH   3   5
ATOM      5  C   UNL     1       2.458   4.977  19.398  0.00  0.00    +0.000 C 
ATOM      6  C   UNL     1       2.041   4.686  17.934  0.00  0.00    +0.000 C 
ATOM      7  C   UNL     1       2.668   3.371  17.443  0.00  0.00    +0.000 C 
ATOM      8  C   UNL     1       4.199   3.484  17.508  0.00  0.00    +0.000 C 
ATOM      9  C   UNL     1       4.645   3.751  18.954  0.00  0.00    +0.000 C 
ATOM     10  C   UNL     1       4.178   2.595  19.852  0.00  0.00    +0.000 C 
ATOM     11  C   UNL     1       2.646   2.478  19.802  0.00  0.00    +0.000 C 
ATOM     12  C   UNL     1       2.204   2.219  18.352  0.00  0.00    +0.000 C 
ATOM     13  C   UNL     1       2.019   3.793  20.296  0.00  0.00    +0.000 C 
ATOM     14  C   UNL     1       4.007   5.060  19.446  0.00  0.00    +0.000 C 
ENDBRANCH   3   5
BRANCH   2  15
ATOM     15  C   UNL     1       1.489   8.662  19.958  0.00  0.00    +0.000 A 
ATOM     16  C   UNL     1       1.337   8.599  21.355  0.00  0.00    +0.000 A 
ATOM     17  C   UNL     1       0.757   9.658  22.044  0.00  0.00    +0.000 A 
ATOM     18  C   UNL     1       0.319  10.791  21.373  0.00  0.00    +0.000 A 
ATOM     19  C   UNL     1       0.457  10.870  19.987  0.00  0.00    +0.000 A 
ATOM     20  C   UNL     1       1.036   9.809  19.282  0.00  0.00    +0.000 A 
BRANCH  17  21
ATOM     21  O   UNL     1       0.600   9.622  23.399  0.00  0.00    +0.000 OA
ATOM     22  H   UNL     1      -0.197   9.104  23.606  0.00  0.00    +0.000 HD
ENDBRANCH  17  21
BRANCH  20  23
ATOM     23  O   UNL     1       1.148   9.916  17.919  0.00  0.00    +0.000 OA
ATOM     24  H   UNL     1       0.519  10.590  17.605  0.00  0.00    +0.000 HD
ENDBRANCH  20  23
ENDBRANCH   2  15
TORSDOF 4
ENDMDL
MODEL 7
REMARK VINA RESULT:      -7.5      4.011      6.995
REMARK  Name = 
REMARK  4 active torsions:
REMARK  status: ('A' for Active; 'I' for Inactive)
REMARK    1  A    between atoms: C_2  and  C_14
REMARK    2  A    between atoms: N_3  and  C_4
REMARK    3  A    between atoms: C_16  and  O_17
REMARK    4  A    between atoms: C_20  and  O_21
REMARK                            x       y       z     vdW  Elec       q    Type
REMARK                         _______ _______ _______ _____ _____    ______ ____
ROOT
ATOM      1  O   UNL     1       2.990   7.653  18.023  0.00  0.00    +0.000 OA
ATOM      2  C   UNL     1       2.212   7.562  18.968  0.00  0.00    +0.000 C 
ATOM      3  N   UNL     1       1.898   6.372  19.579  0.00  0.00    +0.000 N 
ATOM      4  H   UNL     1       1.251   6.429  20.364  0.00  0.00    +0.000 HD
ENDROOT
BRANCH   3   5
ATOM      5  C   UNL     1       2.443   5.061  19.227  0.00  0.00    +0.000 C 
ATOM      6  C   UNL     1       3.988   5.039  19.341  0.00  0.00    +0.000 C 
ATOM      7  C   UNL     1       4.536   3.640  19.015  0.00  0.00    +0.000 C 
ATOM      8  C   UNL     1       3.952   2.622  20.008  0.00  0.00    +0.000 C 
ATOM      9  C   UNL     1       2.419   2.605  19.901  0.00  0.00    +0.000 C 
ATOM     10  C   UNL     1       2.014   2.217  18.471  0.00  0.00    +0.000 C 
ATOM     11  C   UNL     1       2.585   3.234  17.469  0.00  0.00    +0.000 C 
ATOM     12  C   UNL     1       4.118   3.254  17.585  0.00  0.00    +0.000 C 
ATOM     13  C   UNL     1       2.034   4.634  17.795  0.00  0.00    +0.000 C 
ATOM     14  C   UNL     1       1.875   4.008  20.216  0.00  0.00    +0.000 C 
ENDBRANCH   3   5
BRANCH   2  15
ATOM     15  C   UNL     1       1.554   8.798  19.503  0.00  0.00    +0.000 A 
ATOM     16  C   UNL     1       1.154   9.757  18.556  0.00  0.00    +0.000 A 
ATOM     17  C   UNL     1       0.528  10.929  18.967  0.00  0.00    +0.000 A 
ATOM     18  C   UNL     1       0.287  11.174  20.312  0.00  0.00    +0.000 A 
ATOM     19  C   UNL     1       0.682  10.237  21.267  0.00  0.00    +0.000 A 
ATOM     20  C   UNL     1       1.316   9.055  20.865  0.00  0.00    +0.000 A 
BRANCH  17  21
ATOM     21  O   UNL     1       0.128  11.874  18.069  0.00  0.00    +0.000 OA
ATOM     22  H   UNL     1      -0.844  11.882  18.036  0.00  0.00    +0.000 HD
ENDBRANCH  17  21
BRANCH  20  23
ATOM     23  O   UNL     1       1.698   8.160  21.830  0.00  0.00    +0.000 OA
ATOM     24  H   UNL     1       2.056   8.652  22.590  0.00  0.00    +0.000 HD
ENDBRANCH  20  23
ENDBRANCH   2  15
TORSDOF 4
ENDMDL
MODEL 8
REMARK VINA RESULT:      -7.4      3.986      6.925
REMARK  Name = 
REMARK  4 active torsions:
REMARK  status: ('A' for Active; 'I' for Inactive)
REMARK    1  A    between atoms: C_2  and  C_14
REMARK    2  A    between atoms: N_3  and  C_4
REMARK    3  A    between atoms: C_16  and  O_17
REMARK    4  A    between atoms: C_20  and  O_21
REMARK                            x       y       z     vdW  Elec       q    Type
REMARK                         _______ _______ _______ _____ _____    ______ ____
ROOT
ATOM      1  O   UNL     1       3.034   7.680  18.017  0.00  0.00    +0.000 OA
ATOM      2  C   UNL     1       2.260   7.547  18.961  0.00  0.00    +0.000 C 
ATOM      3  N   UNL     1       2.010   6.341  19.572  0.00  0.00    +0.000 N 
ATOM      4  H   UNL     1       1.360   6.364  20.355  0.00  0.00    +0.000 HD
ENDROOT
BRANCH   3   5
ATOM      5  C   UNL     1       2.628   5.062  19.222  0.00  0.00    +0.000 C 
ATOM      6  C   UNL     1       2.176   3.933  20.182  0.00  0.00    +0.000 C 
ATOM      7  C   UNL     1       2.797   2.588  19.767  0.00  0.00    +0.000 C 
ATOM      8  C   UNL     1       2.342   2.238  18.341  0.00  0.00    +0.000 C 
ATOM      9  C   UNL     1       2.797   3.331  17.362  0.00  0.00    +0.000 C 
ATOM     10  C   UNL     1       4.329   3.443  17.399  0.00  0.00    +0.000 C 
ATOM     11  C   UNL     1       4.795   3.802  18.819  0.00  0.00    +0.000 C 
ATOM     12  C   UNL     1       4.330   2.710  19.797  0.00  0.00    +0.000 C 
ATOM     13  C   UNL     1       4.175   5.149  19.233  0.00  0.00    +0.000 C 
ATOM     14  C   UNL     1       2.184   4.676  17.786  0.00  0.00    +0.000 C 
ENDBRANCH   3   5
BRANCH   2  15
ATOM     15  C   UNL     1       1.533   8.745  19.492  0.00  0.00    +0.000 A 
ATOM     16  C   UNL     1       1.082   9.680  18.543  0.00  0.00    +0.000 A 
ATOM     17  C   UNL     1       0.392  10.815  18.952  0.00  0.00    +0.000 A 
ATOM     18  C   UNL     1       0.136  11.049  20.296  0.00  0.00    +0.000 A 
ATOM     19  C   UNL     1       0.580  10.136  21.253  0.00  0.00    +0.000 A 
ATOM     20  C   UNL     1       1.279   8.990  20.853  0.00  0.00    +0.000 A 
BRANCH  17  21
ATOM     21  O   UNL     1      -0.058  11.735  18.051  0.00  0.00    +0.000 OA
ATOM     22  H   UNL     1       0.707  12.123  17.593  0.00  0.00    +0.000 HD
ENDBRANCH  17  21
BRANCH  20  23
ATOM     23  O   UNL     1       1.709   8.119  21.821  0.00  0.00    +0.000 OA
ATOM     24  H   UNL     1       2.467   8.516  22.286  0.00  0.00    +0.000 HD
ENDBRANCH  20  23
ENDBRANCH   2  15
TORSDOF 4
ENDMDL
MODEL 9
REMARK VINA RESULT:      -7.4      4.174      7.608
REMARK  Name = 
REMARK  4 active torsions:
REMARK  status: ('A' for Active; 'I' for Inactive)
REMARK    1  A    between atoms: C_2  and  C_14
REMARK    2  A    between atoms: N_3  and  C_4
REMARK    3  A    between atoms: C_16  and  O_17
REMARK    4  A    between atoms: C_20  and  O_21
REMARK                            x       y       z     vdW  Elec       q    Type
REMARK                         _______ _______ _______ _____ _____    ______ ____
ROOT
ATOM      1  O   UNL     1       1.687   6.150  20.710  0.00  0.00    +0.000 OA
ATOM      2  C   UNL     1       1.952   7.155  20.057  0.00  0.00    +0.000 C 
ATOM      3  N   UNL     1       2.832   7.162  19.001  0.00  0.00    +0.000 N 
ATOM      4  H   UNL     1       2.956   8.056  18.528  0.00  0.00    +0.000 HD
ENDROOT
BRANCH   3   5
ATOM      5  C   UNL     1       3.555   6.001  18.483  0.00  0.00    +0.000 C 
ATOM      6  C   UNL     1       2.592   4.977  17.831  0.00  0.00    +0.000 C 
ATOM      7  C   UNL     1       3.376   3.789  17.250  0.00  0.00    +0.000 C 
ATOM      8  C   UNL     1       4.352   4.300  16.180  0.00  0.00    +0.000 C 
ATOM      9  C   UNL     1       5.336   5.303  16.802  0.00  0.00    +0.000 C 
ATOM     10  C   UNL     1       6.124   4.611  17.926  0.00  0.00    +0.000 C 
ATOM     11  C   UNL     1       5.157   4.103  19.008  0.00  0.00    +0.000 C 
ATOM     12  C   UNL     1       4.169   3.107  18.379  0.00  0.00    +0.000 C 
ATOM     13  C   UNL     1       4.375   5.293  19.591  0.00  0.00    +0.000 C 
ATOM     14  C   UNL     1       4.549   6.484  17.393  0.00  0.00    +0.000 C 
ENDBRANCH   3   5
BRANCH   2  15
ATOM     15  C   UNL     1       1.300   8.457  20.410  0.00  0.00    +0.000 A 
ATOM     16  C   UNL     1       0.989   8.657  21.767  0.00  0.00    +0.000 A 
ATOM     17  C   UNL     1       0.391   9.842  22.181  0.00  0.00    +0.000 A 
ATOM     18  C   UNL     1       0.088  10.844  21.269  0.00  0.00    +0.000 A 
ATOM     19  C   UNL     1       0.383  10.662  19.918  0.00  0.00    +0.000 A 
ATOM     20  C   UNL     1       0.983   9.472  19.489  0.00  0.00    +0.000 A 
BRANCH  17  21
ATOM     21  O   UNL     1       0.082  10.062  23.492  0.00  0.00    +0.000 OA
ATOM     22  H   UNL     1      -0.525  10.819  23.546  0.00  0.00    +0.000 HD
ENDBRANCH  17  21
BRANCH  20  23
ATOM     23  O   UNL     1       1.251   9.322  18.153  0.00  0.00    +0.000 OA
ATOM     24  H   UNL     1       2.037   8.755  18.053  0.00  0.00    +0.000 HD
ENDBRANCH  20  23
ENDBRANCH   2  15
TORSDOF 4
ENDMDL
