MODEL 1
REMARK VINA RESULT:      -6.8      0.000      0.000
REMARK  Name = 
REMARK  3 active torsions:
REMARK  status: ('A' for Active; 'I' for Inactive)
REMARK    1  A    between atoms: C_1  and  C_2
REMARK    2  A    between atoms: C_4  and  C_5
REMARK    3  A    between atoms: N_11  and  C_12
REMARK                            x       y       z     vdW  Elec       q    Type
REMARK                         _______ _______ _______ _____ _____    ______ ____
ROOT
ATOM      1  C   UNL     1       5.683   4.684  17.035  0.00  0.00    +0.000 C 
ATOM      2  C   UNL     1       6.128   5.430  18.067  0.00  0.00    +0.000 C 
ATOM      3  C   UNL     1       5.312   5.043  19.278  0.00  0.00    +0.000 C 
ATOM      4  C   UNL     1       3.893   5.608  19.104  0.00  0.00    +0.000 C 
ATOM      5  C   UNL     1       3.375   4.800  17.888  0.00  0.00    +0.000 C 
ATOM      6  C   UNL     1       4.556   3.839  17.606  0.00  0.00    +0.000 C 
ATOM      7  N   UNL     1       5.139   3.609  18.953  0.00  0.00    +0.000 NA
ATOM      8  C   UNL     1       4.341   2.832  19.882  0.00  0.00    +0.000 C 
ENDROOT
BRANCH   1  12
ATOM      9  C   UNL     1       7.000   4.070  12.197  0.00  0.00    +0.000 C 
ATOM     10  C   UNL     1       6.875   4.482  13.613  0.00  0.00    +0.000 A 
ATOM     11  C   UNL     1       5.956   4.043  14.593  0.00  0.00    +0.000 A 
ATOM     12  C   UNL     1       6.268   4.742  15.747  0.00  0.00    +0.000 A 
ATOM     13  O   UNL     1       7.336   5.557  15.431  0.00  0.00    +0.000 OA
ATOM     14  N   UNL     1       7.707   5.396  14.114  0.00  0.00    +0.000 NA
ENDBRANCH   1  12
TORSDOF 1
ENDMDL
MODEL 2
REMARK VINA RESULT:      -6.6      3.110      3.978
REMARK  Name = 
REMARK  3 active torsions:
REMARK  status: ('A' for Active; 'I' for Inactive)
REMARK    1  A    between atoms: C_1  and  C_2
REMARK    2  A    between atoms: C_4  and  C_5
REMARK    3  A    between atoms: N_11  and  C_12
REMARK                            x       y       z     vdW  Elec       q    Type
REMARK                         _______ _______ _______ _____ _____    ______ ____
ROOT
ATOM      1  C   UNL     1       3.652   4.194  19.162  0.00  0.00    +0.000 C 
ATOM      2  C   UNL     1       2.483   4.775  18.824  0.00  0.00    +0.000 C 
ATOM      3  C   UNL     1       1.381   3.941  19.436  0.00  0.00    +0.000 C 
ATOM      4  C   UNL     1       1.284   2.622  18.652  0.00  0.00    +0.000 C 
ATOM      5  C   UNL     1       2.642   1.954  18.984  0.00  0.00    +0.000 C 
ATOM      6  C   UNL     1       3.272   2.967  19.973  0.00  0.00    +0.000 C 
ATOM      7  N   UNL     1       2.092   3.541  20.670  0.00  0.00    +0.000 NA
ATOM      8  C   UNL     1       1.374   2.658  21.568  0.00  0.00    +0.000 C 
ENDROOT
BRANCH   1  12
ATOM      9  C   UNL     1       7.479   7.013  17.453  0.00  0.00    +0.000 C 
ATOM     10  C   UNL     1       6.615   5.973  18.053  0.00  0.00    +0.000 A 
ATOM     11  C   UNL     1       5.207   5.937  18.165  0.00  0.00    +0.000 A 
ATOM     12  C   UNL     1       4.906   4.748  18.808  0.00  0.00    +0.000 A 
ATOM     13  O   UNL     1       6.111   4.125  19.056  0.00  0.00    +0.000 OA
ATOM     14  N   UNL     1       7.164   4.882  18.590  0.00  0.00    +0.000 NA
ENDBRANCH   1  12
TORSDOF 1
ENDMDL
MODEL 3
REMARK VINA RESULT:      -6.5      2.088      2.889
REMARK  Name = 
REMARK  3 active torsions:
REMARK  status: ('A' for Active; 'I' for Inactive)
REMARK    1  A    between atoms: C_1  and  C_2
REMARK    2  A    between atoms: C_4  and  C_5
REMARK    3  A    between atoms: N_11  and  C_12
REMARK                            x       y       z     vdW  Elec       q    Type
REMARK                         _______ _______ _______ _____ _____    ______ ____
ROOT
ATOM      1  C   UNL     1       3.352   4.230  17.834  0.00  0.00    +0.000 C 
ATOM      2  C   UNL     1       2.103   4.728  17.945  0.00  0.00    +0.000 C 
ATOM      3  C   UNL     1       1.437   4.002  19.090  0.00  0.00    +0.000 C 
ATOM      4  C   UNL     1       1.134   2.564  18.638  0.00  0.00    +0.000 C 
ATOM      5  C   UNL     1       2.558   1.981  18.455  0.00  0.00    +0.000 C 
ATOM      6  C   UNL     1       3.455   3.160  18.909  0.00  0.00    +0.000 C 
ATOM      7  N   UNL     1       2.632   3.835  19.946  0.00  0.00    +0.000 NA
ATOM      8  C   UNL     1       2.436   3.117  21.190  0.00  0.00    +0.000 C 
ENDROOT
BRANCH   1  12
ATOM      9  C   UNL     1       6.913   4.885  14.312  0.00  0.00    +0.000 C 
ATOM     10  C   UNL     1       5.867   5.042  15.347  0.00  0.00    +0.000 A 
ATOM     11  C   UNL     1       5.144   4.048  16.043  0.00  0.00    +0.000 A 
ATOM     12  C   UNL     1       4.288   4.727  16.896  0.00  0.00    +0.000 A 
ATOM     13  O   UNL     1       4.519   6.071  16.689  0.00  0.00    +0.000 OA
ATOM     14  N   UNL     1       5.492   6.263  15.732  0.00  0.00    +0.000 NA
ENDBRANCH   1  12
TORSDOF 1
ENDMDL
MODEL 4
REMARK VINA RESULT:      -6.5      2.407      3.534
REMARK  Name = 
REMARK  3 active torsions:
REMARK  status: ('A' for Active; 'I' for Inactive)
REMARK    1  A    between atoms: C_1  and  C_2
REMARK    2  A    between atoms: C_4  and  C_5
REMARK    3  A    between atoms: N_11  and  C_12
REMARK                            x       y       z     vdW  Elec       q    Type
REMARK                         _______ _______ _______ _____ _____    ______ ____
ROOT
ATOM      1  C   UNL     1       3.485   3.803  18.986  0.00  0.00    +0.000 C 
ATOM      2  C   UNL     1       2.462   4.681  19.025  0.00  0.00    +0.000 C 
ATOM      3  C   UNL     1       1.383   4.065  19.883  0.00  0.00    +0.000 C 
ATOM      4  C   UNL     1       0.741   2.910  19.096  0.00  0.00    +0.000 C 
ATOM      5  C   UNL     1       1.916   1.904  18.994  0.00  0.00    +0.000 C 
ATOM      6  C   UNL     1       3.025   2.612  19.810  0.00  0.00    +0.000 C 
ATOM      7  N   UNL     1       2.264   3.362  20.842  0.00  0.00    +0.000 NA
ATOM      8  C   UNL     1       1.603   2.574  21.864  0.00  0.00    +0.000 C 
ENDROOT
BRANCH   1  12
ATOM      9  C   UNL     1       7.162   4.743  15.653  0.00  0.00    +0.000 C 
ATOM     10  C   UNL     1       6.346   4.490  16.860  0.00  0.00    +0.000 A 
ATOM     11  C   UNL     1       4.956   4.257  16.966  0.00  0.00    +0.000 A 
ATOM     12  C   UNL     1       4.701   4.082  18.316  0.00  0.00    +0.000 A 
ATOM     13  O   UNL     1       5.913   4.214  18.960  0.00  0.00    +0.000 OA
ATOM     14  N   UNL     1       6.926   4.467  18.061  0.00  0.00    +0.000 NA
ENDBRANCH   1  12
TORSDOF 1
ENDMDL
MODEL 5
REMARK VINA RESULT:      -6.5      1.340      1.692
REMARK  Name = 
REMARK  3 active torsions:
REMARK  status: ('A' for Active; 'I' for Inactive)
REMARK    1  A    between atoms: C_1  and  C_2
REMARK    2  A    between atoms: C_4  and  C_5
REMARK    3  A    between atoms: N_11  and  C_12
REMARK                            x       y       z     vdW  Elec       q    Type
REMARK                         _______ _______ _______ _____ _____    ______ ____
ROOT
ATOM      1  C   UNL     1       4.375   4.536  17.130  0.00  0.00    +0.000 C 
ATOM      2  C   UNL     1       3.623   5.546  17.613  0.00  0.00    +0.000 C 
ATOM      3  C   UNL     1       2.700   4.953  18.652  0.00  0.00    +0.000 C 
ATOM      4  C   UNL     1       1.632   4.118  17.928  0.00  0.00    +0.000 C 
ATOM      5  C   UNL     1       2.480   2.974  17.320  0.00  0.00    +0.000 C 
ATOM      6  C   UNL     1       3.896   3.293  17.861  0.00  0.00    +0.000 C 
ATOM      7  N   UNL     1       3.625   3.924  19.178  0.00  0.00    +0.000 NA
ATOM      8  C   UNL     1       3.100   3.059  20.217  0.00  0.00    +0.000 C 
ENDROOT
BRANCH   1  12
ATOM      9  C   UNL     1       7.318   4.684  13.028  0.00  0.00    +0.000 C 
ATOM     10  C   UNL     1       6.723   4.812  14.376  0.00  0.00    +0.000 A 
ATOM     11  C   UNL     1       5.464   4.371  14.841  0.00  0.00    +0.000 A 
ATOM     12  C   UNL     1       5.399   4.741  16.175  0.00  0.00    +0.000 A 
ATOM     13  O   UNL     1       6.591   5.376  16.459  0.00  0.00    +0.000 OA
ATOM     14  N   UNL     1       7.404   5.420  15.348  0.00  0.00    +0.000 NA
ENDBRANCH   1  12
TORSDOF 1
ENDMDL
MODEL 6
REMARK VINA RESULT:      -6.4      1.626      1.953
REMARK  Name = 
REMARK  3 active torsions:
REMARK  status: ('A' for Active; 'I' for Inactive)
REMARK    1  A    between atoms: C_1  and  C_2
REMARK    2  A    between atoms: C_4  and  C_5
REMARK    3  A    between atoms: N_11  and  C_12
REMARK                            x       y       z     vdW  Elec       q    Type
REMARK                         _______ _______ _______ _____ _____    ______ ____
ROOT
ATOM      1  C   UNL     1       4.345   4.076  17.749  0.00  0.00    +0.000 C 
ATOM      2  C   UNL     1       4.454   4.377  19.059  0.00  0.00    +0.000 C 
ATOM      3  C   UNL     1       3.178   3.919  19.726  0.00  0.00    +0.000 C 
ATOM      4  C   UNL     1       2.046   4.871  19.306  0.00  0.00    +0.000 C 
ATOM      5  C   UNL     1       1.934   4.581  17.788  0.00  0.00    +0.000 C 
ATOM      6  C   UNL     1       2.971   3.447  17.594  0.00  0.00    +0.000 C 
ATOM      7  N   UNL     1       2.932   2.723  18.891  0.00  0.00    +0.000 NA
ATOM      8  C   UNL     1       1.725   1.973  19.181  0.00  0.00    +0.000 C 
ENDROOT
BRANCH   1  12
ATOM      9  C   UNL     1       7.243   4.797  13.675  0.00  0.00    +0.000 C 
ATOM     10  C   UNL     1       6.696   4.623  15.039  0.00  0.00    +0.000 A 
ATOM     11  C   UNL     1       5.362   4.398  15.444  0.00  0.00    +0.000 A 
ATOM     12  C   UNL     1       5.393   4.311  16.826  0.00  0.00    +0.000 A 
ATOM     13  O   UNL     1       6.711   4.482  17.196  0.00  0.00    +0.000 OA
ATOM     14  N   UNL     1       7.512   4.676  16.093  0.00  0.00    +0.000 NA
ENDBRANCH   1  12
TORSDOF 1
ENDMDL
MODEL 7
REMARK VINA RESULT:      -6.4      1.078      1.929
REMARK  Name = 
REMARK  3 active torsions:
REMARK  status: ('A' for Active; 'I' for Inactive)
REMARK    1  A    between atoms: C_1  and  C_2
REMARK    2  A    between atoms: C_4  and  C_5
REMARK    3  A    between atoms: N_11  and  C_12
REMARK                            x       y       z     vdW  Elec       q    Type
REMARK                         _______ _______ _______ _____ _____    ______ ____
ROOT
ATOM      1  C   UNL     1       5.052   4.887  16.684  0.00  0.00    +0.000 C 
ATOM      2  C   UNL     1       4.143   3.918  16.918  0.00  0.00    +0.000 C 
ATOM      3  C   UNL     1       3.409   4.295  18.183  0.00  0.00    +0.000 C 
ATOM      4  C   UNL     1       4.362   4.089  19.373  0.00  0.00    +0.000 C 
ATOM      5  C   UNL     1       5.446   5.162  19.101  0.00  0.00    +0.000 C 
ATOM      6  C   UNL     1       4.898   5.868  17.835  0.00  0.00    +0.000 C 
ATOM      7  N   UNL     1       3.425   5.762  17.996  0.00  0.00    +0.000 NA
ATOM      8  C   UNL     1       2.829   6.552  19.056  0.00  0.00    +0.000 C 
ENDROOT
BRANCH   1  12
ATOM      9  C   UNL     1       7.202   4.199  12.166  0.00  0.00    +0.000 C 
ATOM     10  C   UNL     1       6.856   4.594  13.549  0.00  0.00    +0.000 A 
ATOM     11  C   UNL     1       5.714   4.266  14.312  0.00  0.00    +0.000 A 
ATOM     12  C   UNL     1       5.881   4.891  15.537  0.00  0.00    +0.000 A 
ATOM     13  O   UNL     1       7.087   5.557  15.471  0.00  0.00    +0.000 OA
ATOM     14  N   UNL     1       7.686   5.374  14.244  0.00  0.00    +0.000 NA
ENDBRANCH   1  12
TORSDOF 1
ENDMDL
MODEL 8
REMARK VINA RESULT:      -6.4      3.283      4.035
REMARK  Name = 
REMARK  3 active torsions:
REMARK  status: ('A' for Active; 'I' for Inactive)
REMARK    1  A    between atoms: C_1  and  C_2
REMARK    2  A    between atoms: C_4  and  C_5
REMARK    3  A    between atoms: N_11  and  C_12
REMARK                            x       y       z     vdW  Elec       q    Type
REMARK                         _______ _______ _______ _____ _____    ______ ____
ROOT
ATOM      1  C   UNL     1       4.143   4.069  19.462  0.00  0.00    +0.000 C 
ATOM      2  C   UNL     1       4.220   2.822  19.971  0.00  0.00    +0.000 C 
ATOM      3  C   UNL     1       2.804   2.317  20.121  0.00  0.00    +0.000 C 
ATOM      4  C   UNL     1       2.148   3.066  21.293  0.00  0.00    +0.000 C 
ATOM      5  C   UNL     1       2.092   4.517  20.752  0.00  0.00    +0.000 C 
ATOM      6  C   UNL     1       2.657   4.354  19.319  0.00  0.00    +0.000 C 
ATOM      7  N   UNL     1       2.225   2.985  18.935  0.00  0.00    +0.000 NA
ATOM      8  C   UNL     1       0.805   2.789  18.717  0.00  0.00    +0.000 C 
ENDROOT
BRANCH   1  12
ATOM      9  C   UNL     1       7.567   7.183  17.439  0.00  0.00    +0.000 C 
ATOM     10  C   UNL     1       6.826   6.191  18.248  0.00  0.00    +0.000 A 
ATOM     11  C   UNL     1       5.483   5.767  18.132  0.00  0.00    +0.000 A 
ATOM     12  C   UNL     1       5.291   4.827  19.131  0.00  0.00    +0.000 A 
ATOM     13  O   UNL     1       6.494   4.720  19.799  0.00  0.00    +0.000 OA
ATOM     14  N   UNL     1       7.438   5.563  19.254  0.00  0.00    +0.000 NA
ENDBRANCH   1  12
TORSDOF 1
ENDMDL
MODEL 9
REMARK VINA RESULT:      -6.3      2.503      5.386
REMARK  Name = 
REMARK  3 active torsions:
REMARK  status: ('A' for Active; 'I' for Inactive)
REMARK    1  A    between atoms: C_1  and  C_2
REMARK    2  A    between atoms: C_4  and  C_5
REMARK    3  A    between atoms: N_11  and  C_12
REMARK                            x       y       z     vdW  Elec       q    Type
REMARK                         _______ _______ _______ _____ _____    ______ ____
ROOT
ATOM      1  C   UNL     1       4.354   4.801  17.045  0.00  0.00    +0.000 C 
ATOM      2  C   UNL     1       4.510   6.120  16.814  0.00  0.00    +0.000 C 
ATOM      3  C   UNL     1       5.781   6.282  16.013  0.00  0.00    +0.000 C 
ATOM      4  C   UNL     1       6.975   6.009  16.943  0.00  0.00    +0.000 C 
ATOM      5  C   UNL     1       6.790   4.505  17.264  0.00  0.00    +0.000 C 
ATOM      6  C   UNL     1       5.558   4.134  16.401  0.00  0.00    +0.000 C 
ATOM      7  N   UNL     1       5.683   5.034  15.225  0.00  0.00    +0.000 NA
ATOM      8  C   UNL     1       6.776   4.762  14.312  0.00  0.00    +0.000 C 
ENDROOT
BRANCH   1  12
ATOM      9  C   UNL     1       0.868   3.333  20.392  0.00  0.00    +0.000 C 
ATOM     10  C   UNL     1       1.675   3.609  19.184  0.00  0.00    +0.000 A 
ATOM     11  C   UNL     1       2.903   4.298  19.067  0.00  0.00    +0.000 A 
ATOM     12  C   UNL     1       3.226   4.276  17.721  0.00  0.00    +0.000 A 
ATOM     13  O   UNL     1       2.208   3.593  17.088  0.00  0.00    +0.000 OA
ATOM     14  N   UNL     1       1.252   3.184  17.991  0.00  0.00    +0.000 NA
ENDBRANCH   1  12
TORSDOF 1
ENDMDL
