MODEL 1
REMARK VINA RESULT:      -8.7      0.000      0.000
REMARK  Name = 
REMARK  2 active torsions:
REMARK  status: ('A' for Active; 'I' for Inactive)
REMARK    1  A    between atoms: N_8  and  C_9
REMARK    2  A    between atoms: C_18  and  C_19
REMARK                            x       y       z     vdW  Elec       q    Type
REMARK                         _______ _______ _______ _____ _____    ______ ____
ROOT
ATOM      1  F   UNL     1       3.784   0.710  18.349  0.00  0.00    +0.000 F 
ATOM      2  C   UNL     1       3.402   1.992  18.369  0.00  0.00    +0.000 A 
ATOM      3  C   UNL     1       2.201   2.328  18.978  0.00  0.00    +0.000 A 
ATOM      4  C   UNL     1       1.803   3.655  19.005  0.00  0.00    +0.000 A 
ATOM      5  C   UNL     1       2.612   4.639  18.430  0.00  0.00    +0.000 A 
ATOM      6  N   UNL     1       2.141   5.949  18.526  0.00  0.00    +0.000 NA
ATOM      7  C   UNL     1       2.811   6.944  18.023  0.00  0.00    +0.000 A 
ATOM      8  N   UNL     1       2.311   8.218  18.141  0.00  0.00    +0.000 N 
ATOM      9  C   UNL     1       4.067   6.652  17.367  0.00  0.00    +0.000 A 
ATOM     10  N   UNL     1       4.885   7.524  16.820  0.00  0.00    +0.000 NA
ATOM     11  N   UNL     1       5.950   6.806  16.338  0.00  0.00    +0.000 NA
ATOM     12  C   UNL     1       5.759   5.519  16.601  0.00  0.00    +0.000 A 
ATOM     13  N   UNL     1       4.559   5.373  17.267  0.00  0.00    +0.000 N 
ATOM     14  C   UNL     1       3.830   4.289  17.810  0.00  0.00    +0.000 A 
ATOM     15  C   UNL     1       4.228   2.955  17.778  0.00  0.00    +0.000 A 
ATOM     16  H   UNL     1       2.940   8.955  17.834  0.00  0.00    +0.000 HD
ENDROOT
BRANCH   8  17
ATOM     17  C   UNL     1       1.304   8.623  19.108  0.00  0.00    +0.000 C 
ATOM     18  C   UNL     1       0.911  10.096  18.964  0.00  0.00    +0.000 C 
ATOM     19  C   UNL     1      -0.325  10.373  19.821  0.00  0.00    +0.000 C 
ATOM     20  C   UNL     1      -0.159   9.934  21.280  0.00  0.00    +0.000 C 
ATOM     21  C   UNL     1       0.470   8.547  21.453  0.00  0.00    +0.000 C 
ATOM     22  C   UNL     1       1.699   8.361  20.565  0.00  0.00    +0.000 C 
ENDBRANCH   8  17
BRANCH  12  23
ATOM     23  C   UNL     1       6.678   4.424  16.249  0.00  0.00    +0.000 C 
ATOM     24  F   UNL     1       6.045   3.352  15.707  0.00  0.00    +0.000 F 
ATOM     25  F   UNL     1       7.611   4.814  15.341  0.00  0.00    +0.000 F 
ATOM     26  F   UNL     1       7.354   3.961  17.333  0.00  0.00    +0.000 F 
ENDBRANCH  12  23
TORSDOF 2
ENDMDL
MODEL 2
REMARK VINA RESULT:      -8.5      1.615      4.030
REMARK  Name = 
REMARK  2 active torsions:
REMARK  status: ('A' for Active; 'I' for Inactive)
REMARK    1  A    between atoms: N_8  and  C_9
REMARK    2  A    between atoms: C_18  and  C_19
REMARK                            x       y       z     vdW  Elec       q    Type
REMARK                         _______ _______ _______ _____ _____    ______ ____
ROOT
ATOM      1  F   UNL     1       5.687   4.092  15.177  0.00  0.00    +0.000 F 
ATOM      2  C   UNL     1       5.042   4.836  16.084  0.00  0.00    +0.000 A 
ATOM      3  C   UNL     1       5.212   6.213  16.070  0.00  0.00    +0.000 A 
ATOM      4  C   UNL     1       4.542   6.988  17.004  0.00  0.00    +0.000 A 
ATOM      5  C   UNL     1       3.703   6.381  17.941  0.00  0.00    +0.000 A 
ATOM      6  N   UNL     1       3.053   7.242  18.827  0.00  0.00    +0.000 NA
ATOM      7  C   UNL     1       2.251   6.786  19.743  0.00  0.00    +0.000 A 
ATOM      8  N   UNL     1       1.631   7.670  20.593  0.00  0.00    +0.000 N 
ATOM      9  C   UNL     1       2.044   5.357  19.811  0.00  0.00    +0.000 A 
ATOM     10  N   UNL     1       1.259   4.720  20.652  0.00  0.00    +0.000 NA
ATOM     11  N   UNL     1       1.361   3.387  20.342  0.00  0.00    +0.000 NA
ATOM     12  C   UNL     1       2.199   3.242  19.324  0.00  0.00    +0.000 A 
ATOM     13  N   UNL     1       2.662   4.487  18.946  0.00  0.00    +0.000 N 
ATOM     14  C   UNL     1       3.538   4.980  17.951  0.00  0.00    +0.000 A 
ATOM     15  C   UNL     1       4.214   4.201  17.016  0.00  0.00    +0.000 A 
ATOM     16  H   UNL     1       0.929   7.259  21.202  0.00  0.00    +0.000 HD
ENDROOT
BRANCH   8  17
ATOM     17  C   UNL     1       1.472   9.092  20.333  0.00  0.00    +0.000 C 
ATOM     18  C   UNL     1       0.549   9.774  21.347  0.00  0.00    +0.000 C 
ATOM     19  C   UNL     1       0.644  11.291  21.172  0.00  0.00    +0.000 C 
ATOM     20  C   UNL     1       0.397  11.749  19.731  0.00  0.00    +0.000 C 
ATOM     21  C   UNL     1       1.123  10.913  18.671  0.00  0.00    +0.000 C 
ATOM     22  C   UNL     1       0.970   9.414  18.921  0.00  0.00    +0.000 C 
ENDBRANCH   8  17
BRANCH  12  23
ATOM     23  C   UNL     1       2.574   1.966  18.692  0.00  0.00    +0.000 C 
ATOM     24  F   UNL     1       2.312   1.933  17.361  0.00  0.00    +0.000 F 
ATOM     25  F   UNL     1       3.900   1.701  18.826  0.00  0.00    +0.000 F 
ATOM     26  F   UNL     1       1.907   0.915  19.239  0.00  0.00    +0.000 F 
ENDBRANCH  12  23
TORSDOF 2
ENDMDL
MODEL 3
REMARK VINA RESULT:      -8.3      3.318      6.953
REMARK  Name = 
REMARK  2 active torsions:
REMARK  status: ('A' for Active; 'I' for Inactive)
REMARK    1  A    between atoms: N_8  and  C_9
REMARK    2  A    between atoms: C_18  and  C_19
REMARK                            x       y       z     vdW  Elec       q    Type
REMARK                         _______ _______ _______ _____ _____    ______ ____
ROOT
ATOM      1  F   UNL     1       1.228   8.214  20.883  0.00  0.00    +0.000 F 
ATOM      2  C   UNL     1       1.873   7.513  19.942  0.00  0.00    +0.000 A 
ATOM      3  C   UNL     1       2.368   8.177  18.829  0.00  0.00    +0.000 A 
ATOM      4  C   UNL     1       3.041   7.456  17.855  0.00  0.00    +0.000 A 
ATOM      5  C   UNL     1       3.218   6.078  18.003  0.00  0.00    +0.000 A 
ATOM      6  N   UNL     1       3.927   5.441  16.984  0.00  0.00    +0.000 NA
ATOM      7  C   UNL     1       4.149   4.160  17.017  0.00  0.00    +0.000 A 
ATOM      8  N   UNL     1       4.852   3.574  15.993  0.00  0.00    +0.000 N 
ATOM      9  C   UNL     1       3.646   3.415  18.150  0.00  0.00    +0.000 A 
ATOM     10  N   UNL     1       3.789   2.125  18.364  0.00  0.00    +0.000 NA
ATOM     11  N   UNL     1       3.172   1.860  19.560  0.00  0.00    +0.000 NA
ATOM     12  C   UNL     1       2.670   2.988  20.047  0.00  0.00    +0.000 A 
ATOM     13  N   UNL     1       2.954   4.018  19.173  0.00  0.00    +0.000 N 
ATOM     14  C   UNL     1       2.708   5.410  19.137  0.00  0.00    +0.000 A 
ATOM     15  C   UNL     1       2.029   6.133  20.114  0.00  0.00    +0.000 A 
ATOM     16  H   UNL     1       5.092   2.597  16.142  0.00  0.00    +0.000 HD
ENDROOT
BRANCH   8  17
ATOM     17  C   UNL     1       5.713   4.291  15.067  0.00  0.00    +0.000 C 
ATOM     18  C   UNL     1       5.895   3.548  13.740  0.00  0.00    +0.000 C 
ATOM     19  C   UNL     1       6.580   4.474  12.734  0.00  0.00    +0.000 C 
ATOM     20  C   UNL     1       7.882   5.084  13.265  0.00  0.00    +0.000 C 
ATOM     21  C   UNL     1       7.789   5.616  14.700  0.00  0.00    +0.000 C 
ATOM     22  C   UNL     1       7.096   4.626  15.634  0.00  0.00    +0.000 C 
ENDBRANCH   8  17
BRANCH  12  23
ATOM     23  C   UNL     1       1.934   3.126  21.315  0.00  0.00    +0.000 C 
ATOM     24  F   UNL     1       2.504   4.015  22.168  0.00  0.00    +0.000 F 
ATOM     25  F   UNL     1       0.657   3.550  21.119  0.00  0.00    +0.000 F 
ATOM     26  F   UNL     1       1.856   1.947  21.986  0.00  0.00    +0.000 F 
ENDBRANCH  12  23
TORSDOF 2
ENDMDL
MODEL 4
REMARK VINA RESULT:      -8.2      1.578      1.965
REMARK  Name = 
REMARK  2 active torsions:
REMARK  status: ('A' for Active; 'I' for Inactive)
REMARK    1  A    between atoms: N_8  and  C_9
REMARK    2  A    between atoms: C_18  and  C_19
REMARK                            x       y       z     vdW  Elec       q    Type
REMARK                         _______ _______ _______ _____ _____    ______ ____
ROOT
ATOM      1  F   UNL     1       3.673   2.175  20.827  0.00  0.00    +0.000 F 
ATOM      2  C   UNL     1       3.310   3.373  20.354  0.00  0.00    +0.000 A 
ATOM      3  C   UNL     1       2.237   4.031  20.939  0.00  0.00    +0.000 A 
ATOM      4  C   UNL     1       1.860   5.274  20.456  0.00  0.00    +0.000 A 
ATOM      5  C   UNL     1       2.561   5.853  19.395  0.00  0.00    +0.000 A 
ATOM      6  N   UNL     1       2.124   7.115  18.991  0.00  0.00    +0.000 NA
ATOM      7  C   UNL     1       2.701   7.746  18.011  0.00  0.00    +0.000 A 
ATOM      8  N   UNL     1       2.239   8.988  17.648  0.00  0.00    +0.000 N 
ATOM      9  C   UNL     1       3.818   7.103  17.357  0.00  0.00    +0.000 A 
ATOM     10  N   UNL     1       4.533   7.592  16.368  0.00  0.00    +0.000 NA
ATOM     11  N   UNL     1       5.491   6.653  16.080  0.00  0.00    +0.000 NA
ATOM     12  C   UNL     1       5.341   5.618  16.897  0.00  0.00    +0.000 A 
ATOM     13  N   UNL     1       4.276   5.865  17.740  0.00  0.00    +0.000 N 
ATOM     14  C   UNL     1       3.648   5.175  18.803  0.00  0.00    +0.000 A 
ATOM     15  C   UNL     1       4.024   3.924  19.285  0.00  0.00    +0.000 A 
ATOM     16  H   UNL     1       2.808   9.472  16.959  0.00  0.00    +0.000 HD
ENDROOT
BRANCH   8  17
ATOM     17  C   UNL     1       1.422   9.844  18.491  0.00  0.00    +0.000 C 
ATOM     18  C   UNL     1      -0.061   9.804  18.108  0.00  0.00    +0.000 C 
ATOM     19  C   UNL     1      -0.880  10.507  19.191  0.00  0.00    +0.000 C 
ATOM     20  C   UNL     1      -0.378  11.920  19.506  0.00  0.00    +0.000 C 
ATOM     21  C   UNL     1       1.144  12.030  19.650  0.00  0.00    +0.000 C 
ATOM     22  C   UNL     1       1.879  11.306  18.525  0.00  0.00    +0.000 C 
ENDBRANCH   8  17
BRANCH  12  23
ATOM     23  C   UNL     1       6.175   4.405  16.910  0.00  0.00    +0.000 C 
ATOM     24  F   UNL     1       6.778   4.186  18.106  0.00  0.00    +0.000 F 
ATOM     25  F   UNL     1       5.451   3.287  16.639  0.00  0.00    +0.000 F 
ATOM     26  F   UNL     1       7.169   4.462  15.985  0.00  0.00    +0.000 F 
ENDBRANCH  12  23
TORSDOF 2
ENDMDL
MODEL 5
REMARK VINA RESULT:      -8.1      3.369      6.990
REMARK  Name = 
REMARK  2 active torsions:
REMARK  status: ('A' for Active; 'I' for Inactive)
REMARK    1  A    between atoms: N_8  and  C_9
REMARK    2  A    between atoms: C_18  and  C_19
REMARK                            x       y       z     vdW  Elec       q    Type
REMARK                         _______ _______ _______ _____ _____    ______ ____
ROOT
ATOM      1  F   UNL     1       1.546   8.493  20.056  0.00  0.00    +0.000 F 
ATOM      2  C   UNL     1       2.211   7.647  19.260  0.00  0.00    +0.000 A 
ATOM      3  C   UNL     1       2.825   8.140  18.116  0.00  0.00    +0.000 A 
ATOM      4  C   UNL     1       3.518   7.269  17.291  0.00  0.00    +0.000 A 
ATOM      5  C   UNL     1       3.598   5.913  17.617  0.00  0.00    +0.000 A 
ATOM      6  N   UNL     1       4.336   5.117  16.740  0.00  0.00    +0.000 NA
ATOM      7  C   UNL     1       4.475   3.840  16.944  0.00  0.00    +0.000 A 
ATOM      8  N   UNL     1       5.210   3.094  16.055  0.00  0.00    +0.000 N 
ATOM      9  C   UNL     1       3.847   3.269  18.115  0.00  0.00    +0.000 A 
ATOM     10  N   UNL     1       3.894   2.011  18.492  0.00  0.00    +0.000 NA
ATOM     11  N   UNL     1       3.178   1.930  19.660  0.00  0.00    +0.000 NA
ATOM     12  C   UNL     1       2.714   3.134  19.967  0.00  0.00    +0.000 A 
ATOM     13  N   UNL     1       3.124   4.031  19.001  0.00  0.00    +0.000 N 
ATOM     14  C   UNL     1       2.969   5.419  18.779  0.00  0.00    +0.000 A 
ATOM     15  C   UNL     1       2.268   6.293  19.607  0.00  0.00    +0.000 A 
ATOM     16  H   UNL     1       5.378   2.132  16.338  0.00  0.00    +0.000 HD
ENDROOT
BRANCH   8  17
ATOM     17  C   UNL     1       6.178   3.644  15.119  0.00  0.00    +0.000 C 
ATOM     18  C   UNL     1       6.683   5.027  15.540  0.00  0.00    +0.000 C 
ATOM     19  C   UNL     1       7.876   5.415  14.666  0.00  0.00    +0.000 C 
ATOM     20  C   UNL     1       7.583   5.313  13.165  0.00  0.00    +0.000 C 
ATOM     21  C   UNL     1       6.847   4.034  12.752  0.00  0.00    +0.000 C 
ATOM     22  C   UNL     1       5.670   3.727  13.676  0.00  0.00    +0.000 C 
ENDBRANCH   8  17
BRANCH  12  23
ATOM     23  C   UNL     1       1.901   3.468  21.149  0.00  0.00    +0.000 C 
ATOM     24  F   UNL     1       2.482   4.395  21.951  0.00  0.00    +0.000 F 
ATOM     25  F   UNL     1       0.686   3.970  20.805  0.00  0.00    +0.000 F 
ATOM     26  F   UNL     1       1.669   2.378  21.928  0.00  0.00    +0.000 F 
ENDBRANCH  12  23
TORSDOF 2
ENDMDL
MODEL 6
REMARK VINA RESULT:      -8.1      1.013      1.252
REMARK  Name = 
REMARK  2 active torsions:
REMARK  status: ('A' for Active; 'I' for Inactive)
REMARK    1  A    between atoms: N_8  and  C_9
REMARK    2  A    between atoms: C_18  and  C_19
REMARK                            x       y       z     vdW  Elec       q    Type
REMARK                         _______ _______ _______ _____ _____    ______ ____
ROOT
ATOM      1  F   UNL     1       4.726   1.290  20.220  0.00  0.00    +0.000 F 
ATOM      2  C   UNL     1       4.144   2.477  20.009  0.00  0.00    +0.000 A 
ATOM      3  C   UNL     1       3.039   2.831  20.770  0.00  0.00    +0.000 A 
ATOM      4  C   UNL     1       2.437   4.061  20.559  0.00  0.00    +0.000 A 
ATOM      5  C   UNL     1       2.945   4.930  19.591  0.00  0.00    +0.000 A 
ATOM      6  N   UNL     1       2.288   6.155  19.465  0.00  0.00    +0.000 NA
ATOM      7  C   UNL     1       2.674   7.040  18.594  0.00  0.00    +0.000 A 
ATOM      8  N   UNL     1       1.998   8.233  18.504  0.00  0.00    +0.000 N 
ATOM      9  C   UNL     1       3.815   6.721  17.764  0.00  0.00    +0.000 A 
ATOM     10  N   UNL     1       4.357   7.494  16.849  0.00  0.00    +0.000 NA
ATOM     11  N   UNL     1       5.418   6.795  16.331  0.00  0.00    +0.000 NA
ATOM     12  C   UNL     1       5.499   5.618  16.940  0.00  0.00    +0.000 A 
ATOM     13  N   UNL     1       4.488   5.528  17.875  0.00  0.00    +0.000 N 
ATOM     14  C   UNL     1       4.067   4.562  18.818  0.00  0.00    +0.000 A 
ATOM     15  C   UNL     1       4.671   3.324  19.028  0.00  0.00    +0.000 A 
ATOM     16  H   UNL     1       2.425   8.922  17.891  0.00  0.00    +0.000 HD
ENDROOT
BRANCH   8  17
ATOM     17  C   UNL     1       1.137   8.774  19.543  0.00  0.00    +0.000 C 
ATOM     18  C   UNL     1       0.797  10.249  19.314  0.00  0.00    +0.000 C 
ATOM     19  C   UNL     1      -0.311  10.667  20.283  0.00  0.00    +0.000 C 
ATOM     20  C   UNL     1       0.014  10.344  21.745  0.00  0.00    +0.000 C 
ATOM     21  C   UNL     1       0.595   8.943  21.967  0.00  0.00    +0.000 C 
ATOM     22  C   UNL     1       1.695   8.614  20.961  0.00  0.00    +0.000 C 
ENDBRANCH   8  17
BRANCH  12  23
ATOM     23  C   UNL     1       6.506   4.578  16.671  0.00  0.00    +0.000 C 
ATOM     24  F   UNL     1       7.411   4.944  15.727  0.00  0.00    +0.000 F 
ATOM     25  F   UNL     1       7.222   4.262  17.782  0.00  0.00    +0.000 F 
ATOM     26  F   UNL     1       5.938   3.425  16.229  0.00  0.00    +0.000 F 
ENDBRANCH  12  23
TORSDOF 2
ENDMDL
MODEL 7
REMARK VINA RESULT:      -8.1      5.114      7.699
REMARK  Name = 
REMARK  2 active torsions:
REMARK  status: ('A' for Active; 'I' for Inactive)
REMARK    1  A    between atoms: N_8  and  C_9
REMARK    2  A    between atoms: C_18  and  C_19
REMARK                            x       y       z     vdW  Elec       q    Type
REMARK                         _______ _______ _______ _____ _____    ______ ____
ROOT
ATOM      1  F   UNL     1      -1.230  12.312  23.133  0.00  0.00    +0.000 F 
ATOM      2  C   UNL     1      -0.660  11.224  22.600  0.00  0.00    +0.000 A 
ATOM      3  C   UNL     1      -0.747  10.017  23.279  0.00  0.00    +0.000 A 
ATOM      4  C   UNL     1      -0.163   8.887  22.729  0.00  0.00    +0.000 A 
ATOM      5  C   UNL     1       0.499   8.970  21.502  0.00  0.00    +0.000 A 
ATOM      6  N   UNL     1       1.036   7.777  21.016  0.00  0.00    +0.000 NA
ATOM      7  C   UNL     1       1.676   7.738  19.884  0.00  0.00    +0.000 A 
ATOM      8  N   UNL     1       2.187   6.542  19.443  0.00  0.00    +0.000 N 
ATOM      9  C   UNL     1       1.807   8.970  19.138  0.00  0.00    +0.000 A 
ATOM     10  N   UNL     1       2.399   9.119  17.973  0.00  0.00    +0.000 NA
ATOM     11  N   UNL     1       2.266  10.444  17.639  0.00  0.00    +0.000 NA
ATOM     12  C   UNL     1       1.599  11.068  18.601  0.00  0.00    +0.000 A 
ATOM     13  N   UNL     1       1.279  10.156  19.587  0.00  0.00    +0.000 N 
ATOM     14  C   UNL     1       0.586  10.202  20.819  0.00  0.00    +0.000 A 
ATOM     15  C   UNL     1       0.003  11.339  21.373  0.00  0.00    +0.000 A 
ATOM     16  H   UNL     1       2.568   6.560  18.500  0.00  0.00    +0.000 HD
ENDROOT
BRANCH   8  17
ATOM     17  C   UNL     1       1.757   5.236  19.915  0.00  0.00    +0.000 C 
ATOM     18  C   UNL     1       2.693   4.659  20.981  0.00  0.00    +0.000 C 
ATOM     19  C   UNL     1       2.039   3.429  21.612  0.00  0.00    +0.000 C 
ATOM     20  C   UNL     1       1.588   2.389  20.580  0.00  0.00    +0.000 C 
ATOM     21  C   UNL     1       0.859   2.979  19.368  0.00  0.00    +0.000 C 
ATOM     22  C   UNL     1       1.583   4.198  18.801  0.00  0.00    +0.000 C 
ENDBRANCH   8  17
BRANCH  12  23
ATOM     23  C   UNL     1       1.249  12.498  18.616  0.00  0.00    +0.000 C 
ATOM     24  F   UNL     1       1.626  13.127  19.759  0.00  0.00    +0.000 F 
ATOM     25  F   UNL     1       1.837  13.178  17.596  0.00  0.00    +0.000 F 
ATOM     26  F   UNL     1      -0.091  12.693  18.497  0.00  0.00    +0.000 F 
ENDBRANCH  12  23
TORSDOF 2
ENDMDL
MODEL 8
REMARK VINA RESULT:      -7.9      0.592      1.148
REMARK  Name = 
REMARK  2 active torsions:
REMARK  status: ('A' for Active; 'I' for Inactive)
REMARK    1  A    between atoms: N_8  and  C_9
REMARK    2  A    between atoms: C_18  and  C_19
REMARK                            x       y       z     vdW  Elec       q    Type
REMARK                         _______ _______ _______ _____ _____    ______ ____
ROOT
ATOM      1  F   UNL     1       3.294   1.066  18.276  0.00  0.00    +0.000 F 
ATOM      2  C   UNL     1       3.074   2.386  18.247  0.00  0.00    +0.000 A 
ATOM      3  C   UNL     1       1.904   2.887  18.801  0.00  0.00    +0.000 A 
ATOM      4  C   UNL     1       1.674   4.253  18.778  0.00  0.00    +0.000 A 
ATOM      5  C   UNL     1       2.618   5.110  18.206  0.00  0.00    +0.000 A 
ATOM      6  N   UNL     1       2.312   6.471  18.249  0.00  0.00    +0.000 NA
ATOM      7  C   UNL     1       3.117   7.359  17.745  0.00  0.00    +0.000 A 
ATOM      8  N   UNL     1       2.777   8.688  17.810  0.00  0.00    +0.000 N 
ATOM      9  C   UNL     1       4.348   6.894  17.145  0.00  0.00    +0.000 A 
ATOM     10  N   UNL     1       5.287   7.640  16.607  0.00  0.00    +0.000 NA
ATOM     11  N   UNL     1       6.270   6.781  16.184  0.00  0.00    +0.000 NA
ATOM     12  C   UNL     1       5.911   5.537  16.475  0.00  0.00    +0.000 A 
ATOM     13  N   UNL     1       4.680   5.561  17.099  0.00  0.00    +0.000 N 
ATOM     14  C   UNL     1       3.804   4.593  17.643  0.00  0.00    +0.000 A 
ATOM     15  C   UNL     1       4.033   3.219  17.662  0.00  0.00    +0.000 A 
ATOM     16  H   UNL     1       3.502   9.332  17.507  0.00  0.00    +0.000 HD
ENDROOT
BRANCH   8  17
ATOM     17  C   UNL     1       1.795   9.245  18.727  0.00  0.00    +0.000 C 
ATOM     18  C   UNL     1       1.628   8.399  19.993  0.00  0.00    +0.000 C 
ATOM     19  C   UNL     1       0.794   9.177  21.012  0.00  0.00    +0.000 C 
ATOM     20  C   UNL     1      -0.538   9.679  20.444  0.00  0.00    +0.000 C 
ATOM     21  C   UNL     1      -0.429  10.314  19.053  0.00  0.00    +0.000 C 
ATOM     22  C   UNL     1       0.415   9.468  18.102  0.00  0.00    +0.000 C 
ENDBRANCH   8  17
BRANCH  12  23
ATOM     23  C   UNL     1       6.697   4.326  16.187  0.00  0.00    +0.000 C 
ATOM     24  F   UNL     1       5.938   3.290  15.745  0.00  0.00    +0.000 F 
ATOM     25  F   UNL     1       7.637   4.544  15.229  0.00  0.00    +0.000 F 
ATOM     26  F   UNL     1       7.356   3.875  17.287  0.00  0.00    +0.000 F 
ENDBRANCH  12  23
TORSDOF 2
ENDMDL
MODEL 9
REMARK VINA RESULT:      -7.8      0.931      1.582
REMARK  Name = 
REMARK  2 active torsions:
REMARK  status: ('A' for Active; 'I' for Inactive)
REMARK    1  A    between atoms: N_8  and  C_9
REMARK    2  A    between atoms: C_18  and  C_19
REMARK                            x       y       z     vdW  Elec       q    Type
REMARK                         _______ _______ _______ _____ _____    ______ ____
ROOT
ATOM      1  F   UNL     1       4.788   1.426  19.966  0.00  0.00    +0.000 F 
ATOM      2  C   UNL     1       4.283   2.639  19.709  0.00  0.00    +0.000 A 
ATOM      3  C   UNL     1       3.252   3.121  20.503  0.00  0.00    +0.000 A 
ATOM      4  C   UNL     1       2.730   4.378  20.244  0.00  0.00    +0.000 A 
ATOM      5  C   UNL     1       3.245   5.147  19.197  0.00  0.00    +0.000 A 
ATOM      6  N   UNL     1       2.673   6.408  19.026  0.00  0.00    +0.000 NA
ATOM      7  C   UNL     1       3.073   7.207  18.081  0.00  0.00    +0.000 A 
ATOM      8  N   UNL     1       2.482   8.440  17.950  0.00  0.00    +0.000 N 
ATOM      9  C   UNL     1       4.138   6.752  17.216  0.00  0.00    +0.000 A 
ATOM     10  N   UNL     1       4.683   7.424  16.226  0.00  0.00    +0.000 NA
ATOM     11  N   UNL     1       5.659   6.616  15.700  0.00  0.00    +0.000 NA
ATOM     12  C   UNL     1       5.689   5.476  16.378  0.00  0.00    +0.000 A 
ATOM     13  N   UNL     1       4.727   5.519  17.368  0.00  0.00    +0.000 N 
ATOM     14  C   UNL     1       4.291   4.647  18.393  0.00  0.00    +0.000 A 
ATOM     15  C   UNL     1       4.814   3.382  18.650  0.00  0.00    +0.000 A 
ATOM     16  H   UNL     1       2.922   9.056  17.272  0.00  0.00    +0.000 HD
ENDROOT
BRANCH   8  17
ATOM     17  C   UNL     1       1.723   9.107  18.995  0.00  0.00    +0.000 C 
ATOM     18  C   UNL     1       1.471   8.204  20.206  0.00  0.00    +0.000 C 
ATOM     19  C   UNL     1       0.912   9.045  21.354  0.00  0.00    +0.000 C 
ATOM     20  C   UNL     1      -0.316   9.871  20.954  0.00  0.00    +0.000 C 
ATOM     21  C   UNL     1      -0.178  10.593  19.609  0.00  0.00    +0.000 C 
ATOM     22  C   UNL     1       0.381   9.678  18.522  0.00  0.00    +0.000 C 
ENDBRANCH   8  17
BRANCH  12  23
ATOM     23  C   UNL     1       6.600   4.347  16.125  0.00  0.00    +0.000 C 
ATOM     24  F   UNL     1       7.417   4.077  17.174  0.00  0.00    +0.000 F 
ATOM     25  F   UNL     1       5.925   3.197  15.862  0.00  0.00    +0.000 F 
ATOM     26  F   UNL     1       7.410   4.579  15.058  0.00  0.00    +0.000 F 
ENDBRANCH  12  23
TORSDOF 2
ENDMDL
