MODEL 1
REMARK VINA RESULT:      -8.5      0.000      0.000
REMARK  Name = 
REMARK  5 active torsions:
REMARK  status: ('A' for Active; 'I' for Inactive)
REMARK    1  A    between atoms: C_1  and  N_2
REMARK    2  A    between atoms: N_2  and  C_3
REMARK    3  A    between atoms: N_2  and  C_4
REMARK    4  A    between atoms: C_4  and  C_5
REMARK    5  A    between atoms: N_20  and  C_21
REMARK                            x       y       z     vdW  Elec       q    Type
REMARK                         _______ _______ _______ _____ _____    ______ ____
ROOT
ATOM      1  C   UNL     1       2.533   6.733  20.055  0.00  0.00    +0.000 C 
ATOM      2  C   UNL     1       3.526   6.315  19.014  0.00  0.00    +0.000 A 
ATOM      3  N   UNL     1       4.412   5.284  19.168  0.00  0.00    +0.000 N 
ATOM      4  C   UNL     1       5.211   5.179  18.051  0.00  0.00    +0.000 A 
ATOM      5  C   UNL     1       6.260   4.294  17.775  0.00  0.00    +0.000 A 
ATOM      6  C   UNL     1       6.881   4.396  16.526  0.00  0.00    +0.000 A 
ATOM      7  C   UNL     1       6.470   5.348  15.596  0.00  0.00    +0.000 A 
ATOM      8  C   UNL     1       5.436   6.242  15.897  0.00  0.00    +0.000 A 
ATOM      9  C   UNL     1       4.795   6.161  17.149  0.00  0.00    +0.000 A 
ATOM     10  C   UNL     1       3.755   6.891  17.785  0.00  0.00    +0.000 A 
ATOM     11  C   UNL     1       2.995   8.085  17.352  0.00  0.00    +0.000 C 
ATOM     12  C   UNL     1       1.668   8.179  18.131  0.00  0.00    +0.000 C 
ATOM     13  N   UNL     1       1.811   7.955  19.592  0.00  0.00    +0.000 N 
ATOM     14  C   UNL     1       1.173   8.659  20.609  0.00  0.00    +0.000 C 
ATOM     15  O   UNL     1       1.391   8.379  21.785  0.00  0.00    +0.000 OA
ATOM     16  N   UNL     1       0.272   9.625  20.213  0.00  0.00    +0.000 N 
ATOM     17  H   UNL     1       4.453   4.672  19.973  0.00  0.00    +0.000 HD
ATOM     18  H   UNL     1      -0.079   9.556  19.273  0.00  0.00    +0.000 HD
ENDROOT
BRANCH  16  19
ATOM     19  C   UNL     1      -0.459  10.465  21.086  0.00  0.00    +0.000 A 
ATOM     20  C   UNL     1      -0.588  10.222  22.458  0.00  0.00    +0.000 A 
ATOM     21  C   UNL     1      -1.383  11.043  23.262  0.00  0.00    +0.000 A 
ATOM     22  C   UNL     1      -2.045  12.135  22.706  0.00  0.00    +0.000 A 
ATOM     23 CL   UNL     1      -3.038  13.088  23.748  0.00  0.00    +0.000 Cl
ATOM     24  C   UNL     1      -1.890  12.414  21.344  0.00  0.00    +0.000 A 
ATOM     25 CL   UNL     1      -2.671  13.757  20.586  0.00  0.00    +0.000 Cl
ATOM     26  C   UNL     1      -1.092  11.588  20.541  0.00  0.00    +0.000 A 
ENDBRANCH  16  19
BRANCH   1  27
ATOM     27  C   UNL     1       1.530   5.587  20.435  0.00  0.00    +0.000 C 
BRANCH  27  29
ATOM     28  C   UNL     1       2.138   3.543  21.629  0.00  0.00    +0.000 C 
ATOM     29  N   UNL     1       2.029   4.189  20.317  0.00  0.00    +0.000 NA
ATOM     30  C   UNL     1       1.107   3.405  19.483  0.00  0.00    +0.000 C 
ENDBRANCH  27  29
ENDBRANCH   1  27
TORSDOF 3
ENDMDL
MODEL 2
REMARK VINA RESULT:      -8.3      3.278      4.888
REMARK  Name = 
REMARK  5 active torsions:
REMARK  status: ('A' for Active; 'I' for Inactive)
REMARK    1  A    between atoms: C_1  and  N_2
REMARK    2  A    between atoms: N_2  and  C_3
REMARK    3  A    between atoms: N_2  and  C_4
REMARK    4  A    between atoms: C_4  and  C_5
REMARK    5  A    between atoms: N_20  and  C_21
REMARK                            x       y       z     vdW  Elec       q    Type
REMARK                         _______ _______ _______ _____ _____    ______ ____
ROOT
ATOM      1  C   UNL     1       1.173   9.260  20.406  0.00  0.00    +0.000 C 
ATOM      2  C   UNL     1       1.660   7.893  20.030  0.00  0.00    +0.000 A 
ATOM      3  N   UNL     1       1.774   6.851  20.909  0.00  0.00    +0.000 N 
ATOM      4  C   UNL     1       2.284   5.746  20.264  0.00  0.00    +0.000 A 
ATOM      5  C   UNL     1       2.589   4.474  20.762  0.00  0.00    +0.000 A 
ATOM      6  C   UNL     1       3.068   3.522  19.857  0.00  0.00    +0.000 A 
ATOM      7  C   UNL     1       3.239   3.834  18.510  0.00  0.00    +0.000 A 
ATOM      8  C   UNL     1       2.952   5.118  18.032  0.00  0.00    +0.000 A 
ATOM      9  C   UNL     1       2.469   6.096  18.924  0.00  0.00    +0.000 A 
ATOM     10  C   UNL     1       2.104   7.463  18.801  0.00  0.00    +0.000 A 
ATOM     11  C   UNL     1       2.168   8.390  17.648  0.00  0.00    +0.000 C 
ATOM     12  C   UNL     1       1.205   9.574  17.868  0.00  0.00    +0.000 C 
ATOM     13  N   UNL     1       1.283  10.168  19.227  0.00  0.00    +0.000 N 
ATOM     14  C   UNL     1       1.249  11.522  19.546  0.00  0.00    +0.000 C 
ATOM     15  O   UNL     1       1.336  11.883  20.717  0.00  0.00    +0.000 OA
ATOM     16  N   UNL     1       1.067  12.396  18.495  0.00  0.00    +0.000 N 
ATOM     17  H   UNL     1       1.499   6.881  21.882  0.00  0.00    +0.000 HD
ATOM     18  H   UNL     1       0.684  12.009  17.649  0.00  0.00    +0.000 HD
ENDROOT
BRANCH  16  19
ATOM     19  C   UNL     1       1.031  13.806  18.603  0.00  0.00    +0.000 A 
ATOM     20  C   UNL     1      -0.146  14.530  18.818  0.00  0.00    +0.000 A 
ATOM     21  C   UNL     1      -0.137  15.927  18.842  0.00  0.00    +0.000 A 
ATOM     22  C   UNL     1       1.059  16.621  18.673  0.00  0.00    +0.000 A 
ATOM     23 CL   UNL     1       0.995  18.346  18.680  0.00  0.00    +0.000 Cl
ATOM     24  C   UNL     1       2.250  15.908  18.500  0.00  0.00    +0.000 A 
ATOM     25 CL   UNL     1       3.773  16.698  18.294  0.00  0.00    +0.000 Cl
ATOM     26  C   UNL     1       2.236  14.506  18.475  0.00  0.00    +0.000 A 
ENDBRANCH  16  19
BRANCH   1  27
ATOM     27  C   UNL     1      -0.285   9.250  20.986  0.00  0.00    +0.000 C 
BRANCH  27  29
ATOM     28  C   UNL     1       0.882   9.392  23.129  0.00  0.00    +0.000 C 
ATOM     29  N   UNL     1      -0.424   9.411  22.460  0.00  0.00    +0.000 NA
ATOM     30  C   UNL     1      -1.084  10.690  22.758  0.00  0.00    +0.000 C 
ENDBRANCH  27  29
ENDBRANCH   1  27
TORSDOF 3
ENDMDL
MODEL 3
REMARK VINA RESULT:      -8.1      4.204      9.246
REMARK  Name = 
REMARK  5 active torsions:
REMARK  status: ('A' for Active; 'I' for Inactive)
REMARK    1  A    between atoms: C_1  and  N_2
REMARK    2  A    between atoms: N_2  and  C_3
REMARK    3  A    between atoms: N_2  and  C_4
REMARK    4  A    between atoms: C_4  and  C_5
REMARK    5  A    between atoms: N_20  and  C_21
REMARK                            x       y       z     vdW  Elec       q    Type
REMARK                         _______ _______ _______ _____ _____    ______ ____
ROOT
ATOM      1  C   UNL     1       0.141  10.428  18.609  0.00  0.00    +0.000 C 
ATOM      2  C   UNL     1      -0.376  11.354  19.668  0.00  0.00    +0.000 A 
ATOM      3  N   UNL     1      -1.078  12.500  19.409  0.00  0.00    +0.000 N 
ATOM      4  C   UNL     1      -1.376  13.146  20.588  0.00  0.00    +0.000 A 
ATOM      5  C   UNL     1      -2.053  14.351  20.808  0.00  0.00    +0.000 A 
ATOM      6  C   UNL     1      -2.244  14.753  22.134  0.00  0.00    +0.000 A 
ATOM      7  C   UNL     1      -1.773  13.981  23.193  0.00  0.00    +0.000 A 
ATOM      8  C   UNL     1      -1.077  12.790  22.957  0.00  0.00    +0.000 A 
ATOM      9  C   UNL     1      -0.870  12.363  21.630  0.00  0.00    +0.000 A 
ATOM     10  C   UNL     1      -0.212  11.256  21.031  0.00  0.00    +0.000 A 
ATOM     11  C   UNL     1       0.571  10.148  21.624  0.00  0.00    +0.000 C 
ATOM     12  C   UNL     1       0.632   8.959  20.645  0.00  0.00    +0.000 C 
ATOM     13  N   UNL     1       0.949   9.346  19.247  0.00  0.00    +0.000 N 
ATOM     14  C   UNL     1       1.797   8.677  18.370  0.00  0.00    +0.000 C 
ATOM     15  O   UNL     1       1.983   9.114  17.237  0.00  0.00    +0.000 OA
ATOM     16  N   UNL     1       2.353   7.503  18.832  0.00  0.00    +0.000 N 
ATOM     17  H   UNL     1      -1.360  12.811  18.488  0.00  0.00    +0.000 HD
ATOM     18  H   UNL     1       1.898   7.066  19.615  0.00  0.00    +0.000 HD
ENDROOT
BRANCH  16  19
ATOM     19  C   UNL     1       3.258   6.690  18.109  0.00  0.00    +0.000 A 
ATOM     20  C   UNL     1       4.295   7.205  17.324  0.00  0.00    +0.000 A 
ATOM     21  C   UNL     1       5.115   6.360  16.570  0.00  0.00    +0.000 A 
ATOM     22  C   UNL     1       4.921   4.981  16.610  0.00  0.00    +0.000 A 
ATOM     23 CL   UNL     1       5.946   3.998  15.630  0.00  0.00    +0.000 Cl
ATOM     24  C   UNL     1       3.915   4.451  17.425  0.00  0.00    +0.000 A 
ATOM     25 CL   UNL     1       3.622   2.751  17.535  0.00  0.00    +0.000 Cl
ATOM     26  C   UNL     1       3.095   5.302  18.178  0.00  0.00    +0.000 A 
ENDBRANCH  16  19
BRANCH   1  27
ATOM     27  C   UNL     1      -0.999   9.834  17.708  0.00  0.00    +0.000 C 
BRANCH  27  29
ATOM     28  C   UNL     1      -2.471  11.175  16.291  0.00  0.00    +0.000 C 
ATOM     29  N   UNL     1      -2.267  10.610  17.630  0.00  0.00    +0.000 NA
ATOM     30  C   UNL     1      -3.404   9.733  17.946  0.00  0.00    +0.000 C 
ENDBRANCH  27  29
ENDBRANCH   1  27
TORSDOF 3
ENDMDL
MODEL 4
REMARK VINA RESULT:      -8.0      3.078      4.800
REMARK  Name = 
REMARK  5 active torsions:
REMARK  status: ('A' for Active; 'I' for Inactive)
REMARK    1  A    between atoms: C_1  and  N_2
REMARK    2  A    between atoms: N_2  and  C_3
REMARK    3  A    between atoms: N_2  and  C_4
REMARK    4  A    between atoms: C_4  and  C_5
REMARK    5  A    between atoms: N_20  and  C_21
REMARK                            x       y       z     vdW  Elec       q    Type
REMARK                         _______ _______ _______ _____ _____    ______ ____
ROOT
ATOM      1  C   UNL     1       1.141   9.513  20.419  0.00  0.00    +0.000 C 
ATOM      2  C   UNL     1       1.608   8.145  20.028  0.00  0.00    +0.000 A 
ATOM      3  N   UNL     1       1.669   7.080  20.885  0.00  0.00    +0.000 N 
ATOM      4  C   UNL     1       2.175   5.978  20.232  0.00  0.00    +0.000 A 
ATOM      5  C   UNL     1       2.432   4.688  20.710  0.00  0.00    +0.000 A 
ATOM      6  C   UNL     1       2.920   3.745  19.800  0.00  0.00    +0.000 A 
ATOM      7  C   UNL     1       3.142   4.083  18.467  0.00  0.00    +0.000 A 
ATOM      8  C   UNL     1       2.902   5.384  18.009  0.00  0.00    +0.000 A 
ATOM      9  C   UNL     1       2.412   6.353  18.907  0.00  0.00    +0.000 A 
ATOM     10  C   UNL     1       2.083   7.731  18.804  0.00  0.00    +0.000 A 
ATOM     11  C   UNL     1       2.206   8.682  17.676  0.00  0.00    +0.000 C 
ATOM     12  C   UNL     1       1.264   9.884  17.892  0.00  0.00    +0.000 C 
ATOM     13  N   UNL     1       1.311  10.445  19.265  0.00  0.00    +0.000 N 
ATOM     14  C   UNL     1       1.298  11.792  19.615  0.00  0.00    +0.000 C 
ATOM     15  O   UNL     1       1.354  12.125  20.796  0.00  0.00    +0.000 OA
ATOM     16  N   UNL     1       1.171  12.693  18.578  0.00  0.00    +0.000 N 
ATOM     17  H   UNL     1       1.362   7.095  21.850  0.00  0.00    +0.000 HD
ATOM     18  H   UNL     1       0.807  12.335  17.712  0.00  0.00    +0.000 HD
ENDROOT
BRANCH  16  19
ATOM     19  C   UNL     1       1.164  14.101  18.718  0.00  0.00    +0.000 A 
ATOM     20  C   UNL     1       2.312  14.891  18.597  0.00  0.00    +0.000 A 
ATOM     21  C   UNL     1       2.262  16.270  18.819  0.00  0.00    +0.000 A 
ATOM     22  C   UNL     1       1.054  16.883  19.143  0.00  0.00    +0.000 A 
ATOM     23 CL   UNL     1       1.069  18.583  19.437  0.00  0.00    +0.000 Cl
ATOM     24  C   UNL     1      -0.109  16.110  19.225  0.00  0.00    +0.000 A 
ATOM     25 CL   UNL     1      -1.646  16.800  19.612  0.00  0.00    +0.000 Cl
ATOM     26  C   UNL     1      -0.055  14.727  19.003  0.00  0.00    +0.000 A 
ENDBRANCH  16  19
BRANCH   1  27
ATOM     27  C   UNL     1      -0.336   9.526  20.950  0.00  0.00    +0.000 C 
BRANCH  27  29
ATOM     28  C   UNL     1       0.764   9.464  23.133  0.00  0.00    +0.000 C 
ATOM     29  N   UNL     1      -0.518   9.575  22.428  0.00  0.00    +0.000 NA
ATOM     30  C   UNL     1      -1.152  10.846  22.805  0.00  0.00    +0.000 C 
ENDBRANCH  27  29
ENDBRANCH   1  27
TORSDOF 3
ENDMDL
MODEL 5
REMARK VINA RESULT:      -7.9      4.131      9.172
REMARK  Name = 
REMARK  5 active torsions:
REMARK  status: ('A' for Active; 'I' for Inactive)
REMARK    1  A    between atoms: C_1  and  N_2
REMARK    2  A    between atoms: N_2  and  C_3
REMARK    3  A    between atoms: N_2  and  C_4
REMARK    4  A    between atoms: C_4  and  C_5
REMARK    5  A    between atoms: N_20  and  C_21
REMARK                            x       y       z     vdW  Elec       q    Type
REMARK                         _______ _______ _______ _____ _____    ______ ____
ROOT
ATOM      1  C   UNL     1       0.194  10.378  18.635  0.00  0.00    +0.000 C 
ATOM      2  C   UNL     1      -0.356  11.284  19.693  0.00  0.00    +0.000 A 
ATOM      3  N   UNL     1      -1.046  12.437  19.433  0.00  0.00    +0.000 N 
ATOM      4  C   UNL     1      -1.381  13.061  20.615  0.00  0.00    +0.000 A 
ATOM      5  C   UNL     1      -2.063  14.264  20.835  0.00  0.00    +0.000 A 
ATOM      6  C   UNL     1      -2.297  14.641  22.161  0.00  0.00    +0.000 A 
ATOM      7  C   UNL     1      -1.863  13.848  23.220  0.00  0.00    +0.000 A 
ATOM      8  C   UNL     1      -1.162  12.660  22.984  0.00  0.00    +0.000 A 
ATOM      9  C   UNL     1      -0.912  12.258  21.657  0.00  0.00    +0.000 A 
ATOM     10  C   UNL     1      -0.237  11.160  21.059  0.00  0.00    +0.000 A 
ATOM     11  C   UNL     1       0.525  10.040  21.657  0.00  0.00    +0.000 C 
ATOM     12  C   UNL     1       0.615   8.869  20.657  0.00  0.00    +0.000 C 
ATOM     13  N   UNL     1       0.979   9.282  19.278  0.00  0.00    +0.000 N 
ATOM     14  C   UNL     1       1.854   8.627  18.417  0.00  0.00    +0.000 C 
ATOM     15  O   UNL     1       2.079   9.085  17.299  0.00  0.00    +0.000 OA
ATOM     16  N   UNL     1       2.393   7.443  18.874  0.00  0.00    +0.000 N 
ATOM     17  H   UNL     1      -1.296  12.766  18.509  0.00  0.00    +0.000 HD
ATOM     18  H   UNL     1       1.911   6.992  19.634  0.00  0.00    +0.000 HD
ENDROOT
BRANCH  16  19
ATOM     19  C   UNL     1       3.320   6.642  18.167  0.00  0.00    +0.000 A 
ATOM     20  C   UNL     1       3.030   5.352  17.711  0.00  0.00    +0.000 A 
ATOM     21  C   UNL     1       4.007   4.574  17.083  0.00  0.00    +0.000 A 
ATOM     22  C   UNL     1       5.285   5.088  16.881  0.00  0.00    +0.000 A 
ATOM     23 CL   UNL     1       6.453   4.063  16.130  0.00  0.00    +0.000 Cl
ATOM     24  C   UNL     1       5.576   6.393  17.293  0.00  0.00    +0.000 A 
ATOM     25 CL   UNL     1       7.135   7.103  17.068  0.00  0.00    +0.000 Cl
ATOM     26  C   UNL     1       4.594   7.169  17.924  0.00  0.00    +0.000 A 
ENDBRANCH  16  19
BRANCH   1  27
ATOM     27  C   UNL     1      -0.916   9.803  17.686  0.00  0.00    +0.000 C 
BRANCH  27  29
ATOM     28  C   UNL     1      -2.442  11.183  16.364  0.00  0.00    +0.000 C 
ATOM     29  N   UNL     1      -2.217  10.528  17.658  0.00  0.00    +0.000 NA
ATOM     30  C   UNL     1      -3.314   9.581  17.901  0.00  0.00    +0.000 C 
ENDBRANCH  27  29
ENDBRANCH   1  27
TORSDOF 3
ENDMDL
MODEL 6
REMARK VINA RESULT:      -7.7      4.451      9.025
REMARK  Name = 
REMARK  5 active torsions:
REMARK  status: ('A' for Active; 'I' for Inactive)
REMARK    1  A    between atoms: C_1  and  N_2
REMARK    2  A    between atoms: N_2  and  C_3
REMARK    3  A    between atoms: N_2  and  C_4
REMARK    4  A    between atoms: C_4  and  C_5
REMARK    5  A    between atoms: N_20  and  C_21
REMARK                            x       y       z     vdW  Elec       q    Type
REMARK                         _______ _______ _______ _____ _____    ______ ____
ROOT
ATOM      1  C   UNL     1      -0.033  11.552  18.592  0.00  0.00    +0.000 C 
ATOM      2  C   UNL     1       0.060  12.991  18.996  0.00  0.00    +0.000 A 
ATOM      3  N   UNL     1      -0.568  14.015  18.339  0.00  0.00    +0.000 N 
ATOM      4  C   UNL     1      -0.253  15.217  18.933  0.00  0.00    +0.000 A 
ATOM      5  C   UNL     1      -0.643  16.518  18.592  0.00  0.00    +0.000 A 
ATOM      6  C   UNL     1      -0.194  17.562  19.406  0.00  0.00    +0.000 A 
ATOM      7  C   UNL     1       0.613  17.313  20.513  0.00  0.00    +0.000 A 
ATOM      8  C   UNL     1       1.014  16.009  20.828  0.00  0.00    +0.000 A 
ATOM      9  C   UNL     1       0.577  14.939  20.022  0.00  0.00    +0.000 A 
ATOM     10  C   UNL     1       0.793  13.535  20.026  0.00  0.00    +0.000 A 
ATOM     11  C   UNL     1       1.643  12.682  20.887  0.00  0.00    +0.000 C 
ATOM     12  C   UNL     1       1.151  11.221  20.835  0.00  0.00    +0.000 C 
ATOM     13  N   UNL     1       0.861  10.732  19.463  0.00  0.00    +0.000 N 
ATOM     14  C   UNL     1       1.169   9.479  18.944  0.00  0.00    +0.000 C 
ATOM     15  O   UNL     1       0.884   9.204  17.781  0.00  0.00    +0.000 OA
ATOM     16  N   UNL     1       1.753   8.582  19.814  0.00  0.00    +0.000 N 
ATOM     17  H   UNL     1      -1.191  13.900  17.550  0.00  0.00    +0.000 HD
ATOM     18  H   UNL     1       1.645   8.771  20.796  0.00  0.00    +0.000 HD
ENDROOT
BRANCH  16  19
ATOM     19  C   UNL     1       2.165   7.271  19.477  0.00  0.00    +0.000 A 
ATOM     20  C   UNL     1       2.931   6.972  18.346  0.00  0.00    +0.000 A 
ATOM     21  C   UNL     1       3.248   5.651  18.019  0.00  0.00    +0.000 A 
ATOM     22  C   UNL     1       2.820   4.607  18.837  0.00  0.00    +0.000 A 
ATOM     23 CL   UNL     1       3.217   2.998  18.358  0.00  0.00    +0.000 Cl
ATOM     24  C   UNL     1       2.090   4.896  19.995  0.00  0.00    +0.000 A 
ATOM     25 CL   UNL     1       1.533   3.656  21.063  0.00  0.00    +0.000 Cl
ATOM     26  C   UNL     1       1.773   6.222  20.318  0.00  0.00    +0.000 A 
ENDBRANCH  16  19
BRANCH   1  27
ATOM     27  C   UNL     1      -1.504  11.006  18.610  0.00  0.00    +0.000 C 
BRANCH  27  29
ATOM     28  C   UNL     1      -2.378  10.390  16.412  0.00  0.00    +0.000 C 
ATOM     29  N   UNL     1      -2.382  11.402  17.474  0.00  0.00    +0.000 NA
ATOM     30  C   UNL     1      -3.761  11.573  17.953  0.00  0.00    +0.000 C 
ENDBRANCH  27  29
ENDBRANCH   1  27
TORSDOF 3
ENDMDL
MODEL 7
REMARK VINA RESULT:      -7.6      3.240      5.876
REMARK  Name = 
REMARK  5 active torsions:
REMARK  status: ('A' for Active; 'I' for Inactive)
REMARK    1  A    between atoms: C_1  and  N_2
REMARK    2  A    between atoms: N_2  and  C_3
REMARK    3  A    between atoms: N_2  and  C_4
REMARK    4  A    between atoms: C_4  and  C_5
REMARK    5  A    between atoms: N_20  and  C_21
REMARK                            x       y       z     vdW  Elec       q    Type
REMARK                         _______ _______ _______ _____ _____    ______ ____
ROOT
ATOM      1  C   UNL     1      -0.342  11.501  19.474  0.00  0.00    +0.000 C 
ATOM      2  C   UNL     1       0.511  10.277  19.344  0.00  0.00    +0.000 A 
ATOM      3  N   UNL     1       1.243   9.967  18.230  0.00  0.00    +0.000 N 
ATOM      4  C   UNL     1       1.885   8.761  18.409  0.00  0.00    +0.000 A 
ATOM      5  C   UNL     1       2.717   8.047  17.539  0.00  0.00    +0.000 A 
ATOM      6  C   UNL     1       3.267   6.849  18.008  0.00  0.00    +0.000 A 
ATOM      7  C   UNL     1       2.992   6.387  19.293  0.00  0.00    +0.000 A 
ATOM      8  C   UNL     1       2.139   7.102  20.143  0.00  0.00    +0.000 A 
ATOM      9  C   UNL     1       1.571   8.310  19.694  0.00  0.00    +0.000 A 
ATOM     10  C   UNL     1       0.675   9.259  20.256  0.00  0.00    +0.000 A 
ATOM     11  C   UNL     1      -0.050   9.271  21.546  0.00  0.00    +0.000 C 
ATOM     12  C   UNL     1      -0.471  10.711  21.903  0.00  0.00    +0.000 C 
ATOM     13  N   UNL     1      -1.078  11.458  20.773  0.00  0.00    +0.000 N 
ATOM     14  C   UNL     1      -2.179  12.306  20.832  0.00  0.00    +0.000 C 
ATOM     15  O   UNL     1      -2.591  12.856  19.813  0.00  0.00    +0.000 OA
ATOM     16  N   UNL     1      -2.725  12.516  22.081  0.00  0.00    +0.000 N 
ATOM     17  H   UNL     1       1.322  10.551  17.408  0.00  0.00    +0.000 HD
ATOM     18  H   UNL     1      -2.140  12.301  22.870  0.00  0.00    +0.000 HD
ENDROOT
BRANCH  16  19
ATOM     19  C   UNL     1      -3.859  13.319  22.351  0.00  0.00    +0.000 A 
ATOM     20  C   UNL     1      -3.775  14.647  22.780  0.00  0.00    +0.000 A 
ATOM     21  C   UNL     1      -4.925  15.372  23.104  0.00  0.00    +0.000 A 
ATOM     22  C   UNL     1      -6.181  14.782  22.983  0.00  0.00    +0.000 A 
ATOM     23 CL   UNL     1      -7.557  15.721  23.432  0.00  0.00    +0.000 Cl
ATOM     24  C   UNL     1      -6.281  13.467  22.513  0.00  0.00    +0.000 A 
ATOM     25 CL   UNL     1      -7.803  12.671  22.326  0.00  0.00    +0.000 Cl
ATOM     26  C   UNL     1      -5.125  12.743  22.190  0.00  0.00    +0.000 A 
ENDBRANCH  16  19
BRANCH   1  27
ATOM     27  C   UNL     1       0.474  12.833  19.325  0.00  0.00    +0.000 C 
BRANCH  27  29
ATOM     28  C   UNL     1       2.618  13.318  18.253  0.00  0.00    +0.000 C 
ATOM     29  N   UNL     1       1.957  12.727  19.422  0.00  0.00    +0.000 NA
ATOM     30  C   UNL     1       2.424  13.426  20.628  0.00  0.00    +0.000 C 
ENDBRANCH  27  29
ENDBRANCH   1  27
TORSDOF 3
ENDMDL
MODEL 8
REMARK VINA RESULT:      -7.5      3.206      5.915
REMARK  Name = 
REMARK  5 active torsions:
REMARK  status: ('A' for Active; 'I' for Inactive)
REMARK    1  A    between atoms: C_1  and  N_2
REMARK    2  A    between atoms: N_2  and  C_3
REMARK    3  A    between atoms: N_2  and  C_4
REMARK    4  A    between atoms: C_4  and  C_5
REMARK    5  A    between atoms: N_20  and  C_21
REMARK                            x       y       z     vdW  Elec       q    Type
REMARK                         _______ _______ _______ _____ _____    ______ ____
ROOT
ATOM      1  C   UNL     1      -0.387  11.552  19.599  0.00  0.00    +0.000 C 
ATOM      2  C   UNL     1       0.474  10.340  19.417  0.00  0.00    +0.000 A 
ATOM      3  N   UNL     1       1.185  10.067  18.280  0.00  0.00    +0.000 N 
ATOM      4  C   UNL     1       1.842   8.864  18.413  0.00  0.00    +0.000 A 
ATOM      5  C   UNL     1       2.661   8.180  17.507  0.00  0.00    +0.000 A 
ATOM      6  C   UNL     1       3.232   6.976  17.931  0.00  0.00    +0.000 A 
ATOM      7  C   UNL     1       2.989   6.478  19.209  0.00  0.00    +0.000 A 
ATOM      8  C   UNL     1       2.149   7.161  20.096  0.00  0.00    +0.000 A 
ATOM      9  C   UNL     1       1.560   8.375  19.692  0.00  0.00    +0.000 A 
ATOM     10  C   UNL     1       0.668   9.300  20.298  0.00  0.00    +0.000 A 
ATOM     11  C   UNL     1      -0.029   9.271  21.604  0.00  0.00    +0.000 C 
ATOM     12  C   UNL     1      -0.455  10.697  22.008  0.00  0.00    +0.000 C 
ATOM     13  N   UNL     1      -1.094  11.467  20.912  0.00  0.00    +0.000 N 
ATOM     14  C   UNL     1      -2.201  12.303  21.017  0.00  0.00    +0.000 C 
ATOM     15  O   UNL     1      -2.640  12.876  20.022  0.00  0.00    +0.000 OA
ATOM     16  N   UNL     1      -2.722  12.475  22.282  0.00  0.00    +0.000 N 
ATOM     17  H   UNL     1       1.240  10.674  17.472  0.00  0.00    +0.000 HD
ATOM     18  H   UNL     1      -2.117  12.244  23.053  0.00  0.00    +0.000 HD
ENDROOT
BRANCH  16  19
ATOM     19  C   UNL     1      -3.856  13.258  22.598  0.00  0.00    +0.000 A 
ATOM     20  C   UNL     1      -5.126  13.024  22.060  0.00  0.00    +0.000 A 
ATOM     21  C   UNL     1      -6.197  13.875  22.348  0.00  0.00    +0.000 A 
ATOM     22  C   UNL     1      -6.017  14.963  23.198  0.00  0.00    +0.000 A 
ATOM     23 CL   UNL     1      -7.372  15.992  23.484  0.00  0.00    +0.000 Cl
ATOM     24  C   UNL     1      -4.762  15.183  23.777  0.00  0.00    +0.000 A 
ATOM     25 CL   UNL     1      -4.463  16.506  24.849  0.00  0.00    +0.000 Cl
ATOM     26  C   UNL     1      -3.690  14.329  23.485  0.00  0.00    +0.000 A 
ENDBRANCH  16  19
BRANCH   1  27
ATOM     27  C   UNL     1       0.414  12.895  19.468  0.00  0.00    +0.000 C 
BRANCH  27  29
ATOM     28  C   UNL     1       2.522  13.423  18.348  0.00  0.00    +0.000 C 
ATOM     29  N   UNL     1       1.899  12.800  19.521  0.00  0.00    +0.000 NA
ATOM     30  C   UNL     1       2.394  13.477  20.729  0.00  0.00    +0.000 C 
ENDBRANCH  27  29
ENDBRANCH   1  27
TORSDOF 3
ENDMDL
MODEL 9
REMARK VINA RESULT:      -7.5      4.518      8.969
REMARK  Name = 
REMARK  5 active torsions:
REMARK  status: ('A' for Active; 'I' for Inactive)
REMARK    1  A    between atoms: C_1  and  N_2
REMARK    2  A    between atoms: N_2  and  C_3
REMARK    3  A    between atoms: N_2  and  C_4
REMARK    4  A    between atoms: C_4  and  C_5
REMARK    5  A    between atoms: N_20  and  C_21
REMARK                            x       y       z     vdW  Elec       q    Type
REMARK                         _______ _______ _______ _____ _____    ______ ____
ROOT
ATOM      1  C   UNL     1      -0.017  11.503  18.605  0.00  0.00    +0.000 C 
ATOM      2  C   UNL     1       0.083  12.953  18.967  0.00  0.00    +0.000 A 
ATOM      3  N   UNL     1      -0.517  13.963  18.265  0.00  0.00    +0.000 N 
ATOM      4  C   UNL     1      -0.202  15.180  18.829  0.00  0.00    +0.000 A 
ATOM      5  C   UNL     1      -0.569  16.473  18.440  0.00  0.00    +0.000 A 
ATOM      6  C   UNL     1      -0.127  17.537  19.232  0.00  0.00    +0.000 A 
ATOM      7  C   UNL     1       0.653  17.313  20.364  0.00  0.00    +0.000 A 
ATOM      8  C   UNL     1       1.032  16.015  20.727  0.00  0.00    +0.000 A 
ATOM      9  C   UNL     1       0.600  14.926  19.944  0.00  0.00    +0.000 A 
ATOM     10  C   UNL     1       0.800  13.520  19.996  0.00  0.00    +0.000 A 
ATOM     11  C   UNL     1       1.621  12.685  20.902  0.00  0.00    +0.000 C 
ATOM     12  C   UNL     1       1.113  11.229  20.883  0.00  0.00    +0.000 C 
ATOM     13  N   UNL     1       0.848  10.701  19.521  0.00  0.00    +0.000 N 
ATOM     14  C   UNL     1       1.153   9.429  19.047  0.00  0.00    +0.000 C 
ATOM     15  O   UNL     1       0.890   9.122  17.887  0.00  0.00    +0.000 OA
ATOM     16  N   UNL     1       1.706   8.553  19.957  0.00  0.00    +0.000 N 
ATOM     17  H   UNL     1      -1.124  13.831  17.466  0.00  0.00    +0.000 HD
ATOM     18  H   UNL     1       1.579   8.773  20.930  0.00  0.00    +0.000 HD
ENDROOT
BRANCH  16  19
ATOM     19  C   UNL     1       2.111   7.228  19.670  0.00  0.00    +0.000 A 
ATOM     20  C   UNL     1       1.756   6.128  20.459  0.00  0.00    +0.000 A 
ATOM     21  C   UNL     1       2.245   4.850  20.173  0.00  0.00    +0.000 A 
ATOM     22  C   UNL     1       3.081   4.651  19.077  0.00  0.00    +0.000 A 
ATOM     23 CL   UNL     1       3.676   3.055  18.801  0.00  0.00    +0.000 Cl
ATOM     24  C   UNL     1       3.408   5.735  18.255  0.00  0.00    +0.000 A 
ATOM     25 CL   UNL     1       4.431   5.564  16.872  0.00  0.00    +0.000 Cl
ATOM     26  C   UNL     1       2.917   7.015  18.546  0.00  0.00    +0.000 A 
ENDBRANCH  16  19
BRANCH   1  27
ATOM     27  C   UNL     1      -1.495  10.974  18.607  0.00  0.00    +0.000 C 
BRANCH  27  29
ATOM     28  C   UNL     1      -2.342  10.156  16.465  0.00  0.00    +0.000 C 
ATOM     29  N   UNL     1      -2.320  11.281  17.406  0.00  0.00    +0.000 NA
ATOM     30  C   UNL     1      -3.700  11.575  17.818  0.00  0.00    +0.000 C 
ENDBRANCH  27  29
ENDBRANCH   1  27
TORSDOF 3
ENDMDL
