MODEL 1
REMARK VINA RESULT:      -7.9      0.000      0.000
REMARK  Name = 
REMARK  5 active torsions:
REMARK  status: ('A' for Active; 'I' for Inactive)
REMARK    1  A    between atoms: C_2  and  C_3
REMARK    2  A    between atoms: C_9  and  C_10
REMARK    3  A    between atoms: C_10  and  C_12
REMARK    4  A    between atoms: C_19  and  N_20
REMARK    5  A    between atoms: C_22  and  C_23
REMARK                            x       y       z     vdW  Elec       q    Type
REMARK                         _______ _______ _______ _____ _____    ______ ____
ROOT
ATOM      1  C   UNL     1       3.654   3.811  19.878  0.00  0.00    +0.000 A 
ATOM      2  C   UNL     1       2.678   4.044  20.847  0.00  0.00    +0.000 A 
ATOM      3  N   UNL     1       2.493   3.226  21.960  0.00  0.00    +0.000 N 
ATOM      4  N   UNL     1       1.872   5.096  20.825  0.00  0.00    +0.000 NA
ATOM      5  C   UNL     1       2.121   6.000  19.869  0.00  0.00    +0.000 A 
ATOM      6  S   UNL     1       1.062   7.308  19.736  0.00  0.00    +0.000 S 
ATOM      7  C   UNL     1       2.100   8.123  18.658  0.00  0.00    +0.000 A 
ATOM      8  C   UNL     1       3.135   7.290  18.255  0.00  0.00    +0.000 A 
ATOM      9  C   UNL     1       3.139   5.987  18.915  0.00  0.00    +0.000 A 
ATOM     10  C   UNL     1       3.911   4.770  18.844  0.00  0.00    +0.000 A 
ATOM     11  H   UNL     1       2.376   2.244  21.739  0.00  0.00    +0.000 HD
ATOM     12  H   UNL     1       1.705   3.592  22.491  0.00  0.00    +0.000 HD
ENDROOT
BRANCH  10  13
ATOM     13  C   UNL     1       4.903   4.496  17.752  0.00  0.00    +0.000 A 
ATOM     14  C   UNL     1       4.441   4.060  16.483  0.00  0.00    +0.000 A 
ATOM     15  C   UNL     1       5.280   3.958  15.367  0.00  0.00    +0.000 A 
ATOM     16  C   UNL     1       6.643   4.168  15.503  0.00  0.00    +0.000 A 
ATOM     17  C   UNL     1       7.151   4.537  16.744  0.00  0.00    +0.000 A 
ATOM     18  C   UNL     1       6.289   4.761  17.834  0.00  0.00    +0.000 A 
ATOM     19 BR   UNL     1       7.125   5.559  19.353  0.00  0.00    +0.000 Br
ENDBRANCH  10  13
BRANCH   8  20
ATOM     20  N   UNL     1       4.054   7.717  17.354  0.00  0.00    +0.000 N 
ATOM     21  H   UNL     1       3.720   8.198  16.511  0.00  0.00    +0.000 HD
ATOM     22  H   UNL     1       4.903   7.197  17.166  0.00  0.00    +0.000 HD
ENDBRANCH   8  20
BRANCH   1  24
ATOM     23  N   UNL     1       4.960   1.578  20.080  0.00  0.00    +0.000 NA
ATOM     24  C   UNL     1       4.370   2.570  19.976  0.00  0.00    +0.000 C 
ENDBRANCH   1  24
BRANCH   7  25
ATOM     25  C   UNL     1       1.783   9.486  18.224  0.00  0.00    +0.000 C 
ATOM     26  O   UNL     1       2.563  10.169  17.557  0.00  0.00    +0.000 OA
BRANCH  25  27
ATOM     27  C   UNL     1       0.467  10.109  18.582  0.00  0.00    +0.000 A 
ATOM     28  C   UNL     1       0.388  10.958  19.697  0.00  0.00    +0.000 A 
ATOM     29  C   UNL     1      -0.809  11.617  19.994  0.00  0.00    +0.000 A 
ATOM     30  C   UNL     1      -1.928  11.435  19.181  0.00  0.00    +0.000 A 
ATOM     31  C   UNL     1      -1.861  10.561  18.099  0.00  0.00    +0.000 A 
ATOM     32 CL   UNL     1      -3.233  10.345  17.084  0.00  0.00    +0.000 Cl
ATOM     33  C   UNL     1      -0.682   9.874  17.815  0.00  0.00    +0.000 A 
ENDBRANCH  25  27
ENDBRANCH   7  25
TORSDOF 5
ENDMDL
MODEL 2
REMARK VINA RESULT:      -7.8      1.152      1.457
REMARK  Name = 
REMARK  5 active torsions:
REMARK  status: ('A' for Active; 'I' for Inactive)
REMARK    1  A    between atoms: C_2  and  C_3
REMARK    2  A    between atoms: C_9  and  C_10
REMARK    3  A    between atoms: C_10  and  C_12
REMARK    4  A    between atoms: C_19  and  N_20
REMARK    5  A    between atoms: C_22  and  C_23
REMARK                            x       y       z     vdW  Elec       q    Type
REMARK                         _______ _______ _______ _____ _____    ______ ____
ROOT
ATOM      1  C   UNL     1       3.645   3.812  19.873  0.00  0.00    +0.000 A 
ATOM      2  C   UNL     1       2.676   4.053  20.847  0.00  0.00    +0.000 A 
ATOM      3  N   UNL     1       2.482   3.229  21.955  0.00  0.00    +0.000 N 
ATOM      4  N   UNL     1       1.885   5.117  20.836  0.00  0.00    +0.000 NA
ATOM      5  C   UNL     1       2.145   6.024  19.885  0.00  0.00    +0.000 A 
ATOM      6  S   UNL     1       1.104   7.348  19.765  0.00  0.00    +0.000 S 
ATOM      7  C   UNL     1       2.151   8.156  18.689  0.00  0.00    +0.000 A 
ATOM      8  C   UNL     1       3.173   7.311  18.278  0.00  0.00    +0.000 A 
ATOM      9  C   UNL     1       3.159   6.003  18.928  0.00  0.00    +0.000 A 
ATOM     10  C   UNL     1       3.913   4.775  18.846  0.00  0.00    +0.000 A 
ATOM     11  H   UNL     1       2.350   2.251  21.727  0.00  0.00    +0.000 HD
ATOM     12  H   UNL     1       1.701   3.603  22.491  0.00  0.00    +0.000 HD
ENDROOT
BRANCH  10  13
ATOM     13  C   UNL     1       4.897   4.495  17.748  0.00  0.00    +0.000 A 
ATOM     14  C   UNL     1       4.427   4.046  16.488  0.00  0.00    +0.000 A 
ATOM     15  C   UNL     1       5.258   3.935  15.365  0.00  0.00    +0.000 A 
ATOM     16  C   UNL     1       6.621   4.152  15.489  0.00  0.00    +0.000 A 
ATOM     17  C   UNL     1       7.137   4.534  16.722  0.00  0.00    +0.000 A 
ATOM     18  C   UNL     1       6.283   4.765  17.817  0.00  0.00    +0.000 A 
ATOM     19 BR   UNL     1       7.127   5.580  19.322  0.00  0.00    +0.000 Br
ENDBRANCH  10  13
BRANCH   8  20
ATOM     20  N   UNL     1       4.094   7.731  17.377  0.00  0.00    +0.000 N 
ATOM     21  H   UNL     1       3.787   7.905  16.413  0.00  0.00    +0.000 HD
ATOM     22  H   UNL     1       5.055   7.407  17.401  0.00  0.00    +0.000 HD
ENDBRANCH   8  20
BRANCH   1  24
ATOM     23  N   UNL     1       4.915   1.558  20.057  0.00  0.00    +0.000 NA
ATOM     24  C   UNL     1       4.343   2.561  19.960  0.00  0.00    +0.000 C 
ENDBRANCH   1  24
BRANCH   7  25
ATOM     25  C   UNL     1       1.852   9.526  18.267  0.00  0.00    +0.000 C 
ATOM     26  O   UNL     1       2.559  10.144  17.468  0.00  0.00    +0.000 OA
BRANCH  25  27
ATOM     27  C   UNL     1       0.647  10.240  18.802  0.00  0.00    +0.000 A 
ATOM     28  C   UNL     1      -0.562  10.177  18.093  0.00  0.00    +0.000 A 
ATOM     29  C   UNL     1      -1.717  10.763  18.621  0.00  0.00    +0.000 A 
ATOM     30  C   UNL     1      -1.671  11.409  19.857  0.00  0.00    +0.000 A 
ATOM     31  C   UNL     1      -0.462  11.507  20.541  0.00  0.00    +0.000 A 
ATOM     32 CL   UNL     1      -0.402  12.289  22.072  0.00  0.00    +0.000 Cl
ATOM     33  C   UNL     1       0.701  10.956  20.006  0.00  0.00    +0.000 A 
ENDBRANCH  25  27
ENDBRANCH   7  25
TORSDOF 5
ENDMDL
MODEL 3
REMARK VINA RESULT:      -7.7      4.060      7.586
REMARK  Name = 
REMARK  5 active torsions:
REMARK  status: ('A' for Active; 'I' for Inactive)
REMARK    1  A    between atoms: C_2  and  C_3
REMARK    2  A    between atoms: C_9  and  C_10
REMARK    3  A    between atoms: C_10  and  C_12
REMARK    4  A    between atoms: C_19  and  N_20
REMARK    5  A    between atoms: C_22  and  C_23
REMARK                            x       y       z     vdW  Elec       q    Type
REMARK                         _______ _______ _______ _____ _____    ______ ____
ROOT
ATOM      1  C   UNL     1       2.245   7.079  19.317  0.00  0.00    +0.000 A 
ATOM      2  C   UNL     1       2.569   8.187  18.534  0.00  0.00    +0.000 A 
ATOM      3  N   UNL     1       2.053   9.462  18.761  0.00  0.00    +0.000 N 
ATOM      4  N   UNL     1       3.438   8.139  17.534  0.00  0.00    +0.000 NA
ATOM      5  C   UNL     1       4.086   6.977  17.382  0.00  0.00    +0.000 A 
ATOM      6  S   UNL     1       5.129   6.832  16.063  0.00  0.00    +0.000 S 
ATOM      7  C   UNL     1       5.785   5.375  16.658  0.00  0.00    +0.000 A 
ATOM      8  C   UNL     1       5.049   4.918  17.744  0.00  0.00    +0.000 A 
ATOM      9  C   UNL     1       3.982   5.824  18.162  0.00  0.00    +0.000 A 
ATOM     10  C   UNL     1       2.927   5.830  19.145  0.00  0.00    +0.000 A 
ATOM     11  H   UNL     1       1.042   9.498  18.814  0.00  0.00    +0.000 HD
ATOM     12  H   UNL     1       2.418  10.080  18.038  0.00  0.00    +0.000 HD
ENDROOT
BRANCH  10  13
ATOM     13  C   UNL     1       2.535   4.611  19.927  0.00  0.00    +0.000 A 
ATOM     14  C   UNL     1       2.676   4.612  21.339  0.00  0.00    +0.000 A 
ATOM     15  C   UNL     1       2.169   3.590  22.151  0.00  0.00    +0.000 A 
ATOM     16  C   UNL     1       1.608   2.462  21.575  0.00  0.00    +0.000 A 
ATOM     17  C   UNL     1       1.504   2.388  20.191  0.00  0.00    +0.000 A 
ATOM     18  C   UNL     1       1.900   3.471  19.383  0.00  0.00    +0.000 A 
ATOM     19 BR   UNL     1       1.396   3.317  17.549  0.00  0.00    +0.000 Br
ENDBRANCH  10  13
BRANCH   8  20
ATOM     20  N   UNL     1       5.363   3.744  18.344  0.00  0.00    +0.000 N 
ATOM     21  H   UNL     1       5.462   2.909  17.757  0.00  0.00    +0.000 HD
ATOM     22  H   UNL     1       5.015   3.503  19.266  0.00  0.00    +0.000 HD
ENDBRANCH   8  20
BRANCH   1  24
ATOM     23  N   UNL     1       0.378   7.430  21.084  0.00  0.00    +0.000 NA
ATOM     24  C   UNL     1       1.203   7.263  20.287  0.00  0.00    +0.000 C 
ENDBRANCH   1  24
BRANCH   7  25
ATOM     25  C   UNL     1       6.918   4.748  15.975  0.00  0.00    +0.000 C 
ATOM     26  O   UNL     1       7.892   4.297  16.580  0.00  0.00    +0.000 OA
BRANCH  25  27
ATOM     27  C   UNL     1       6.931   4.628  14.480  0.00  0.00    +0.000 A 
ATOM     28  C   UNL     1       7.783   5.453  13.730  0.00  0.00    +0.000 A 
ATOM     29  C   UNL     1       7.872   5.295  12.344  0.00  0.00    +0.000 A 
ATOM     30  C   UNL     1       7.117   4.314  11.702  0.00  0.00    +0.000 A 
ATOM     31  C   UNL     1       6.241   3.522  12.441  0.00  0.00    +0.000 A 
ATOM     32 CL   UNL     1       5.319   2.300  11.657  0.00  0.00    +0.000 Cl
ATOM     33  C   UNL     1       6.120   3.696  13.818  0.00  0.00    +0.000 A 
ENDBRANCH  25  27
ENDBRANCH   7  25
TORSDOF 5
ENDMDL
MODEL 4
REMARK VINA RESULT:      -7.3      3.875      8.011
REMARK  Name = 
REMARK  5 active torsions:
REMARK  status: ('A' for Active; 'I' for Inactive)
REMARK    1  A    between atoms: C_2  and  C_3
REMARK    2  A    between atoms: C_9  and  C_10
REMARK    3  A    between atoms: C_10  and  C_12
REMARK    4  A    between atoms: C_19  and  N_20
REMARK    5  A    between atoms: C_22  and  C_23
REMARK                            x       y       z     vdW  Elec       q    Type
REMARK                         _______ _______ _______ _____ _____    ______ ____
ROOT
ATOM      1  C   UNL     1      -0.078  10.817  21.807  0.00  0.00    +0.000 A 
ATOM      2  C   UNL     1      -0.144   9.579  22.446  0.00  0.00    +0.000 A 
ATOM      3  N   UNL     1      -0.929   9.340  23.573  0.00  0.00    +0.000 N 
ATOM      4  N   UNL     1       0.494   8.502  22.009  0.00  0.00    +0.000 NA
ATOM      5  C   UNL     1       1.127   8.637  20.837  0.00  0.00    +0.000 A 
ATOM      6  S   UNL     1       2.037   7.326  20.286  0.00  0.00    +0.000 S 
ATOM      7  C   UNL     1       2.236   8.029  18.745  0.00  0.00    +0.000 A 
ATOM      8  C   UNL     1       1.785   9.342  18.747  0.00  0.00    +0.000 A 
ATOM      9  C   UNL     1       1.173   9.758  20.007  0.00  0.00    +0.000 A 
ATOM     10  C   UNL     1       0.612  10.967  20.560  0.00  0.00    +0.000 A 
ATOM     11  H   UNL     1      -0.774   9.990  24.334  0.00  0.00    +0.000 HD
ATOM     12  H   UNL     1      -0.778   8.375  23.861  0.00  0.00    +0.000 HD
ENDROOT
BRANCH  10  13
ATOM     13  C   UNL     1       0.757  12.307  19.902  0.00  0.00    +0.000 A 
ATOM     14  C   UNL     1       1.931  13.072  20.126  0.00  0.00    +0.000 A 
ATOM     15  C   UNL     1       2.219  14.242  19.412  0.00  0.00    +0.000 A 
ATOM     16  C   UNL     1       1.285  14.764  18.531  0.00  0.00    +0.000 A 
ATOM     17  C   UNL     1       0.092  14.081  18.326  0.00  0.00    +0.000 A 
ATOM     18  C   UNL     1      -0.142  12.841  18.949  0.00  0.00    +0.000 A 
ATOM     19 BR   UNL     1      -1.680  11.910  18.310  0.00  0.00    +0.000 Br
ENDBRANCH  10  13
BRANCH   8  20
ATOM     20  N   UNL     1       1.896  10.111  17.637  0.00  0.00    +0.000 N 
ATOM     21  H   UNL     1       2.775  10.618  17.482  0.00  0.00    +0.000 HD
ATOM     22  H   UNL     1       1.108  10.624  17.258  0.00  0.00    +0.000 HD
ENDBRANCH   8  20
BRANCH   1  24
ATOM     23  N   UNL     1      -1.274  12.779  23.010  0.00  0.00    +0.000 NA
ATOM     24  C   UNL     1      -0.731  11.913  22.465  0.00  0.00    +0.000 C 
ENDBRANCH   1  24
BRANCH   7  25
ATOM     25  C   UNL     1       2.890   7.273  17.674  0.00  0.00    +0.000 C 
ATOM     26  O   UNL     1       3.326   7.810  16.654  0.00  0.00    +0.000 OA
BRANCH  25  27
ATOM     27  C   UNL     1       3.055   5.787  17.786  0.00  0.00    +0.000 A 
ATOM     28  C   UNL     1       4.338   5.228  17.688  0.00  0.00    +0.000 A 
ATOM     29  C   UNL     1       4.523   3.855  17.877  0.00  0.00    +0.000 A 
ATOM     30  C   UNL     1       3.430   3.037  18.167  0.00  0.00    +0.000 A 
ATOM     31  C   UNL     1       2.151   3.585  18.224  0.00  0.00    +0.000 A 
ATOM     32 CL   UNL     1       0.803   2.584  18.597  0.00  0.00    +0.000 Cl
ATOM     33  C   UNL     1       1.955   4.947  18.003  0.00  0.00    +0.000 A 
ENDBRANCH  25  27
ENDBRANCH   7  25
TORSDOF 5
ENDMDL
MODEL 5
REMARK VINA RESULT:      -7.1      1.152      1.339
REMARK  Name = 
REMARK  5 active torsions:
REMARK  status: ('A' for Active; 'I' for Inactive)
REMARK    1  A    between atoms: C_2  and  C_3
REMARK    2  A    between atoms: C_9  and  C_10
REMARK    3  A    between atoms: C_10  and  C_12
REMARK    4  A    between atoms: C_19  and  N_20
REMARK    5  A    between atoms: C_22  and  C_23
REMARK                            x       y       z     vdW  Elec       q    Type
REMARK                         _______ _______ _______ _____ _____    ______ ____
ROOT
ATOM      1  C   UNL     1       3.699   3.536  19.897  0.00  0.00    +0.000 A 
ATOM      2  C   UNL     1       2.725   3.692  20.883  0.00  0.00    +0.000 A 
ATOM      3  N   UNL     1       2.565   2.806  21.947  0.00  0.00    +0.000 N 
ATOM      4  N   UNL     1       1.897   4.725  20.927  0.00  0.00    +0.000 NA
ATOM      5  C   UNL     1       2.120   5.689  20.024  0.00  0.00    +0.000 A 
ATOM      6  S   UNL     1       1.032   6.979  19.974  0.00  0.00    +0.000 S 
ATOM      7  C   UNL     1       2.046   7.878  18.939  0.00  0.00    +0.000 A 
ATOM      8  C   UNL     1       3.096   7.092  18.483  0.00  0.00    +0.000 A 
ATOM      9  C   UNL     1       3.132   5.753  19.066  0.00  0.00    +0.000 A 
ATOM     10  C   UNL     1       3.929   4.559  18.920  0.00  0.00    +0.000 A 
ATOM     11  H   UNL     1       2.467   1.836  21.670  0.00  0.00    +0.000 HD
ATOM     12  H   UNL     1       1.772   3.123  22.503  0.00  0.00    +0.000 HD
ENDROOT
BRANCH  10  13
ATOM     13  C   UNL     1       4.919   4.371  17.808  0.00  0.00    +0.000 A 
ATOM     14  C   UNL     1       4.466   3.935  16.537  0.00  0.00    +0.000 A 
ATOM     15  C   UNL     1       5.293   3.908  15.407  0.00  0.00    +0.000 A 
ATOM     16  C   UNL     1       6.642   4.200  15.529  0.00  0.00    +0.000 A 
ATOM     17  C   UNL     1       7.145   4.573  16.770  0.00  0.00    +0.000 A 
ATOM     18  C   UNL     1       6.288   4.720  17.877  0.00  0.00    +0.000 A 
ATOM     19 BR   UNL     1       7.095   5.535  19.402  0.00  0.00    +0.000 Br
ENDBRANCH  10  13
BRANCH   8  20
ATOM     20  N   UNL     1       3.999   7.591  17.604  0.00  0.00    +0.000 N 
ATOM     21  H   UNL     1       4.606   6.931  17.104  0.00  0.00    +0.000 HD
ATOM     22  H   UNL     1       4.472   8.473  17.763  0.00  0.00    +0.000 HD
ENDBRANCH   8  20
BRANCH   1  24
ATOM     23  N   UNL     1       5.034   1.312  19.964  0.00  0.00    +0.000 NA
ATOM     24  C   UNL     1       4.442   2.308  19.919  0.00  0.00    +0.000 C 
ENDBRANCH   1  24
BRANCH   7  25
ATOM     25  C   UNL     1       1.697   9.256  18.588  0.00  0.00    +0.000 C 
ATOM     26  O   UNL     1       2.031   9.774  17.520  0.00  0.00    +0.000 OA
BRANCH  25  27
ATOM     27  C   UNL     1       0.901  10.103  19.536  0.00  0.00    +0.000 A 
ATOM     28  C   UNL     1       0.833   9.743  20.890  0.00  0.00    +0.000 A 
ATOM     29  C   UNL     1       0.169  10.567  21.803  0.00  0.00    +0.000 A 
ATOM     30  C   UNL     1      -0.425  11.754  21.371  0.00  0.00    +0.000 A 
ATOM     31  C   UNL     1      -0.392  12.091  20.020  0.00  0.00    +0.000 A 
ATOM     32 CL   UNL     1      -1.109  13.560  19.485  0.00  0.00    +0.000 Cl
ATOM     33  C   UNL     1       0.238  11.258  19.098  0.00  0.00    +0.000 A 
ENDBRANCH  25  27
ENDBRANCH   7  25
TORSDOF 5
ENDMDL
MODEL 6
REMARK VINA RESULT:      -6.9      4.168      9.096
REMARK  Name = 
REMARK  5 active torsions:
REMARK  status: ('A' for Active; 'I' for Inactive)
REMARK    1  A    between atoms: C_2  and  C_3
REMARK    2  A    between atoms: C_9  and  C_10
REMARK    3  A    between atoms: C_10  and  C_12
REMARK    4  A    between atoms: C_19  and  N_20
REMARK    5  A    between atoms: C_22  and  C_23
REMARK                            x       y       z     vdW  Elec       q    Type
REMARK                         _______ _______ _______ _____ _____    ______ ____
ROOT
ATOM      1  C   UNL     1       1.000  12.557  19.038  0.00  0.00    +0.000 A 
ATOM      2  C   UNL     1       1.997  12.299  18.097  0.00  0.00    +0.000 A 
ATOM      3  N   UNL     1       2.670  13.301  17.399  0.00  0.00    +0.000 N 
ATOM      4  N   UNL     1       2.433  11.078  17.819  0.00  0.00    +0.000 NA
ATOM      5  C   UNL     1       1.937  10.096  18.583  0.00  0.00    +0.000 A 
ATOM      6  S   UNL     1       2.384   8.512  18.205  0.00  0.00    +0.000 S 
ATOM      7  C   UNL     1       1.724   7.910  19.657  0.00  0.00    +0.000 A 
ATOM      8  C   UNL     1       0.990   8.896  20.304  0.00  0.00    +0.000 A 
ATOM      9  C   UNL     1       1.045  10.202  19.651  0.00  0.00    +0.000 A 
ATOM     10  C   UNL     1       0.457  11.505  19.845  0.00  0.00    +0.000 A 
ATOM     11  H   UNL     1       2.061  13.957  16.924  0.00  0.00    +0.000 HD
ATOM     12  H   UNL     1       3.320  12.852  16.757  0.00  0.00    +0.000 HD
ENDROOT
BRANCH  10  13
ATOM     13  C   UNL     1      -0.669  11.756  20.804  0.00  0.00    +0.000 A 
ATOM     14  C   UNL     1      -0.377  12.040  22.163  0.00  0.00    +0.000 A 
ATOM     15  C   UNL     1      -1.354  12.460  23.075  0.00  0.00    +0.000 A 
ATOM     16  C   UNL     1      -2.686  12.494  22.696  0.00  0.00    +0.000 A 
ATOM     17  C   UNL     1      -3.027  12.164  21.389  0.00  0.00    +0.000 A 
ATOM     18  C   UNL     1      -2.031  11.864  20.441  0.00  0.00    +0.000 A 
ATOM     19 BR   UNL     1      -2.658  11.746  18.643  0.00  0.00    +0.000 Br
ENDBRANCH  10  13
BRANCH   8  20
ATOM     20  N   UNL     1       0.332   8.621  21.456  0.00  0.00    +0.000 N 
ATOM     21  H   UNL     1      -0.595   9.037  21.597  0.00  0.00    +0.000 HD
ATOM     22  H   UNL     1       0.819   8.507  22.338  0.00  0.00    +0.000 HD
ENDBRANCH   8  20
BRANCH   1  24
ATOM     23  N   UNL     1       0.190  15.016  19.202  0.00  0.00    +0.000 NA
ATOM     24  C   UNL     1       0.557  13.919  19.144  0.00  0.00    +0.000 C 
ENDBRANCH   1  24
BRANCH   7  25
ATOM     25  C   UNL     1       1.906   6.502  20.016  0.00  0.00    +0.000 C 
ATOM     26  O   UNL     1       1.432   6.012  21.043  0.00  0.00    +0.000 OA
BRANCH  25  27
ATOM     27  C   UNL     1       2.691   5.587  19.125  0.00  0.00    +0.000 A 
ATOM     28  C   UNL     1       2.014   4.787  18.192  0.00  0.00    +0.000 A 
ATOM     29  C   UNL     1       2.735   3.993  17.294  0.00  0.00    +0.000 A 
ATOM     30  C   UNL     1       4.130   3.997  17.321  0.00  0.00    +0.000 A 
ATOM     31  C   UNL     1       4.801   4.760  18.274  0.00  0.00    +0.000 A 
ATOM     32 CL   UNL     1       6.520   4.782  18.300  0.00  0.00    +0.000 Cl
ATOM     33  C   UNL     1       4.090   5.528  19.194  0.00  0.00    +0.000 A 
ENDBRANCH  25  27
ENDBRANCH   7  25
TORSDOF 5
ENDMDL
MODEL 7
REMARK VINA RESULT:      -6.9      4.279      8.158
REMARK  Name = 
REMARK  5 active torsions:
REMARK  status: ('A' for Active; 'I' for Inactive)
REMARK    1  A    between atoms: C_2  and  C_3
REMARK    2  A    between atoms: C_9  and  C_10
REMARK    3  A    between atoms: C_10  and  C_12
REMARK    4  A    between atoms: C_19  and  N_20
REMARK    5  A    between atoms: C_22  and  C_23
REMARK                            x       y       z     vdW  Elec       q    Type
REMARK                         _______ _______ _______ _____ _____    ______ ____
ROOT
ATOM      1  C   UNL     1      -0.184  11.132  21.741  0.00  0.00    +0.000 A 
ATOM      2  C   UNL     1      -0.419   9.974  22.483  0.00  0.00    +0.000 A 
ATOM      3  N   UNL     1      -1.313   9.918  23.551  0.00  0.00    +0.000 N 
ATOM      4  N   UNL     1       0.148   8.809  22.206  0.00  0.00    +0.000 NA
ATOM      5  C   UNL     1       0.885   8.770  21.089  0.00  0.00    +0.000 A 
ATOM      6  S   UNL     1       1.708   7.337  20.746  0.00  0.00    +0.000 S 
ATOM      7  C   UNL     1       2.099   7.862  19.171  0.00  0.00    +0.000 A 
ATOM      8  C   UNL     1       1.775   9.203  19.011  0.00  0.00    +0.000 A 
ATOM      9  C   UNL     1       1.104   9.794  20.166  0.00  0.00    +0.000 A 
ATOM     10  C   UNL     1       0.617  11.096  20.553  0.00  0.00    +0.000 A 
ATOM     11  H   UNL     1      -1.159  10.626  24.260  0.00  0.00    +0.000 HD
ATOM     12  H   UNL     1      -1.277   8.977  23.940  0.00  0.00    +0.000 HD
ENDROOT
BRANCH  10  13
ATOM     13  C   UNL     1       0.941  12.347  19.789  0.00  0.00    +0.000 A 
ATOM     14  C   UNL     1       2.207  12.963  19.964  0.00  0.00    +0.000 A 
ATOM     15  C   UNL     1       2.651  14.021  19.161  0.00  0.00    +0.000 A 
ATOM     16  C   UNL     1       1.796  14.589  18.230  0.00  0.00    +0.000 A 
ATOM     17  C   UNL     1       0.522  14.058  18.067  0.00  0.00    +0.000 A 
ATOM     18  C   UNL     1       0.123  12.916  18.786  0.00  0.00    +0.000 A 
ATOM     19 BR   UNL     1      -1.526  12.150  18.207  0.00  0.00    +0.000 Br
ENDBRANCH  10  13
BRANCH   8  20
ATOM     20  N   UNL     1       2.049   9.844  17.849  0.00  0.00    +0.000 N 
ATOM     21  H   UNL     1       2.114   9.286  16.990  0.00  0.00    +0.000 HD
ATOM     22  H   UNL     1       2.667  10.647  17.811  0.00  0.00    +0.000 HD
ENDBRANCH   8  20
BRANCH   1  24
ATOM     23  N   UNL     1      -1.272  13.302  22.654  0.00  0.00    +0.000 NA
ATOM     24  C   UNL     1      -0.782  12.341  22.233  0.00  0.00    +0.000 C 
ENDBRANCH   1  24
BRANCH   7  25
ATOM     25  C   UNL     1       2.763   6.949  18.238  0.00  0.00    +0.000 C 
ATOM     26  O   UNL     1       3.474   7.347  17.313  0.00  0.00    +0.000 OA
BRANCH  25  27
ATOM     27  C   UNL     1       2.598   5.466  18.380  0.00  0.00    +0.000 A 
ATOM     28  C   UNL     1       1.517   4.830  17.752  0.00  0.00    +0.000 A 
ATOM     29  C   UNL     1       1.396   3.437  17.801  0.00  0.00    +0.000 A 
ATOM     30  C   UNL     1       2.353   2.676  18.473  0.00  0.00    +0.000 A 
ATOM     31  C   UNL     1       3.403   3.310  19.131  0.00  0.00    +0.000 A 
ATOM     32 CL   UNL     1       4.595   2.376  19.947  0.00  0.00    +0.000 Cl
ATOM     33  C   UNL     1       3.513   4.699  19.116  0.00  0.00    +0.000 A 
ENDBRANCH  25  27
ENDBRANCH   7  25
TORSDOF 5
ENDMDL
MODEL 8
REMARK VINA RESULT:      -6.9      1.191      1.479
REMARK  Name = 
REMARK  5 active torsions:
REMARK  status: ('A' for Active; 'I' for Inactive)
REMARK    1  A    between atoms: C_2  and  C_3
REMARK    2  A    between atoms: C_9  and  C_10
REMARK    3  A    between atoms: C_10  and  C_12
REMARK    4  A    between atoms: C_19  and  N_20
REMARK    5  A    between atoms: C_22  and  C_23
REMARK                            x       y       z     vdW  Elec       q    Type
REMARK                         _______ _______ _______ _____ _____    ______ ____
ROOT
ATOM      1  C   UNL     1       3.475   4.139  20.053  0.00  0.00    +0.000 A 
ATOM      2  C   UNL     1       2.517   4.345  21.046  0.00  0.00    +0.000 A 
ATOM      3  N   UNL     1       2.370   3.510  22.152  0.00  0.00    +0.000 N 
ATOM      4  N   UNL     1       1.693   5.383  21.054  0.00  0.00    +0.000 NA
ATOM      5  C   UNL     1       1.906   6.302  20.103  0.00  0.00    +0.000 A 
ATOM      6  S   UNL     1       0.822   7.593  20.010  0.00  0.00    +0.000 S 
ATOM      7  C   UNL     1       1.823   8.439  18.919  0.00  0.00    +0.000 A 
ATOM      8  C   UNL     1       2.863   7.628  18.484  0.00  0.00    +0.000 A 
ATOM      9  C   UNL     1       2.903   6.317  19.127  0.00  0.00    +0.000 A 
ATOM     10  C   UNL     1       3.693   5.114  19.025  0.00  0.00    +0.000 A 
ATOM     11  H   UNL     1       2.264   2.529  21.922  0.00  0.00    +0.000 HD
ATOM     12  H   UNL     1       1.588   3.857  22.704  0.00  0.00    +0.000 HD
ENDROOT
BRANCH  10  13
ATOM     13  C   UNL     1       4.665   4.870  17.908  0.00  0.00    +0.000 A 
ATOM     14  C   UNL     1       5.957   5.453  17.968  0.00  0.00    +0.000 A 
ATOM     15  C   UNL     1       6.976   5.129  17.062  0.00  0.00    +0.000 A 
ATOM     16  C   UNL     1       6.706   4.302  15.984  0.00  0.00    +0.000 A 
ATOM     17  C   UNL     1       5.435   3.757  15.850  0.00  0.00    +0.000 A 
ATOM     18  C   UNL     1       4.449   3.982  16.829  0.00  0.00    +0.000 A 
ATOM     19 BR   UNL     1       2.883   2.908  16.641  0.00  0.00    +0.000 Br
ENDBRANCH  10  13
BRANCH   8  20
ATOM     20  N   UNL     1       3.754   8.081  17.568  0.00  0.00    +0.000 N 
ATOM     21  H   UNL     1       3.714   7.693  16.619  0.00  0.00    +0.000 HD
ATOM     22  H   UNL     1       4.703   8.331  17.821  0.00  0.00    +0.000 HD
ENDBRANCH   8  20
BRANCH   1  24
ATOM     23  N   UNL     1       4.801   1.914  20.202  0.00  0.00    +0.000 NA
ATOM     24  C   UNL     1       4.214   2.910  20.120  0.00  0.00    +0.000 C 
ENDBRANCH   1  24
BRANCH   7  25
ATOM     25  C   UNL     1       1.474   9.801  18.508  0.00  0.00    +0.000 C 
ATOM     26  O   UNL     1       2.317  10.619  18.138  0.00  0.00    +0.000 OA
BRANCH  25  27
ATOM     27  C   UNL     1       0.045  10.255  18.523  0.00  0.00    +0.000 A 
ATOM     28  C   UNL     1      -0.381  11.157  19.510  0.00  0.00    +0.000 A 
ATOM     29  C   UNL     1      -1.686  11.659  19.487  0.00  0.00    +0.000 A 
ATOM     30  C   UNL     1      -2.568  11.266  18.480  0.00  0.00    +0.000 A 
ATOM     31  C   UNL     1      -2.158  10.339  17.525  0.00  0.00    +0.000 A 
ATOM     32 CL   UNL     1      -3.237   9.864  16.272  0.00  0.00    +0.000 Cl
ATOM     33  C   UNL     1      -0.871   9.809  17.560  0.00  0.00    +0.000 A 
ENDBRANCH  25  27
ENDBRANCH   7  25
TORSDOF 5
ENDMDL
MODEL 9
REMARK VINA RESULT:      -6.8      5.924     10.770
REMARK  Name = 
REMARK  5 active torsions:
REMARK  status: ('A' for Active; 'I' for Inactive)
REMARK    1  A    between atoms: C_2  and  C_3
REMARK    2  A    between atoms: C_9  and  C_10
REMARK    3  A    between atoms: C_10  and  C_12
REMARK    4  A    between atoms: C_19  and  N_20
REMARK    5  A    between atoms: C_22  and  C_23
REMARK                            x       y       z     vdW  Elec       q    Type
REMARK                         _______ _______ _______ _____ _____    ______ ____
ROOT
ATOM      1  C   UNL     1      -5.485  12.743  19.525  0.00  0.00    +0.000 A 
ATOM      2  C   UNL     1      -5.518  12.110  18.283  0.00  0.00    +0.000 A 
ATOM      3  N   UNL     1      -6.632  12.126  17.444  0.00  0.00    +0.000 N 
ATOM      4  N   UNL     1      -4.475  11.479  17.763  0.00  0.00    +0.000 NA
ATOM      5  C   UNL     1      -3.332  11.579  18.454  0.00  0.00    +0.000 A 
ATOM      6  S   UNL     1      -1.999  10.711  17.887  0.00  0.00    +0.000 S 
ATOM      7  C   UNL     1      -0.939  11.516  18.952  0.00  0.00    +0.000 A 
ATOM      8  C   UNL     1      -1.654  12.280  19.865  0.00  0.00    +0.000 A 
ATOM      9  C   UNL     1      -3.097  12.286  19.634  0.00  0.00    +0.000 A 
ATOM     10  C   UNL     1      -4.267  12.837  20.274  0.00  0.00    +0.000 A 
ATOM     11  H   UNL     1      -7.490  11.821  17.887  0.00  0.00    +0.000 HD
ATOM     12  H   UNL     1      -6.411  11.570  16.620  0.00  0.00    +0.000 HD
ENDROOT
BRANCH  10  13
ATOM     13  C   UNL     1      -4.235  13.446  21.644  0.00  0.00    +0.000 A 
ATOM     14  C   UNL     1      -4.132  12.603  22.780  0.00  0.00    +0.000 A 
ATOM     15  C   UNL     1      -3.916  13.098  24.073  0.00  0.00    +0.000 A 
ATOM     16  C   UNL     1      -3.918  14.464  24.301  0.00  0.00    +0.000 A 
ATOM     17  C   UNL     1      -4.078  15.330  23.225  0.00  0.00    +0.000 A 
ATOM     18  C   UNL     1      -4.169  14.833  21.911  0.00  0.00    +0.000 A 
ATOM     19 BR   UNL     1      -4.068  16.167  20.550  0.00  0.00    +0.000 Br
ENDBRANCH  10  13
BRANCH   8  20
ATOM     20  N   UNL     1      -1.013  12.966  20.842  0.00  0.00    +0.000 N 
ATOM     21  H   UNL     1      -1.470  13.051  21.757  0.00  0.00    +0.000 HD
ATOM     22  H   UNL     1      -0.445  13.782  20.640  0.00  0.00    +0.000 HD
ENDBRANCH   8  20
BRANCH   1  24
ATOM     23  N   UNL     1      -7.743  13.709  20.363  0.00  0.00    +0.000 NA
ATOM     24  C   UNL     1      -6.728  13.284  20.002  0.00  0.00    +0.000 C 
ENDBRANCH   1  24
BRANCH   7  25
ATOM     25  C   UNL     1       0.504  11.281  18.867  0.00  0.00    +0.000 C 
ATOM     26  O   UNL     1       1.294  12.139  18.468  0.00  0.00    +0.000 OA
BRANCH  25  27
ATOM     27  C   UNL     1       1.083   9.959  19.274  0.00  0.00    +0.000 A 
ATOM     28  C   UNL     1       0.812   9.454  20.555  0.00  0.00    +0.000 A 
ATOM     29  C   UNL     1       1.270   8.185  20.921  0.00  0.00    +0.000 A 
ATOM     30  C   UNL     1       1.996   7.415  20.011  0.00  0.00    +0.000 A 
ATOM     31  C   UNL     1       2.300   7.933  18.755  0.00  0.00    +0.000 A 
ATOM     32 CL   UNL     1       3.180   6.981  17.624  0.00  0.00    +0.000 Cl
ATOM     33  C   UNL     1       1.876   9.210  18.394  0.00  0.00    +0.000 A 
ENDBRANCH  25  27
ENDBRANCH   7  25
TORSDOF 5
ENDMDL
