MODEL 1
REMARK VINA RESULT:      -7.6      0.000      0.000
REMARK  Name = 
REMARK  8 active torsions:
REMARK  status: ('A' for Active; 'I' for Inactive)
REMARK    1  A    between atoms: C_1  and  O_2
REMARK    2  A    between atoms: O_2  and  C_3
REMARK    3  A    between atoms: C_7  and  C_8
REMARK    4  A    between atoms: N_11  and  C_12
REMARK    5  A    between atoms: C_12  and  C_13
REMARK    6  A    between atoms: C_12  and  C_14
REMARK    7  A    between atoms: C_18  and  C_19
REMARK    8  A    between atoms: C_23  and  C_24
REMARK                            x       y       z     vdW  Elec       q    Type
REMARK                         _______ _______ _______ _____ _____    ______ ____
ROOT
ATOM      1  C   UNL     1      -1.355  11.638  22.529  0.00  0.00    +0.000 A 
ATOM      2  C   UNL     1      -2.495  11.906  23.317  0.00  0.00    +0.000 A 
ATOM      3  C   UNL     1      -3.660  12.462  22.794  0.00  0.00    +0.000 A 
ATOM      4  N   UNL     1      -4.741  12.638  23.566  0.00  0.00    +0.000 NA
ATOM      5  C   UNL     1      -5.861  13.069  22.964  0.00  0.00    +0.000 A 
ATOM      6  C   UNL     1      -7.066  13.336  23.804  0.00  0.00    +0.000 C 
ATOM      7  N   UNL     1      -5.986  13.295  21.647  0.00  0.00    +0.000 NA
ATOM      8  C   UNL     1      -4.899  13.137  20.882  0.00  0.00    +0.000 A 
ATOM      9  N   UNL     1      -4.997  13.299  19.483  0.00  0.00    +0.000 N 
ATOM     10  C   UNL     1      -3.667  12.770  21.439  0.00  0.00    +0.000 A 
ATOM     11  C   UNL     1      -2.498  12.608  20.672  0.00  0.00    +0.000 A 
ATOM     12  C   UNL     1      -1.321  12.030  21.174  0.00  0.00    +0.000 A 
ATOM     13  H   UNL     1      -4.612  14.206  19.221  0.00  0.00    +0.000 HD
ENDROOT
BRANCH  12  14
ATOM     14  C   UNL     1      -0.198  11.700  20.178  0.00  0.00    +0.000 C 
ATOM     15  C   UNL     1       1.260  12.021  20.562  0.00  0.00    +0.000 C 
ATOM     16  C   UNL     1       1.533  13.506  20.742  0.00  0.00    +0.000 C 
ATOM     17  S   UNL     1       1.150  14.466  19.295  0.00  0.00    +0.000 S 
ATOM     18  O   UNL     1       0.883  15.825  19.716  0.00  0.00    +0.000 OA
ATOM     19  O   UNL     1       2.168  14.189  18.296  0.00  0.00    +0.000 OA
ATOM     20  C   UNL     1      -0.379  13.783  18.683  0.00  0.00    +0.000 C 
ATOM     21  C   UNL     1      -0.403  12.261  18.742  0.00  0.00    +0.000 C 
ENDBRANCH  12  14
BRANCH   1  23
ATOM     22  C   UNL     1      -0.359   9.585  23.190  0.00  0.00    +0.000 C 
ATOM     23  O   UNL     1      -0.258  11.001  23.036  0.00  0.00    +0.000 OA
ENDBRANCH   1  23
BRANCH   9  24
ATOM     24  C   UNL     1      -6.325  13.052  18.918  0.00  0.00    +0.000 C 
ATOM     25  C   UNL     1      -6.289  11.750  18.105  0.00  0.00    +0.000 C 
BRANCH  24  26
ATOM     26  C   UNL     1      -6.763  14.225  18.052  0.00  0.00    +0.000 A 
ATOM     27  C   UNL     1      -7.295  13.965  16.780  0.00  0.00    +0.000 A 
ATOM     28  C   UNL     1      -7.625  15.009  15.918  0.00  0.00    +0.000 A 
ATOM     29  C   UNL     1      -7.434  16.330  16.317  0.00  0.00    +0.000 A 
ATOM     30  C   UNL     1      -6.925  16.619  17.588  0.00  0.00    +0.000 A 
ATOM     31  C   UNL     1      -6.703  18.041  18.014  0.00  0.00    +0.000 C 
ATOM     32  C   UNL     1      -6.611  15.563  18.457  0.00  0.00    +0.000 A 
ENDBRANCH  24  26
ENDBRANCH   9  24
TORSDOF 4
ENDMDL
MODEL 2
REMARK VINA RESULT:      -7.2      5.990      7.985
REMARK  Name = 
REMARK  8 active torsions:
REMARK  status: ('A' for Active; 'I' for Inactive)
REMARK    1  A    between atoms: C_1  and  O_2
REMARK    2  A    between atoms: O_2  and  C_3
REMARK    3  A    between atoms: C_7  and  C_8
REMARK    4  A    between atoms: N_11  and  C_12
REMARK    5  A    between atoms: C_12  and  C_13
REMARK    6  A    between atoms: C_12  and  C_14
REMARK    7  A    between atoms: C_18  and  C_19
REMARK    8  A    between atoms: C_23  and  C_24
REMARK                            x       y       z     vdW  Elec       q    Type
REMARK                         _______ _______ _______ _____ _____    ______ ____
ROOT
ATOM      1  C   UNL     1       2.015   5.488  19.752  0.00  0.00    +0.000 A 
ATOM      2  C   UNL     1       1.348   6.102  20.833  0.00  0.00    +0.000 A 
ATOM      3  C   UNL     1       1.168   7.481  20.923  0.00  0.00    +0.000 A 
ATOM      4  N   UNL     1       0.471   8.016  21.935  0.00  0.00    +0.000 NA
ATOM      5  C   UNL     1       0.241   9.337  21.889  0.00  0.00    +0.000 A 
ATOM      6  C   UNL     1      -0.478   9.977  23.031  0.00  0.00    +0.000 C 
ATOM      7  N   UNL     1       0.619  10.149  20.889  0.00  0.00    +0.000 NA
ATOM      8  C   UNL     1       1.332   9.614  19.890  0.00  0.00    +0.000 A 
ATOM      9  N   UNL     1       1.697  10.413  18.784  0.00  0.00    +0.000 N 
ATOM     10  C   UNL     1       1.690   8.260  19.897  0.00  0.00    +0.000 A 
ATOM     11  C   UNL     1       2.450   7.663  18.874  0.00  0.00    +0.000 A 
ATOM     12  C   UNL     1       2.626   6.276  18.754  0.00  0.00    +0.000 A 
ATOM     13  H   UNL     1       2.678  10.676  18.868  0.00  0.00    +0.000 HD
ENDROOT
BRANCH  12  14
ATOM     14  C   UNL     1       3.280   5.741  17.470  0.00  0.00    +0.000 C 
ATOM     15  C   UNL     1       3.807   4.293  17.448  0.00  0.00    +0.000 C 
ATOM     16  C   UNL     1       4.952   4.043  18.417  0.00  0.00    +0.000 C 
ATOM     17  S   UNL     1       6.346   5.111  18.140  0.00  0.00    +0.000 S 
ATOM     18  O   UNL     1       7.083   5.217  19.382  0.00  0.00    +0.000 OA
ATOM     19  O   UNL     1       7.008   4.673  16.924  0.00  0.00    +0.000 OA
ATOM     20  C   UNL     1       5.637   6.712  17.800  0.00  0.00    +0.000 C 
ATOM     21  C   UNL     1       4.419   6.627  16.890  0.00  0.00    +0.000 C 
ENDBRANCH  12  14
BRANCH   1  23
ATOM     22  C   UNL     1       1.087   3.369  20.294  0.00  0.00    +0.000 C 
ATOM     23  O   UNL     1       2.096   4.129  19.629  0.00  0.00    +0.000 OA
ENDBRANCH   1  23
BRANCH   9  24
ATOM     24  C   UNL     1       0.815  11.552  18.521  0.00  0.00    +0.000 C 
ATOM     25  C   UNL     1       0.893  12.529  19.704  0.00  0.00    +0.000 C 
BRANCH  24  26
ATOM     26  C   UNL     1      -0.615  11.080  18.297  0.00  0.00    +0.000 A 
ATOM     27  C   UNL     1      -0.840   9.977  17.460  0.00  0.00    +0.000 A 
ATOM     28  C   UNL     1      -2.136   9.565  17.156  0.00  0.00    +0.000 A 
ATOM     29  C   UNL     1      -3.227  10.247  17.689  0.00  0.00    +0.000 A 
ATOM     30  C   UNL     1      -3.033  11.337  18.543  0.00  0.00    +0.000 A 
ATOM     31  C   UNL     1      -4.207  12.084  19.105  0.00  0.00    +0.000 C 
ATOM     32  C   UNL     1      -1.725  11.735  18.859  0.00  0.00    +0.000 A 
ENDBRANCH  24  26
ENDBRANCH   9  24
TORSDOF 4
ENDMDL
MODEL 3
REMARK VINA RESULT:      -7.1      3.417      7.094
REMARK  Name = 
REMARK  8 active torsions:
REMARK  status: ('A' for Active; 'I' for Inactive)
REMARK    1  A    between atoms: C_1  and  O_2
REMARK    2  A    between atoms: O_2  and  C_3
REMARK    3  A    between atoms: C_7  and  C_8
REMARK    4  A    between atoms: N_11  and  C_12
REMARK    5  A    between atoms: C_12  and  C_13
REMARK    6  A    between atoms: C_12  and  C_14
REMARK    7  A    between atoms: C_18  and  C_19
REMARK    8  A    between atoms: C_23  and  C_24
REMARK                            x       y       z     vdW  Elec       q    Type
REMARK                         _______ _______ _______ _____ _____    ______ ____
ROOT
ATOM      1  C   UNL     1      -5.647  12.091  20.779  0.00  0.00    +0.000 A 
ATOM      2  C   UNL     1      -5.526  11.639  19.448  0.00  0.00    +0.000 A 
ATOM      3  C   UNL     1      -4.339  11.734  18.725  0.00  0.00    +0.000 A 
ATOM      4  N   UNL     1      -4.251  11.232  17.485  0.00  0.00    +0.000 NA
ATOM      5  C   UNL     1      -3.043  11.256  16.898  0.00  0.00    +0.000 A 
ATOM      6  C   UNL     1      -2.922  10.763  15.494  0.00  0.00    +0.000 C 
ATOM      7  N   UNL     1      -1.918  11.704  17.476  0.00  0.00    +0.000 NA
ATOM      8  C   UNL     1      -2.013  12.222  18.707  0.00  0.00    +0.000 A 
ATOM      9  N   UNL     1      -0.847  12.645  19.381  0.00  0.00    +0.000 N 
ATOM     10  C   UNL     1      -3.248  12.314  19.361  0.00  0.00    +0.000 A 
ATOM     11  C   UNL     1      -3.393  12.864  20.648  0.00  0.00    +0.000 A 
ATOM     12  C   UNL     1      -4.573  12.761  21.402  0.00  0.00    +0.000 A 
ATOM     13  H   UNL     1      -0.788  13.662  19.343  0.00  0.00    +0.000 HD
ENDROOT
BRANCH  12  14
ATOM     14  C   UNL     1      -4.529  13.200  22.874  0.00  0.00    +0.000 C 
ATOM     15  C   UNL     1      -4.339  14.693  23.204  0.00  0.00    +0.000 C 
ATOM     16  C   UNL     1      -3.001  15.255  22.750  0.00  0.00    +0.000 C 
ATOM     17  S   UNL     1      -1.611  14.387  23.439  0.00  0.00    +0.000 S 
ATOM     18  O   UNL     1      -0.480  14.578  22.555  0.00  0.00    +0.000 OA
ATOM     19  O   UNL     1      -1.517  14.742  24.845  0.00  0.00    +0.000 OA
ATOM     20  C   UNL     1      -2.063  12.664  23.367  0.00  0.00    +0.000 C 
ATOM     21  C   UNL     1      -3.515  12.426  23.764  0.00  0.00    +0.000 C 
ENDBRANCH  12  14
BRANCH   1  23
ATOM     22  C   UNL     1      -7.838  12.846  21.302  0.00  0.00    +0.000 C 
ATOM     23  O   UNL     1      -6.788  11.900  21.507  0.00  0.00    +0.000 OA
ENDBRANCH   1  23
BRANCH   9  24
ATOM     24  C   UNL     1       0.389  11.980  18.965  0.00  0.00    +0.000 C 
ATOM     25  C   UNL     1       0.522  10.652  19.725  0.00  0.00    +0.000 C 
BRANCH  24  26
ATOM     26  C   UNL     1       1.591  12.878  19.224  0.00  0.00    +0.000 A 
ATOM     27  C   UNL     1       2.080  12.995  20.533  0.00  0.00    +0.000 A 
ATOM     28  C   UNL     1       3.121  13.873  20.831  0.00  0.00    +0.000 A 
ATOM     29  C   UNL     1       3.691  14.645  19.822  0.00  0.00    +0.000 A 
ATOM     30  C   UNL     1       3.238  14.535  18.503  0.00  0.00    +0.000 A 
ATOM     31  C   UNL     1       3.840  15.378  17.418  0.00  0.00    +0.000 C 
ATOM     32  C   UNL     1       2.202  13.635  18.208  0.00  0.00    +0.000 A 
ENDBRANCH  24  26
ENDBRANCH   9  24
TORSDOF 4
ENDMDL
MODEL 4
REMARK VINA RESULT:      -6.9      6.383      8.408
REMARK  Name = 
REMARK  8 active torsions:
REMARK  status: ('A' for Active; 'I' for Inactive)
REMARK    1  A    between atoms: C_1  and  O_2
REMARK    2  A    between atoms: O_2  and  C_3
REMARK    3  A    between atoms: C_7  and  C_8
REMARK    4  A    between atoms: N_11  and  C_12
REMARK    5  A    between atoms: C_12  and  C_13
REMARK    6  A    between atoms: C_12  and  C_14
REMARK    7  A    between atoms: C_18  and  C_19
REMARK    8  A    between atoms: C_23  and  C_24
REMARK                            x       y       z     vdW  Elec       q    Type
REMARK                         _______ _______ _______ _____ _____    ______ ____
ROOT
ATOM      1  C   UNL     1       2.524   5.328  19.547  0.00  0.00    +0.000 A 
ATOM      2  C   UNL     1       1.842   5.789  20.694  0.00  0.00    +0.000 A 
ATOM      3  C   UNL     1       1.467   7.120  20.863  0.00  0.00    +0.000 A 
ATOM      4  N   UNL     1       0.763   7.502  21.938  0.00  0.00    +0.000 NA
ATOM      5  C   UNL     1       0.339   8.774  21.972  0.00  0.00    +0.000 A 
ATOM      6  C   UNL     1      -0.395   9.250  23.183  0.00  0.00    +0.000 C 
ATOM      7  N   UNL     1       0.530   9.675  20.996  0.00  0.00    +0.000 NA
ATOM      8  C   UNL     1       1.251   9.296  19.933  0.00  0.00    +0.000 A 
ATOM      9  N   UNL     1       1.425  10.186  18.851  0.00  0.00    +0.000 N 
ATOM     10  C   UNL     1       1.804   8.012  19.852  0.00  0.00    +0.000 A 
ATOM     11  C   UNL     1       2.579   7.579  18.759  0.00  0.00    +0.000 A 
ATOM     12  C   UNL     1       2.949   6.240  18.559  0.00  0.00    +0.000 A 
ATOM     13  H   UNL     1       2.359  10.590  18.894  0.00  0.00    +0.000 HD
ENDROOT
BRANCH  12  14
ATOM     14  C   UNL     1       3.594   5.864  17.216  0.00  0.00    +0.000 C 
ATOM     15  C   UNL     1       4.348   4.524  17.097  0.00  0.00    +0.000 C 
ATOM     16  C   UNL     1       5.580   4.435  17.984  0.00  0.00    +0.000 C 
ATOM     17  S   UNL     1       6.760   5.729  17.670  0.00  0.00    +0.000 S 
ATOM     18  O   UNL     1       7.552   5.913  18.868  0.00  0.00    +0.000 OA
ATOM     19  O   UNL     1       7.401   5.446  16.397  0.00  0.00    +0.000 OA
ATOM     20  C   UNL     1       5.778   7.200  17.444  0.00  0.00    +0.000 C 
ATOM     21  C   UNL     1       4.531   6.946  16.606  0.00  0.00    +0.000 C 
ENDBRANCH  12  14
BRANCH   1  23
ATOM     22  C   UNL     1       1.681   3.112  19.385  0.00  0.00    +0.000 C 
ATOM     23  O   UNL     1       2.796   4.003  19.351  0.00  0.00    +0.000 OA
ENDBRANCH   1  23
BRANCH   9  24
ATOM     24  C   UNL     1       0.370  11.190  18.695  0.00  0.00    +0.000 C 
ATOM     25  C   UNL     1      -0.493  10.825  17.479  0.00  0.00    +0.000 C 
BRANCH  24  26
ATOM     26  C   UNL     1       0.975  12.578  18.536  0.00  0.00    +0.000 A 
ATOM     27  C   UNL     1       2.352  12.693  18.289  0.00  0.00    +0.000 A 
ATOM     28  C   UNL     1       2.964  13.943  18.225  0.00  0.00    +0.000 A 
ATOM     29  C   UNL     1       2.207  15.100  18.403  0.00  0.00    +0.000 A 
ATOM     30  C   UNL     1       0.830  15.017  18.630  0.00  0.00    +0.000 A 
ATOM     31  C   UNL     1       0.016  16.260  18.837  0.00  0.00    +0.000 C 
ATOM     32  C   UNL     1       0.218  13.755  18.675  0.00  0.00    +0.000 A 
ENDBRANCH  24  26
ENDBRANCH   9  24
TORSDOF 4
ENDMDL
MODEL 5
REMARK VINA RESULT:      -6.8      3.897      7.245
REMARK  Name = 
REMARK  8 active torsions:
REMARK  status: ('A' for Active; 'I' for Inactive)
REMARK    1  A    between atoms: C_1  and  O_2
REMARK    2  A    between atoms: O_2  and  C_3
REMARK    3  A    between atoms: C_7  and  C_8
REMARK    4  A    between atoms: N_11  and  C_12
REMARK    5  A    between atoms: C_12  and  C_13
REMARK    6  A    between atoms: C_12  and  C_14
REMARK    7  A    between atoms: C_18  and  C_19
REMARK    8  A    between atoms: C_23  and  C_24
REMARK                            x       y       z     vdW  Elec       q    Type
REMARK                         _______ _______ _______ _____ _____    ______ ____
ROOT
ATOM      1  C   UNL     1      -6.614  11.458  19.649  0.00  0.00    +0.000 A 
ATOM      2  C   UNL     1      -6.219  10.951  18.392  0.00  0.00    +0.000 A 
ATOM      3  C   UNL     1      -4.945  11.153  17.865  0.00  0.00    +0.000 A 
ATOM      4  N   UNL     1      -4.592  10.597  16.697  0.00  0.00    +0.000 NA
ATOM      5  C   UNL     1      -3.314  10.739  16.313  0.00  0.00    +0.000 A 
ATOM      6  C   UNL     1      -2.901  10.186  14.988  0.00  0.00    +0.000 C 
ATOM      7  N   UNL     1      -2.361  11.356  17.028  0.00  0.00    +0.000 NA
ATOM      8  C   UNL     1      -2.722  11.927  18.184  0.00  0.00    +0.000 A 
ATOM      9  N   UNL     1      -1.743  12.531  19.003  0.00  0.00    +0.000 N 
ATOM     10  C   UNL     1      -4.052  11.900  18.622  0.00  0.00    +0.000 A 
ATOM     11  C   UNL     1      -4.475  12.500  19.823  0.00  0.00    +0.000 A 
ATOM     12  C   UNL     1      -5.745  12.292  20.383  0.00  0.00    +0.000 A 
ATOM     13  H   UNL     1      -1.794  13.543  18.897  0.00  0.00    +0.000 HD
ENDROOT
BRANCH  12  14
ATOM     14  C   UNL     1      -6.001  12.816  21.805  0.00  0.00    +0.000 C 
ATOM     15  C   UNL     1      -7.201  13.750  22.053  0.00  0.00    +0.000 C 
ATOM     16  C   UNL     1      -7.100  15.082  21.327  0.00  0.00    +0.000 C 
ATOM     17  S   UNL     1      -5.632  15.994  21.744  0.00  0.00    +0.000 S 
ATOM     18  O   UNL     1      -5.335  16.891  20.646  0.00  0.00    +0.000 OA
ATOM     19  O   UNL     1      -5.797  16.508  23.093  0.00  0.00    +0.000 OA
ATOM     20  C   UNL     1      -4.335  14.773  21.806  0.00  0.00    +0.000 C 
ATOM     21  C   UNL     1      -4.777  13.487  22.492  0.00  0.00    +0.000 C 
ENDBRANCH  12  14
BRANCH   1  23
ATOM     22  C   UNL     1      -7.913   9.971  20.971  0.00  0.00    +0.000 C 
ATOM     23  O   UNL     1      -7.833  11.167  20.195  0.00  0.00    +0.000 OA
ENDBRANCH   1  23
BRANCH   9  24
ATOM     24  C   UNL     1      -0.386  12.004  18.844  0.00  0.00    +0.000 C 
ATOM     25  C   UNL     1      -0.155  10.895  19.881  0.00  0.00    +0.000 C 
BRANCH  24  26
ATOM     26  C   UNL     1       0.640  13.118  19.000  0.00  0.00    +0.000 A 
ATOM     27  C   UNL     1       1.809  12.864  19.734  0.00  0.00    +0.000 A 
ATOM     28  C   UNL     1       2.733  13.878  19.977  0.00  0.00    +0.000 A 
ATOM     29  C   UNL     1       2.505  15.161  19.486  0.00  0.00    +0.000 A 
ATOM     30  C   UNL     1       1.360  15.438  18.733  0.00  0.00    +0.000 A 
ATOM     31  C   UNL     1       1.105  16.824  18.216  0.00  0.00    +0.000 C 
ATOM     32  C   UNL     1       0.442  14.408  18.477  0.00  0.00    +0.000 A 
ENDBRANCH  24  26
ENDBRANCH   9  24
TORSDOF 4
ENDMDL
MODEL 6
REMARK VINA RESULT:      -6.7      3.821      8.125
REMARK  Name = 
REMARK  8 active torsions:
REMARK  status: ('A' for Active; 'I' for Inactive)
REMARK    1  A    between atoms: C_1  and  O_2
REMARK    2  A    between atoms: O_2  and  C_3
REMARK    3  A    between atoms: C_7  and  C_8
REMARK    4  A    between atoms: N_11  and  C_12
REMARK    5  A    between atoms: C_12  and  C_13
REMARK    6  A    between atoms: C_12  and  C_14
REMARK    7  A    between atoms: C_18  and  C_19
REMARK    8  A    between atoms: C_23  and  C_24
REMARK                            x       y       z     vdW  Elec       q    Type
REMARK                         _______ _______ _______ _____ _____    ______ ____
ROOT
ATOM      1  C   UNL     1      -1.844  16.624  20.651  0.00  0.00    +0.000 A 
ATOM      2  C   UNL     1      -0.529  16.614  20.138  0.00  0.00    +0.000 A 
ATOM      3  C   UNL     1       0.134  15.440  19.787  0.00  0.00    +0.000 A 
ATOM      4  N   UNL     1       1.358  15.482  19.242  0.00  0.00    +0.000 NA
ATOM      5  C   UNL     1       1.882  14.319  18.822  0.00  0.00    +0.000 A 
ATOM      6  C   UNL     1       3.268  14.320  18.267  0.00  0.00    +0.000 C 
ATOM      7  N   UNL     1       1.257  13.133  18.871  0.00  0.00    +0.000 NA
ATOM      8  C   UNL     1       0.042  13.092  19.434  0.00  0.00    +0.000 A 
ATOM      9  N   UNL     1      -0.682  11.880  19.449  0.00  0.00    +0.000 N 
ATOM     10  C   UNL     1      -0.546  14.242  19.973  0.00  0.00    +0.000 A 
ATOM     11  C   UNL     1      -1.813  14.239  20.586  0.00  0.00    +0.000 A 
ATOM     12  C   UNL     1      -2.508  15.410  20.928  0.00  0.00    +0.000 A 
ATOM     13  H   UNL     1      -0.628  11.467  20.379  0.00  0.00    +0.000 HD
ENDROOT
BRANCH  12  14
ATOM     14  C   UNL     1      -3.971  15.276  21.376  0.00  0.00    +0.000 C 
ATOM     15  C   UNL     1      -4.313  15.440  22.870  0.00  0.00    +0.000 C 
ATOM     16  C   UNL     1      -3.695  14.374  23.761  0.00  0.00    +0.000 C 
ATOM     17  S   UNL     1      -4.161  12.722  23.296  0.00  0.00    +0.000 S 
ATOM     18  O   UNL     1      -3.135  11.816  23.770  0.00  0.00    +0.000 OA
ATOM     19  O   UNL     1      -5.550  12.528  23.677  0.00  0.00    +0.000 OA
ATOM     20  C   UNL     1      -4.104  12.713  21.514  0.00  0.00    +0.000 C 
ATOM     21  C   UNL     1      -4.690  13.980  20.905  0.00  0.00    +0.000 C 
ENDBRANCH  12  14
BRANCH   1  23
ATOM     22  C   UNL     1      -2.936  18.534  19.753  0.00  0.00    +0.000 C 
ATOM     23  O   UNL     1      -2.516  17.789  20.896  0.00  0.00    +0.000 OA
ENDBRANCH   1  23
BRANCH   9  24
ATOM     24  C   UNL     1      -0.343  10.938  18.380  0.00  0.00    +0.000 C 
ATOM     25  C   UNL     1      -1.639  10.445  17.719  0.00  0.00    +0.000 C 
BRANCH  24  26
ATOM     26  C   UNL     1       0.464   9.772  18.933  0.00  0.00    +0.000 A 
ATOM     27  C   UNL     1       0.360   9.464  20.298  0.00  0.00    +0.000 A 
ATOM     28  C   UNL     1       1.147   8.463  20.865  0.00  0.00    +0.000 A 
ATOM     29  C   UNL     1       2.047   7.751  20.075  0.00  0.00    +0.000 A 
ATOM     30  C   UNL     1       2.156   8.022  18.707  0.00  0.00    +0.000 A 
ATOM     31  C   UNL     1       3.136   7.268  17.857  0.00  0.00    +0.000 C 
ATOM     32  C   UNL     1       1.347   9.019  18.140  0.00  0.00    +0.000 A 
ENDBRANCH  24  26
ENDBRANCH   9  24
TORSDOF 4
ENDMDL
MODEL 7
REMARK VINA RESULT:      -6.7      6.342      8.400
REMARK  Name = 
REMARK  8 active torsions:
REMARK  status: ('A' for Active; 'I' for Inactive)
REMARK    1  A    between atoms: C_1  and  O_2
REMARK    2  A    between atoms: O_2  and  C_3
REMARK    3  A    between atoms: C_7  and  C_8
REMARK    4  A    between atoms: N_11  and  C_12
REMARK    5  A    between atoms: C_12  and  C_13
REMARK    6  A    between atoms: C_12  and  C_14
REMARK    7  A    between atoms: C_18  and  C_19
REMARK    8  A    between atoms: C_23  and  C_24
REMARK                            x       y       z     vdW  Elec       q    Type
REMARK                         _______ _______ _______ _____ _____    ______ ____
ROOT
ATOM      1  C   UNL     1       2.131   5.603  19.819  0.00  0.00    +0.000 A 
ATOM      2  C   UNL     1       1.479   6.133  20.953  0.00  0.00    +0.000 A 
ATOM      3  C   UNL     1       1.188   7.488  21.090  0.00  0.00    +0.000 A 
ATOM      4  N   UNL     1       0.508   7.937  22.155  0.00  0.00    +0.000 NA
ATOM      5  C   UNL     1       0.163   9.235  22.158  0.00  0.00    +0.000 A 
ATOM      6  C   UNL     1      -0.540   9.783  23.356  0.00  0.00    +0.000 C 
ATOM      7  N   UNL     1       0.411  10.098  21.162  0.00  0.00    +0.000 NA
ATOM      8  C   UNL     1       1.108   9.651  20.109  0.00  0.00    +0.000 A 
ATOM      9  N   UNL     1       1.337  10.503  19.007  0.00  0.00    +0.000 N 
ATOM     10  C   UNL     1       1.580   8.333  20.059  0.00  0.00    +0.000 A 
ATOM     11  C   UNL     1       2.327   7.828  18.979  0.00  0.00    +0.000 A 
ATOM     12  C   UNL     1       2.613   6.464  18.810  0.00  0.00    +0.000 A 
ATOM     13  H   UNL     1       2.295  10.849  19.043  0.00  0.00    +0.000 HD
ENDROOT
BRANCH  12  14
ATOM     14  C   UNL     1       3.234   6.017  17.477  0.00  0.00    +0.000 C 
ATOM     15  C   UNL     1       3.706   4.558  17.325  0.00  0.00    +0.000 C 
ATOM     16  C   UNL     1       4.850   4.185  18.255  0.00  0.00    +0.000 C 
ATOM     17  S   UNL     1       6.281   5.222  18.051  0.00  0.00    +0.000 S 
ATOM     18  O   UNL     1       7.034   5.194  19.288  0.00  0.00    +0.000 OA
ATOM     19  O   UNL     1       6.913   4.865  16.793  0.00  0.00    +0.000 OA
ATOM     20  C   UNL     1       5.629   6.870  17.857  0.00  0.00    +0.000 C 
ATOM     21  C   UNL     1       4.399   6.908  16.959  0.00  0.00    +0.000 C 
ENDBRANCH  12  14
BRANCH   1  23
ATOM     22  C   UNL     1       1.272   3.408  20.117  0.00  0.00    +0.000 C 
ATOM     23  O   UNL     1       2.321   4.260  19.654  0.00  0.00    +0.000 OA
ENDBRANCH   1  23
BRANCH   9  24
ATOM     24  C   UNL     1       0.348  11.567  18.826  0.00  0.00    +0.000 C 
ATOM     25  C   UNL     1      -0.465  11.283  17.554  0.00  0.00    +0.000 C 
BRANCH  24  26
ATOM     26  C   UNL     1       1.032  12.924  18.744  0.00  0.00    +0.000 A 
ATOM     27  C   UNL     1       0.255  14.084  18.879  0.00  0.00    +0.000 A 
ATOM     28  C   UNL     1       0.824  15.346  18.723  0.00  0.00    +0.000 A 
ATOM     29  C   UNL     1       2.181  15.469  18.433  0.00  0.00    +0.000 A 
ATOM     30  C   UNL     1       2.985  14.330  18.314  0.00  0.00    +0.000 A 
ATOM     31  C   UNL     1       4.444  14.459  17.987  0.00  0.00    +0.000 C 
ATOM     32  C   UNL     1       2.408  13.063  18.491  0.00  0.00    +0.000 A 
ENDBRANCH  24  26
ENDBRANCH   9  24
TORSDOF 4
ENDMDL
MODEL 8
REMARK VINA RESULT:      -6.6      4.526      8.405
REMARK  Name = 
REMARK  8 active torsions:
REMARK  status: ('A' for Active; 'I' for Inactive)
REMARK    1  A    between atoms: C_1  and  O_2
REMARK    2  A    between atoms: O_2  and  C_3
REMARK    3  A    between atoms: C_7  and  C_8
REMARK    4  A    between atoms: N_11  and  C_12
REMARK    5  A    between atoms: C_12  and  C_13
REMARK    6  A    between atoms: C_12  and  C_14
REMARK    7  A    between atoms: C_18  and  C_19
REMARK    8  A    between atoms: C_23  and  C_24
REMARK                            x       y       z     vdW  Elec       q    Type
REMARK                         _______ _______ _______ _____ _____    ______ ____
ROOT
ATOM      1  C   UNL     1      -0.114  14.728  19.777  0.00  0.00    +0.000 A 
ATOM      2  C   UNL     1      -1.178  13.991  19.215  0.00  0.00    +0.000 A 
ATOM      3  C   UNL     1      -1.063  12.647  18.869  0.00  0.00    +0.000 A 
ATOM      4  N   UNL     1      -2.120  11.968  18.399  0.00  0.00    +0.000 NA
ATOM      5  C   UNL     1      -1.962  10.650  18.200  0.00  0.00    +0.000 A 
ATOM      6  C   UNL     1      -3.098   9.875  17.618  0.00  0.00    +0.000 C 
ATOM      7  N   UNL     1      -0.845   9.960  18.475  0.00  0.00    +0.000 NA
ATOM      8  C   UNL     1       0.215  10.644  18.926  0.00  0.00    +0.000 A 
ATOM      9  N   UNL     1       1.391   9.954  19.291  0.00  0.00    +0.000 N 
ATOM     10  C   UNL     1       0.166  12.035  19.084  0.00  0.00    +0.000 A 
ATOM     11  C   UNL     1       1.260  12.792  19.541  0.00  0.00    +0.000 A 
ATOM     12  C   UNL     1       1.161  14.142  19.916  0.00  0.00    +0.000 A 
ATOM     13  H   UNL     1       2.085  10.059  18.553  0.00  0.00    +0.000 HD
ENDROOT
BRANCH  12  14
ATOM     14  C   UNL     1       2.370  14.787  20.612  0.00  0.00    +0.000 C 
ATOM     15  C   UNL     1       2.375  16.312  20.839  0.00  0.00    +0.000 C 
ATOM     16  C   UNL     1       2.384  17.122  19.553  0.00  0.00    +0.000 C 
ATOM     17  S   UNL     1       3.767  16.746  18.501  0.00  0.00    +0.000 S 
ATOM     18  O   UNL     1       3.402  17.086  17.141  0.00  0.00    +0.000 OA
ATOM     19  O   UNL     1       4.957  17.314  19.110  0.00  0.00    +0.000 OA
ATOM     20  C   UNL     1       3.937  14.973  18.582  0.00  0.00    +0.000 C 
ATOM     21  C   UNL     1       3.754  14.434  19.996  0.00  0.00    +0.000 C 
ENDBRANCH  12  14
BRANCH   1  23
ATOM     22  C   UNL     1      -1.435  16.704  19.737  0.00  0.00    +0.000 C 
ATOM     23  O   UNL     1      -0.273  16.018  20.203  0.00  0.00    +0.000 OA
ENDBRANCH   1  23
BRANCH   9  24
ATOM     24  C   UNL     1       1.194   8.563  19.703  0.00  0.00    +0.000 C 
ATOM     25  C   UNL     1       1.231   8.485  21.237  0.00  0.00    +0.000 C 
BRANCH  24  26
ATOM     26  C   UNL     1       2.260   7.668  19.086  0.00  0.00    +0.000 A 
ATOM     27  C   UNL     1       2.903   8.091  17.912  0.00  0.00    +0.000 A 
ATOM     28  C   UNL     1       3.820   7.266  17.264  0.00  0.00    +0.000 A 
ATOM     29  C   UNL     1       4.113   6.007  17.782  0.00  0.00    +0.000 A 
ATOM     30  C   UNL     1       3.504   5.567  18.962  0.00  0.00    +0.000 A 
ATOM     31  C   UNL     1       3.806   4.204  19.513  0.00  0.00    +0.000 C 
ATOM     32  C   UNL     1       2.595   6.411  19.619  0.00  0.00    +0.000 A 
ENDBRANCH  24  26
ENDBRANCH   9  24
TORSDOF 4
ENDMDL
MODEL 9
REMARK VINA RESULT:      -6.6      7.629     11.437
REMARK  Name = 
REMARK  8 active torsions:
REMARK  status: ('A' for Active; 'I' for Inactive)
REMARK    1  A    between atoms: C_1  and  O_2
REMARK    2  A    between atoms: O_2  and  C_3
REMARK    3  A    between atoms: C_7  and  C_8
REMARK    4  A    between atoms: N_11  and  C_12
REMARK    5  A    between atoms: C_12  and  C_13
REMARK    6  A    between atoms: C_12  and  C_14
REMARK    7  A    between atoms: C_18  and  C_19
REMARK    8  A    between atoms: C_23  and  C_24
REMARK                            x       y       z     vdW  Elec       q    Type
REMARK                         _______ _______ _______ _____ _____    ______ ____
ROOT
ATOM      1  C   UNL     1       1.021   7.986  20.894  0.00  0.00    +0.000 A 
ATOM      2  C   UNL     1       1.292   6.631  21.183  0.00  0.00    +0.000 A 
ATOM      3  C   UNL     1       2.137   5.848  20.400  0.00  0.00    +0.000 A 
ATOM      4  N   UNL     1       2.417   4.584  20.748  0.00  0.00    +0.000 NA
ATOM      5  C   UNL     1       3.331   3.933  20.011  0.00  0.00    +0.000 A 
ATOM      6  C   UNL     1       3.621   2.504  20.332  0.00  0.00    +0.000 C 
ATOM      7  N   UNL     1       4.009   4.466  18.983  0.00  0.00    +0.000 NA
ATOM      8  C   UNL     1       3.712   5.722  18.625  0.00  0.00    +0.000 A 
ATOM      9  N   UNL     1       4.444   6.348  17.593  0.00  0.00    +0.000 N 
ATOM     10  C   UNL     1       2.713   6.447  19.286  0.00  0.00    +0.000 A 
ATOM     11  C   UNL     1       2.361   7.763  18.932  0.00  0.00    +0.000 A 
ATOM     12  C   UNL     1       1.529   8.576  19.718  0.00  0.00    +0.000 A 
ATOM     13  H   UNL     1       3.887   6.351  16.740  0.00  0.00    +0.000 HD
ENDROOT
BRANCH  12  14
ATOM     14  C   UNL     1       1.409  10.061  19.342  0.00  0.00    +0.000 C 
ATOM     15  C   UNL     1       0.400  10.946  20.101  0.00  0.00    +0.000 C 
ATOM     16  C   UNL     1      -1.049  10.533  19.898  0.00  0.00    +0.000 C 
ATOM     17  S   UNL     1      -1.541  10.529  18.189  0.00  0.00    +0.000 S 
ATOM     18  O   UNL     1      -2.656   9.616  18.046  0.00  0.00    +0.000 OA
ATOM     19  O   UNL     1      -1.658  11.911  17.757  0.00  0.00    +0.000 OA
ATOM     20  C   UNL     1      -0.155   9.825  17.315  0.00  0.00    +0.000 C 
ATOM     21  C   UNL     1       1.182  10.344  17.829  0.00  0.00    +0.000 C 
ENDBRANCH  12  14
BRANCH   1  23
ATOM     22  C   UNL     1       0.895   9.191  22.938  0.00  0.00    +0.000 C 
ATOM     23  O   UNL     1       0.270   8.767  21.727  0.00  0.00    +0.000 OA
ENDBRANCH   1  23
BRANCH   9  24
ATOM     24  C   UNL     1       5.801   5.835  17.392  0.00  0.00    +0.000 C 
ATOM     25  C   UNL     1       6.804   6.981  17.596  0.00  0.00    +0.000 C 
BRANCH  24  26
ATOM     26  C   UNL     1       5.942   5.228  16.003  0.00  0.00    +0.000 A 
ATOM     27  C   UNL     1       5.099   4.168  15.639  0.00  0.00    +0.000 A 
ATOM     28  C   UNL     1       5.251   3.524  14.413  0.00  0.00    +0.000 A 
ATOM     29  C   UNL     1       6.247   3.934  13.529  0.00  0.00    +0.000 A 
ATOM     30  C   UNL     1       7.088   5.001  13.856  0.00  0.00    +0.000 A 
ATOM     31  C   UNL     1       8.172   5.434  12.913  0.00  0.00    +0.000 C 
ATOM     32  C   UNL     1       6.917   5.657  15.085  0.00  0.00    +0.000 A 
ENDBRANCH  24  26
ENDBRANCH   9  24
TORSDOF 4
ENDMDL
