MODEL 1
REMARK VINA RESULT:      -7.9      0.000      0.000
REMARK  Name = 
REMARK  5 active torsions:
REMARK  status: ('A' for Active; 'I' for Inactive)
REMARK    1  A    between atoms: C_1  and  O_2
REMARK    2  A    between atoms: O_2  and  C_3
REMARK    3  A    between atoms: C_5  and  C_6
REMARK    4  A    between atoms: C_13  and  C_15
REMARK    5  A    between atoms: C_18  and  C_19
REMARK                            x       y       z     vdW  Elec       q    Type
REMARK                         _______ _______ _______ _____ _____    ______ ____
ROOT
ATOM      1  C   UNL     1       4.838   4.021  18.709  0.00  0.00    +0.000 A 
ATOM      2  C   UNL     1       5.332   4.337  17.470  0.00  0.00    +0.000 A 
ATOM      3  C   UNL     1       4.883   5.528  16.940  0.00  0.00    +0.000 A 
ATOM      4  C   UNL     1       5.253   5.933  15.545  0.00  0.00    +0.000 C 
ATOM      5  N   UNL     1       4.041   6.345  17.613  0.00  0.00    +0.000 NA
ATOM      6  C   UNL     1       3.616   5.932  18.818  0.00  0.00    +0.000 A 
ATOM      7  N   UNL     1       2.699   6.752  19.446  0.00  0.00    +0.000 N 
ATOM      8  C   UNL     1       1.971   6.445  20.557  0.00  0.00    +0.000 C 
ATOM      9  O   UNL     1       1.977   5.387  21.186  0.00  0.00    +0.000 OA
ATOM     10  N   UNL     1       1.127   7.441  21.008  0.00  0.00    +0.000 N 
ATOM     11  C   UNL     1       1.052   8.728  20.529  0.00  0.00    +0.000 C 
ATOM     12  O   UNL     1       1.653   9.123  19.534  0.00  0.00    +0.000 OA
ATOM     13  N   UNL     1       3.997   4.800  19.396  0.00  0.00    +0.000 NA
ATOM     14  H   UNL     1       2.526   7.634  18.977  0.00  0.00    +0.000 HD
ATOM     15  H   UNL     1       0.652   7.177  21.855  0.00  0.00    +0.000 HD
ENDROOT
BRANCH  11  16
ATOM     16  C   UNL     1       0.202   9.688  21.273  0.00  0.00    +0.000 A 
ATOM     17  C   UNL     1      -0.271  10.797  20.556  0.00  0.00    +0.000 A 
ATOM     18  C   UNL     1      -1.119  11.723  21.160  0.00  0.00    +0.000 A 
ATOM     19  C   UNL     1      -1.517  11.552  22.491  0.00  0.00    +0.000 A 
ATOM     20  C   UNL     1      -1.044  10.437  23.208  0.00  0.00    +0.000 A 
ATOM     21  C   UNL     1      -0.190   9.506  22.603  0.00  0.00    +0.000 A 
BRANCH  19  22
ATOM     22  C   UNL     1      -2.455  12.542  23.143  0.00  0.00    +0.000 C 
ATOM     23  F   UNL     1      -1.812  13.497  23.871  0.00  0.00    +0.000 F 
ATOM     24  F   UNL     1      -3.215  13.213  22.236  0.00  0.00    +0.000 F 
ATOM     25  F   UNL     1      -3.325  11.943  23.999  0.00  0.00    +0.000 F 
ENDBRANCH  19  22
ENDBRANCH  11  16
BRANCH   1  27
ATOM     26  C   UNL     1       4.102   2.138  19.847  0.00  0.00    +0.000 C 
ATOM     27  O   UNL     1       5.216   2.812  19.255  0.00  0.00    +0.000 OA
ENDBRANCH   1  27
TORSDOF 3
ENDMDL
MODEL 2
REMARK VINA RESULT:      -7.9      0.250      1.247
REMARK  Name = 
REMARK  5 active torsions:
REMARK  status: ('A' for Active; 'I' for Inactive)
REMARK    1  A    between atoms: C_1  and  O_2
REMARK    2  A    between atoms: O_2  and  C_3
REMARK    3  A    between atoms: C_5  and  C_6
REMARK    4  A    between atoms: C_13  and  C_15
REMARK    5  A    between atoms: C_18  and  C_19
REMARK                            x       y       z     vdW  Elec       q    Type
REMARK                         _______ _______ _______ _____ _____    ______ ____
ROOT
ATOM      1  C   UNL     1       4.863   4.227  18.867  0.00  0.00    +0.000 A 
ATOM      2  C   UNL     1       5.379   4.492  17.625  0.00  0.00    +0.000 A 
ATOM      3  C   UNL     1       4.910   5.638  17.020  0.00  0.00    +0.000 A 
ATOM      4  C   UNL     1       5.304   5.979  15.614  0.00  0.00    +0.000 C 
ATOM      5  N   UNL     1       4.027   6.464  17.626  0.00  0.00    +0.000 NA
ATOM      6  C   UNL     1       3.582   6.104  18.841  0.00  0.00    +0.000 A 
ATOM      7  N   UNL     1       2.625   6.928  19.401  0.00  0.00    +0.000 N 
ATOM      8  C   UNL     1       1.878   6.658  20.509  0.00  0.00    +0.000 C 
ATOM      9  O   UNL     1       1.899   5.637  21.195  0.00  0.00    +0.000 OA
ATOM     10  N   UNL     1       0.994   7.651  20.884  0.00  0.00    +0.000 N 
ATOM     11  C   UNL     1       0.894   8.907  20.334  0.00  0.00    +0.000 C 
ATOM     12  O   UNL     1       1.509   9.266  19.334  0.00  0.00    +0.000 OA
ATOM     13  N   UNL     1       3.981   5.016  19.489  0.00  0.00    +0.000 NA
ATOM     14  H   UNL     1       2.439   7.777  18.880  0.00  0.00    +0.000 HD
ATOM     15  H   UNL     1       0.505   7.418  21.732  0.00  0.00    +0.000 HD
ENDROOT
BRANCH  11  16
ATOM     16  C   UNL     1      -0.004   9.879  21.003  0.00  0.00    +0.000 A 
ATOM     17  C   UNL     1      -0.216   9.697  22.379  0.00  0.00    +0.000 A 
ATOM     18  C   UNL     1      -1.002  10.592  23.099  0.00  0.00    +0.000 A 
ATOM     19  C   UNL     1      -1.586  11.692  22.459  0.00  0.00    +0.000 A 
ATOM     20  C   UNL     1      -1.370  11.874  21.081  0.00  0.00    +0.000 A 
ATOM     21  C   UNL     1      -0.581  10.974  20.354  0.00  0.00    +0.000 A 
BRANCH  19  22
ATOM     22  C   UNL     1      -2.422  12.678  23.243  0.00  0.00    +0.000 C 
ATOM     23  F   UNL     1      -3.220  13.454  22.457  0.00  0.00    +0.000 F 
ATOM     24  F   UNL     1      -3.253  12.067  24.130  0.00  0.00    +0.000 F 
ATOM     25  F   UNL     1      -1.660  13.540  23.968  0.00  0.00    +0.000 F 
ENDBRANCH  19  22
ENDBRANCH  11  16
BRANCH   1  27
ATOM     26  C   UNL     1       4.139   2.249  19.839  0.00  0.00    +0.000 C 
ATOM     27  O   UNL     1       5.262   3.062  19.487  0.00  0.00    +0.000 OA
ENDBRANCH   1  27
TORSDOF 3
ENDMDL
MODEL 3
REMARK VINA RESULT:      -7.8      1.365      2.682
REMARK  Name = 
REMARK  5 active torsions:
REMARK  status: ('A' for Active; 'I' for Inactive)
REMARK    1  A    between atoms: C_1  and  O_2
REMARK    2  A    between atoms: O_2  and  C_3
REMARK    3  A    between atoms: C_5  and  C_6
REMARK    4  A    between atoms: C_13  and  C_15
REMARK    5  A    between atoms: C_18  and  C_19
REMARK                            x       y       z     vdW  Elec       q    Type
REMARK                         _______ _______ _______ _____ _____    ______ ____
ROOT
ATOM      1  C   UNL     1       4.359   4.338  16.993  0.00  0.00    +0.000 A 
ATOM      2  C   UNL     1       4.612   3.217  17.740  0.00  0.00    +0.000 A 
ATOM      3  C   UNL     1       4.145   3.252  19.037  0.00  0.00    +0.000 A 
ATOM      4  C   UNL     1       4.457   2.141  19.994  0.00  0.00    +0.000 C 
ATOM      5  N   UNL     1       3.453   4.306  19.526  0.00  0.00    +0.000 NA
ATOM      6  C   UNL     1       3.268   5.354  18.706  0.00  0.00    +0.000 A 
ATOM      7  N   UNL     1       2.625   6.445  19.258  0.00  0.00    +0.000 N 
ATOM      8  C   UNL     1       2.516   7.684  18.701  0.00  0.00    +0.000 C 
ATOM      9  O   UNL     1       2.984   8.065  17.628  0.00  0.00    +0.000 OA
ATOM     10  N   UNL     1       1.808   8.608  19.443  0.00  0.00    +0.000 N 
ATOM     11  C   UNL     1       1.108   8.364  20.601  0.00  0.00    +0.000 C 
ATOM     12  O   UNL     1       1.132   7.293  21.200  0.00  0.00    +0.000 OA
ATOM     13  N   UNL     1       3.689   5.401  17.448  0.00  0.00    +0.000 NA
ATOM     14  H   UNL     1       2.264   6.296  20.194  0.00  0.00    +0.000 HD
ATOM     15  H   UNL     1       1.721   9.489  18.963  0.00  0.00    +0.000 HD
ENDROOT
BRANCH  11  16
ATOM     16  C   UNL     1       0.272   9.463  21.141  0.00  0.00    +0.000 A 
ATOM     17  C   UNL     1      -0.107   9.361  22.488  0.00  0.00    +0.000 A 
ATOM     18  C   UNL     1      -0.849  10.372  23.094  0.00  0.00    +0.000 A 
ATOM     19  C   UNL     1      -1.219  11.509  22.366  0.00  0.00    +0.000 A 
ATOM     20  C   UNL     1      -0.835  11.611  21.017  0.00  0.00    +0.000 A 
ATOM     21  C   UNL     1      -0.090  10.594  20.405  0.00  0.00    +0.000 A 
BRANCH  19  22
ATOM     22  C   UNL     1      -2.005  12.619  23.027  0.00  0.00    +0.000 C 
ATOM     23  F   UNL     1      -2.594  13.467  22.138  0.00  0.00    +0.000 F 
ATOM     24  F   UNL     1      -3.008  12.148  23.816  0.00  0.00    +0.000 F 
ATOM     25  F   UNL     1      -1.227  13.398  23.826  0.00  0.00    +0.000 F 
ENDBRANCH  19  22
ENDBRANCH  11  16
BRANCH   1  27
ATOM     26  C   UNL     1       6.285   4.306  15.699  0.00  0.00    +0.000 C 
ATOM     27  O   UNL     1       4.857   4.370  15.706  0.00  0.00    +0.000 OA
ENDBRANCH   1  27
TORSDOF 3
ENDMDL
MODEL 4
REMARK VINA RESULT:      -7.8      5.276      9.083
REMARK  Name = 
REMARK  5 active torsions:
REMARK  status: ('A' for Active; 'I' for Inactive)
REMARK    1  A    between atoms: C_1  and  O_2
REMARK    2  A    between atoms: O_2  and  C_3
REMARK    3  A    between atoms: C_5  and  C_6
REMARK    4  A    between atoms: C_13  and  C_15
REMARK    5  A    between atoms: C_18  and  C_19
REMARK                            x       y       z     vdW  Elec       q    Type
REMARK                         _______ _______ _______ _____ _____    ______ ____
ROOT
ATOM      1  C   UNL     1      -0.341  13.214  22.187  0.00  0.00    +0.000 A 
ATOM      2  C   UNL     1      -0.002  14.211  21.309  0.00  0.00    +0.000 A 
ATOM      3  C   UNL     1       0.728  13.811  20.211  0.00  0.00    +0.000 A 
ATOM      4  C   UNL     1       1.262  14.818  19.238  0.00  0.00    +0.000 C 
ATOM      5  N   UNL     1       1.055  12.516  19.996  0.00  0.00    +0.000 NA
ATOM      6  C   UNL     1       0.676  11.623  20.925  0.00  0.00    +0.000 A 
ATOM      7  N   UNL     1       1.091  10.323  20.714  0.00  0.00    +0.000 N 
ATOM      8  C   UNL     1       1.016   9.298  21.611  0.00  0.00    +0.000 C 
ATOM      9  O   UNL     1       0.593   9.344  22.765  0.00  0.00    +0.000 OA
ATOM     10  N   UNL     1       1.483   8.080  21.159  0.00  0.00    +0.000 N 
ATOM     11  C   UNL     1       1.885   7.782  19.878  0.00  0.00    +0.000 C 
ATOM     12  O   UNL     1       1.999   8.618  18.986  0.00  0.00    +0.000 OA
ATOM     13  N   UNL     1      -0.024  11.928  22.010  0.00  0.00    +0.000 NA
ATOM     14  H   UNL     1       1.547  10.161  19.824  0.00  0.00    +0.000 HD
ATOM     15  H   UNL     1       1.361   7.352  21.844  0.00  0.00    +0.000 HD
ENDROOT
BRANCH  11  16
ATOM     16  C   UNL     1       2.185   6.364  19.566  0.00  0.00    +0.000 A 
ATOM     17  C   UNL     1       1.807   5.414  20.527  0.00  0.00    +0.000 A 
ATOM     18  C   UNL     1       2.002   4.054  20.295  0.00  0.00    +0.000 A 
ATOM     19  C   UNL     1       2.573   3.618  19.094  0.00  0.00    +0.000 A 
ATOM     20  C   UNL     1       2.949   4.572  18.130  0.00  0.00    +0.000 A 
ATOM     21  C   UNL     1       2.755   5.940  18.362  0.00  0.00    +0.000 A 
BRANCH  19  22
ATOM     22  C   UNL     1       2.766   2.142  18.829  0.00  0.00    +0.000 C 
ATOM     23  F   UNL     1       3.952   1.660  19.295  0.00  0.00    +0.000 F 
ATOM     24  F   UNL     1       1.800   1.379  19.407  0.00  0.00    +0.000 F 
ATOM     25  F   UNL     1       2.739   1.848  17.501  0.00  0.00    +0.000 F 
ENDBRANCH  19  22
ENDBRANCH  11  16
BRANCH   1  27
ATOM     26  C   UNL     1      -2.295  12.925  23.405  0.00  0.00    +0.000 C 
ATOM     27  O   UNL     1      -1.024  13.577  23.330  0.00  0.00    +0.000 OA
ENDBRANCH   1  27
TORSDOF 3
ENDMDL
MODEL 5
REMARK VINA RESULT:      -7.8      5.319      9.093
REMARK  Name = 
REMARK  5 active torsions:
REMARK  status: ('A' for Active; 'I' for Inactive)
REMARK    1  A    between atoms: C_1  and  O_2
REMARK    2  A    between atoms: O_2  and  C_3
REMARK    3  A    between atoms: C_5  and  C_6
REMARK    4  A    between atoms: C_13  and  C_15
REMARK    5  A    between atoms: C_18  and  C_19
REMARK                            x       y       z     vdW  Elec       q    Type
REMARK                         _______ _______ _______ _____ _____    ______ ____
ROOT
ATOM      1  C   UNL     1      -0.309  13.328  22.127  0.00  0.00    +0.000 A 
ATOM      2  C   UNL     1      -0.086  14.260  21.147  0.00  0.00    +0.000 A 
ATOM      3  C   UNL     1       0.548  13.790  20.017  0.00  0.00    +0.000 A 
ATOM      4  C   UNL     1       0.956  14.729  18.921  0.00  0.00    +0.000 C 
ATOM      5  N   UNL     1       0.893  12.491  19.870  0.00  0.00    +0.000 NA
ATOM      6  C   UNL     1       0.631  11.666  20.897  0.00  0.00    +0.000 A 
ATOM      7  N   UNL     1       1.063  10.363  20.748  0.00  0.00    +0.000 N 
ATOM      8  C   UNL     1       1.106   9.411  21.723  0.00  0.00    +0.000 C 
ATOM      9  O   UNL     1       0.794   9.539  22.907  0.00  0.00    +0.000 OA
ATOM     10  N   UNL     1       1.565   8.171  21.323  0.00  0.00    +0.000 N 
ATOM     11  C   UNL     1       1.851   7.782  20.036  0.00  0.00    +0.000 C 
ATOM     12  O   UNL     1       1.854   8.547  19.075  0.00  0.00    +0.000 OA
ATOM     13  N   UNL     1       0.029  12.040  22.020  0.00  0.00    +0.000 NA
ATOM     14  H   UNL     1       1.437  10.141  19.832  0.00  0.00    +0.000 HD
ATOM     15  H   UNL     1       1.530   7.498  22.070  0.00  0.00    +0.000 HD
ENDROOT
BRANCH  11  16
ATOM     16  C   UNL     1       2.163   6.351  19.805  0.00  0.00    +0.000 A 
ATOM     17  C   UNL     1       2.844   6.038  18.619  0.00  0.00    +0.000 A 
ATOM     18  C   UNL     1       3.224   4.727  18.345  0.00  0.00    +0.000 A 
ATOM     19  C   UNL     1       2.937   3.703  19.256  0.00  0.00    +0.000 A 
ATOM     20  C   UNL     1       2.257   4.020  20.447  0.00  0.00    +0.000 A 
ATOM     21  C   UNL     1       1.872   5.338  20.723  0.00  0.00    +0.000 A 
BRANCH  19  22
ATOM     22  C   UNL     1       3.367   2.282  18.972  0.00  0.00    +0.000 C 
ATOM     23  F   UNL     1       3.798   2.093  17.694  0.00  0.00    +0.000 F 
ATOM     24  F   UNL     1       4.389   1.879  19.774  0.00  0.00    +0.000 F 
ATOM     25  F   UNL     1       2.360   1.389  19.163  0.00  0.00    +0.000 F 
ENDBRANCH  19  22
ENDBRANCH  11  16
BRANCH   1  27
ATOM     26  C   UNL     1      -2.187  13.189  23.483  0.00  0.00    +0.000 C 
ATOM     27  O   UNL     1      -0.891  13.765  23.300  0.00  0.00    +0.000 OA
ENDBRANCH   1  27
TORSDOF 3
ENDMDL
MODEL 6
REMARK VINA RESULT:      -7.7      1.301      2.447
REMARK  Name = 
REMARK  5 active torsions:
REMARK  status: ('A' for Active; 'I' for Inactive)
REMARK    1  A    between atoms: C_1  and  O_2
REMARK    2  A    between atoms: O_2  and  C_3
REMARK    3  A    between atoms: C_5  and  C_6
REMARK    4  A    between atoms: C_13  and  C_15
REMARK    5  A    between atoms: C_18  and  C_19
REMARK                            x       y       z     vdW  Elec       q    Type
REMARK                         _______ _______ _______ _____ _____    ______ ____
ROOT
ATOM      1  C   UNL     1       4.254   4.421  17.039  0.00  0.00    +0.000 A 
ATOM      2  C   UNL     1       4.506   3.278  17.753  0.00  0.00    +0.000 A 
ATOM      3  C   UNL     1       4.053   3.281  19.055  0.00  0.00    +0.000 A 
ATOM      4  C   UNL     1       4.367   2.143  19.978  0.00  0.00    +0.000 C 
ATOM      5  N   UNL     1       3.373   4.326  19.580  0.00  0.00    +0.000 NA
ATOM      6  C   UNL     1       3.187   5.397  18.791  0.00  0.00    +0.000 A 
ATOM      7  N   UNL     1       2.557   6.476  19.380  0.00  0.00    +0.000 N 
ATOM      8  C   UNL     1       2.451   7.731  18.858  0.00  0.00    +0.000 C 
ATOM      9  O   UNL     1       2.911   8.138  17.791  0.00  0.00    +0.000 OA
ATOM     10  N   UNL     1       1.757   8.640  19.632  0.00  0.00    +0.000 N 
ATOM     11  C   UNL     1       1.068   8.368  20.790  0.00  0.00    +0.000 C 
ATOM     12  O   UNL     1       1.090   7.281  21.360  0.00  0.00    +0.000 OA
ATOM     13  N   UNL     1       3.595   5.475  17.530  0.00  0.00    +0.000 NA
ATOM     14  H   UNL     1       2.205   6.305  20.315  0.00  0.00    +0.000 HD
ATOM     15  H   UNL     1       1.671   9.533  19.177  0.00  0.00    +0.000 HD
ENDROOT
BRANCH  11  16
ATOM     16  C   UNL     1       0.245   9.457  21.370  0.00  0.00    +0.000 A 
ATOM     17  C   UNL     1      -0.197  10.452  20.484  0.00  0.00    +0.000 A 
ATOM     18  C   UNL     1      -1.018  11.484  20.931  0.00  0.00    +0.000 A 
ATOM     19  C   UNL     1      -1.420  11.538  22.270  0.00  0.00    +0.000 A 
ATOM     20  C   UNL     1      -0.978  10.538  23.157  0.00  0.00    +0.000 A 
ATOM     21  C   UNL     1      -0.151   9.499  22.710  0.00  0.00    +0.000 A 
BRANCH  19  22
ATOM     22  C   UNL     1      -2.329  12.644  22.754  0.00  0.00    +0.000 C 
ATOM     23  F   UNL     1      -1.791  13.384  23.763  0.00  0.00    +0.000 F 
ATOM     24  F   UNL     1      -2.642  13.528  21.768  0.00  0.00    +0.000 F 
ATOM     25  F   UNL     1      -3.512  12.170  23.228  0.00  0.00    +0.000 F 
ENDBRANCH  19  22
ENDBRANCH  11  16
BRANCH   1  27
ATOM     26  C   UNL     1       5.392   5.733  15.501  0.00  0.00    +0.000 C 
ATOM     27  O   UNL     1       4.738   4.486  15.749  0.00  0.00    +0.000 OA
ENDBRANCH   1  27
TORSDOF 3
ENDMDL
MODEL 7
REMARK VINA RESULT:      -7.4      5.663      9.500
REMARK  Name = 
REMARK  5 active torsions:
REMARK  status: ('A' for Active; 'I' for Inactive)
REMARK    1  A    between atoms: C_1  and  O_2
REMARK    2  A    between atoms: O_2  and  C_3
REMARK    3  A    between atoms: C_5  and  C_6
REMARK    4  A    between atoms: C_13  and  C_15
REMARK    5  A    between atoms: C_18  and  C_19
REMARK                            x       y       z     vdW  Elec       q    Type
REMARK                         _______ _______ _______ _____ _____    ______ ____
ROOT
ATOM      1  C   UNL     1      -1.259  11.524  21.972  0.00  0.00    +0.000 A 
ATOM      2  C   UNL     1      -1.401  12.743  21.359  0.00  0.00    +0.000 A 
ATOM      3  C   UNL     1      -0.700  12.900  20.184  0.00  0.00    +0.000 A 
ATOM      4  C   UNL     1      -0.676  14.223  19.477  0.00  0.00    +0.000 C 
ATOM      5  N   UNL     1       0.049  11.908  19.651  0.00  0.00    +0.000 NA
ATOM      6  C   UNL     1       0.122  10.757  20.339  0.00  0.00    +0.000 A 
ATOM      7  N   UNL     1       0.954   9.790  19.809  0.00  0.00    +0.000 N 
ATOM      8  C   UNL     1       1.353   8.642  20.428  0.00  0.00    +0.000 C 
ATOM      9  O   UNL     1       1.071   8.269  21.566  0.00  0.00    +0.000 OA
ATOM     10  N   UNL     1       2.178   7.823  19.683  0.00  0.00    +0.000 N 
ATOM     11  C   UNL     1       2.519   7.989  18.361  0.00  0.00    +0.000 C 
ATOM     12  O   UNL     1       2.224   8.981  17.699  0.00  0.00    +0.000 OA
ATOM     13  N   UNL     1      -0.519  10.526  21.479  0.00  0.00    +0.000 NA
ATOM     14  H   UNL     1       1.338  10.013  18.898  0.00  0.00    +0.000 HD
ATOM     15  H   UNL     1       2.402   6.972  20.170  0.00  0.00    +0.000 HD
ENDROOT
BRANCH  11  16
ATOM     16  C   UNL     1       3.276   6.897  17.705  0.00  0.00    +0.000 A 
ATOM     17  C   UNL     1       4.346   7.278  16.881  0.00  0.00    +0.000 A 
ATOM     18  C   UNL     1       5.145   6.317  16.267  0.00  0.00    +0.000 A 
ATOM     19  C   UNL     1       4.893   4.955  16.470  0.00  0.00    +0.000 A 
ATOM     20  C   UNL     1       3.822   4.574  17.299  0.00  0.00    +0.000 A 
ATOM     21  C   UNL     1       3.016   5.540  17.917  0.00  0.00    +0.000 A 
BRANCH  19  22
ATOM     22  C   UNL     1       5.772   3.909  15.822  0.00  0.00    +0.000 C 
ATOM     23  F   UNL     1       5.691   3.901  14.462  0.00  0.00    +0.000 F 
ATOM     24  F   UNL     1       7.089   4.081  16.117  0.00  0.00    +0.000 F 
ATOM     25  F   UNL     1       5.455   2.648  16.222  0.00  0.00    +0.000 F 
ENDBRANCH  19  22
ENDBRANCH  11  16
BRANCH   1  27
ATOM     26  C   UNL     1      -2.992  12.248  23.333  0.00  0.00    +0.000 C 
ATOM     27  O   UNL     1      -1.898  11.340  23.180  0.00  0.00    +0.000 OA
ENDBRANCH   1  27
TORSDOF 3
ENDMDL
MODEL 8
REMARK VINA RESULT:      -7.1      5.785      9.778
REMARK  Name = 
REMARK  5 active torsions:
REMARK  status: ('A' for Active; 'I' for Inactive)
REMARK    1  A    between atoms: C_1  and  O_2
REMARK    2  A    between atoms: O_2  and  C_3
REMARK    3  A    between atoms: C_5  and  C_6
REMARK    4  A    between atoms: C_13  and  C_15
REMARK    5  A    between atoms: C_18  and  C_19
REMARK                            x       y       z     vdW  Elec       q    Type
REMARK                         _______ _______ _______ _____ _____    ______ ____
ROOT
ATOM      1  C   UNL     1       0.116  12.952  20.827  0.00  0.00    +0.000 A 
ATOM      2  C   UNL     1      -0.593  12.596  21.945  0.00  0.00    +0.000 A 
ATOM      3  C   UNL     1      -0.606  11.248  22.233  0.00  0.00    +0.000 A 
ATOM      4  C   UNL     1      -1.440  10.713  23.358  0.00  0.00    +0.000 C 
ATOM      5  N   UNL     1       0.064  10.344  21.483  0.00  0.00    +0.000 NA
ATOM      6  C   UNL     1       0.721  10.804  20.406  0.00  0.00    +0.000 A 
ATOM      7  N   UNL     1       1.333   9.847  19.619  0.00  0.00    +0.000 N 
ATOM      8  C   UNL     1       1.866  10.044  18.380  0.00  0.00    +0.000 C 
ATOM      9  O   UNL     1       1.882  11.089  17.730  0.00  0.00    +0.000 OA
ATOM     10  N   UNL     1       2.439   8.930  17.798  0.00  0.00    +0.000 N 
ATOM     11  C   UNL     1       2.633   7.705  18.391  0.00  0.00    +0.000 C 
ATOM     12  O   UNL     1       2.195   7.406  19.499  0.00  0.00    +0.000 OA
ATOM     13  N   UNL     1       0.780  12.084  20.058  0.00  0.00    +0.000 NA
ATOM     14  H   UNL     1       1.311   8.908  19.999  0.00  0.00    +0.000 HD
ATOM     15  H   UNL     1       2.857   9.144  16.907  0.00  0.00    +0.000 HD
ENDROOT
BRANCH  11  16
ATOM     16  C   UNL     1       3.426   6.700  17.645  0.00  0.00    +0.000 A 
ATOM     17  C   UNL     1       4.440   7.192  16.809  0.00  0.00    +0.000 A 
ATOM     18  C   UNL     1       5.269   6.318  16.110  0.00  0.00    +0.000 A 
ATOM     19  C   UNL     1       5.105   4.934  16.240  0.00  0.00    +0.000 A 
ATOM     20  C   UNL     1       4.091   4.442  17.081  0.00  0.00    +0.000 A 
ATOM     21  C   UNL     1       3.254   5.320  17.784  0.00  0.00    +0.000 A 
BRANCH  19  22
ATOM     22  C   UNL     1       6.018   3.982  15.501  0.00  0.00    +0.000 C 
ATOM     23  F   UNL     1       5.813   2.675  15.826  0.00  0.00    +0.000 F 
ATOM     24  F   UNL     1       5.867   4.059  14.151  0.00  0.00    +0.000 F 
ATOM     25  F   UNL     1       7.332   4.227  15.750  0.00  0.00    +0.000 F 
ENDBRANCH  19  22
ENDBRANCH  11  16
BRANCH   1  27
ATOM     26  C   UNL     1       0.682  14.476  19.171  0.00  0.00    +0.000 C 
ATOM     27  O   UNL     1       0.111  14.285  20.468  0.00  0.00    +0.000 OA
ENDBRANCH   1  27
TORSDOF 3
ENDMDL
MODEL 9
REMARK VINA RESULT:      -7.1      5.612      9.504
REMARK  Name = 
REMARK  5 active torsions:
REMARK  status: ('A' for Active; 'I' for Inactive)
REMARK    1  A    between atoms: C_1  and  O_2
REMARK    2  A    between atoms: O_2  and  C_3
REMARK    3  A    between atoms: C_5  and  C_6
REMARK    4  A    between atoms: C_13  and  C_15
REMARK    5  A    between atoms: C_18  and  C_19
REMARK                            x       y       z     vdW  Elec       q    Type
REMARK                         _______ _______ _______ _____ _____    ______ ____
ROOT
ATOM      1  C   UNL     1      -1.716  12.903  21.148  0.00  0.00    +0.000 A 
ATOM      2  C   UNL     1      -1.550  14.093  20.489  0.00  0.00    +0.000 A 
ATOM      3  C   UNL     1      -0.625  14.080  19.467  0.00  0.00    +0.000 A 
ATOM      4  C   UNL     1      -0.263  15.343  18.745  0.00  0.00    +0.000 C 
ATOM      5  N   UNL     1       0.045  12.959  19.115  0.00  0.00    +0.000 NA
ATOM      6  C   UNL     1      -0.193  11.849  19.834  0.00  0.00    +0.000 A 
ATOM      7  N   UNL     1       0.562  10.742  19.499  0.00  0.00    +0.000 N 
ATOM      8  C   UNL     1       0.654   9.584  20.212  0.00  0.00    +0.000 C 
ATOM      9  O   UNL     1       0.109   9.320  21.284  0.00  0.00    +0.000 OA
ATOM     10  N   UNL     1       1.465   8.611  19.662  0.00  0.00    +0.000 N 
ATOM     11  C   UNL     1       2.068   8.652  18.427  0.00  0.00    +0.000 C 
ATOM     12  O   UNL     1       2.061   9.638  17.695  0.00  0.00    +0.000 OA
ATOM     13  N   UNL     1      -1.063  11.780  20.834  0.00  0.00    +0.000 NA
ATOM     14  H   UNL     1       1.139  10.855  18.674  0.00  0.00    +0.000 HD
ATOM     15  H   UNL     1       1.458   7.764  20.205  0.00  0.00    +0.000 HD
ENDROOT
BRANCH  11  16
ATOM     16  C   UNL     1       2.754   7.424  17.957  0.00  0.00    +0.000 A 
ATOM     17  C   UNL     1       4.000   7.597  17.336  0.00  0.00    +0.000 A 
ATOM     18  C   UNL     1       4.739   6.496  16.911  0.00  0.00    +0.000 A 
ATOM     19  C   UNL     1       4.249   5.199  17.106  0.00  0.00    +0.000 A 
ATOM     20  C   UNL     1       3.001   5.027  17.732  0.00  0.00    +0.000 A 
ATOM     21  C   UNL     1       2.255   6.134  18.159  0.00  0.00    +0.000 A 
BRANCH  19  22
ATOM     22  C   UNL     1       5.059   4.000  16.666  0.00  0.00    +0.000 C 
ATOM     23  F   UNL     1       4.517   2.811  17.051  0.00  0.00    +0.000 F 
ATOM     24  F   UNL     1       5.191   3.930  15.314  0.00  0.00    +0.000 F 
ATOM     25  F   UNL     1       6.321   4.016  17.171  0.00  0.00    +0.000 F 
ENDBRANCH  19  22
ENDBRANCH  11  16
BRANCH   1  27
ATOM     26  C   UNL     1      -3.940  12.695  21.779  0.00  0.00    +0.000 C 
ATOM     27  O   UNL     1      -2.591  12.883  22.215  0.00  0.00    +0.000 OA
ENDBRANCH   1  27
TORSDOF 3
ENDMDL
