MODEL 1
REMARK VINA RESULT:      -7.4      0.000      0.000
REMARK  Name = 
REMARK  4 active torsions:
REMARK  status: ('A' for Active; 'I' for Inactive)
REMARK    1  A    between atoms: C_1  and  C_2
REMARK    2  A    between atoms: C_13  and  C_14
REMARK    3  A    between atoms: C_21  and  N_22
REMARK    4  A    between atoms: N_25  and  C_26
REMARK                            x       y       z     vdW  Elec       q    Type
REMARK                         _______ _______ _______ _____ _____    ______ ____
ROOT
ATOM      1  C   UNL     1      -0.381   8.703  21.531  0.00  0.00    +0.000 C 
ATOM      2  C   UNL     1      -0.468  10.157  21.807  0.00  0.00    +0.000 A 
ATOM      3  N   UNL     1      -0.153  10.708  22.961  0.00  0.00    +0.000 NA
ATOM      4  N   UNL     1      -0.451  12.041  22.896  0.00  0.00    +0.000 NA
ATOM      5  C   UNL     1      -0.940  12.294  21.699  0.00  0.00    +0.000 A 
ATOM      6  N   UNL     1      -1.008  11.126  20.974  0.00  0.00    +0.000 N 
ATOM      7  C   UNL     1      -1.500  11.014  19.651  0.00  0.00    +0.000 A 
ATOM      8  C   UNL     1      -0.840  10.172  18.743  0.00  0.00    +0.000 A 
ATOM      9  C   UNL     1      -1.264  10.090  17.416  0.00  0.00    +0.000 A 
ATOM     10  C   UNL     1      -2.350  10.840  16.981  0.00  0.00    +0.000 A 
ATOM     11  C   UNL     1      -2.996  11.698  17.867  0.00  0.00    +0.000 A 
ATOM     12  C   UNL     1      -2.582  11.797  19.208  0.00  0.00    +0.000 A 
ATOM     13  C   UNL     1      -3.325  12.781  20.065  0.00  0.00    +0.000 C 
ATOM     14  N   UNL     1      -2.763  13.625  20.849  0.00  0.00    +0.000 NA
ATOM     15  C   UNL     1      -1.341  13.617  21.139  0.00  0.00    +0.000 C 
ENDROOT
BRANCH  13  16
ATOM     16  C   UNL     1      -4.822  12.827  19.973  0.00  0.00    +0.000 A 
ATOM     17  C   UNL     1      -5.568  11.643  19.903  0.00  0.00    +0.000 A 
ATOM     18  C   UNL     1      -6.955  11.695  19.776  0.00  0.00    +0.000 A 
ATOM     19  C   UNL     1      -7.606  12.926  19.744  0.00  0.00    +0.000 A 
ATOM     20  C   UNL     1      -6.873  14.109  19.851  0.00  0.00    +0.000 A 
ATOM     21  C   UNL     1      -5.483  14.063  19.969  0.00  0.00    +0.000 A 
ENDBRANCH  13  16
BRANCH  15  22
ATOM     22  N   UNL     1      -0.581  13.958  19.957  0.00  0.00    +0.000 N 
ATOM     23  C   UNL     1       0.675  14.475  20.106  0.00  0.00    +0.000 C 
ATOM     24  O   UNL     1       1.165  14.632  21.218  0.00  0.00    +0.000 OA
ATOM     25  N   UNL     1       1.301  14.755  18.908  0.00  0.00    +0.000 N 
ATOM     26  H   UNL     1      -1.099  14.147  19.119  0.00  0.00    +0.000 HD
ATOM     27  H   UNL     1       0.724  14.807  18.081  0.00  0.00    +0.000 HD
BRANCH  25  28
ATOM     28  C   UNL     1       2.652  15.161  18.786  0.00  0.00    +0.000 A 
ATOM     29  C   UNL     1       3.629  14.330  18.220  0.00  0.00    +0.000 A 
ATOM     30  C   UNL     1       4.959  14.731  18.134  0.00  0.00    +0.000 A 
ATOM     31  C   UNL     1       5.329  15.986  18.598  0.00  0.00    +0.000 A 
ATOM     32 CL   UNL     1       6.970  16.479  18.487  0.00  0.00    +0.000 Cl
ATOM     33  C   UNL     1       4.371  16.841  19.142  0.00  0.00    +0.000 A 
ATOM     34  C   UNL     1       3.031  16.434  19.229  0.00  0.00    +0.000 A 
ENDBRANCH  25  28
ENDBRANCH  15  22
TORSDOF 3
ENDMDL
MODEL 2
REMARK VINA RESULT:      -7.3      2.188      3.085
REMARK  Name = 
REMARK  4 active torsions:
REMARK  status: ('A' for Active; 'I' for Inactive)
REMARK    1  A    between atoms: C_1  and  C_2
REMARK    2  A    between atoms: C_13  and  C_14
REMARK    3  A    between atoms: C_21  and  N_22
REMARK    4  A    between atoms: N_25  and  C_26
REMARK                            x       y       z     vdW  Elec       q    Type
REMARK                         _______ _______ _______ _____ _____    ______ ____
ROOT
ATOM      1  C   UNL     1      -0.320   9.083  23.163  0.00  0.00    +0.000 C 
ATOM      2  C   UNL     1      -0.406  10.451  22.601  0.00  0.00    +0.000 A 
ATOM      3  N   UNL     1      -0.858  11.495  23.265  0.00  0.00    +0.000 NA
ATOM      4  N   UNL     1      -0.894  12.564  22.413  0.00  0.00    +0.000 NA
ATOM      5  C   UNL     1      -0.457  12.166  21.236  0.00  0.00    +0.000 A 
ATOM      6  N   UNL     1      -0.164  10.821  21.285  0.00  0.00    +0.000 N 
ATOM      7  C   UNL     1       0.313  10.049  20.198  0.00  0.00    +0.000 A 
ATOM      8  C   UNL     1       1.307   9.086  20.426  0.00  0.00    +0.000 A 
ATOM      9  C   UNL     1       1.842   8.355  19.364  0.00  0.00    +0.000 A 
ATOM     10  C   UNL     1       1.389   8.571  18.068  0.00  0.00    +0.000 A 
ATOM     11  C   UNL     1       0.421   9.543  17.828  0.00  0.00    +0.000 A 
ATOM     12  C   UNL     1      -0.128  10.292  18.884  0.00  0.00    +0.000 A 
ATOM     13  C   UNL     1      -1.136  11.339  18.506  0.00  0.00    +0.000 C 
ATOM     14  N   UNL     1      -1.130  12.541  18.951  0.00  0.00    +0.000 NA
ATOM     15  C   UNL     1      -0.250  12.993  20.013  0.00  0.00    +0.000 C 
ENDROOT
BRANCH  13  16
ATOM     16  C   UNL     1      -2.197  10.986  17.506  0.00  0.00    +0.000 A 
ATOM     17  C   UNL     1      -1.911  10.126  16.439  0.00  0.00    +0.000 A 
ATOM     18  C   UNL     1      -2.890   9.836  15.490  0.00  0.00    +0.000 A 
ATOM     19  C   UNL     1      -4.166  10.381  15.617  0.00  0.00    +0.000 A 
ATOM     20  C   UNL     1      -4.470  11.209  16.699  0.00  0.00    +0.000 A 
ATOM     21  C   UNL     1      -3.489  11.510  17.646  0.00  0.00    +0.000 A 
ENDBRANCH  13  16
BRANCH  15  22
ATOM     22  N   UNL     1       1.127  12.974  19.572  0.00  0.00    +0.000 N 
ATOM     23  C   UNL     1       1.895  14.090  19.752  0.00  0.00    +0.000 C 
ATOM     24  O   UNL     1       1.438  15.088  20.296  0.00  0.00    +0.000 OA
ATOM     25  N   UNL     1       3.190  13.948  19.297  0.00  0.00    +0.000 N 
ATOM     26  H   UNL     1       1.368  12.318  18.851  0.00  0.00    +0.000 HD
ATOM     27  H   UNL     1       3.381  13.183  18.667  0.00  0.00    +0.000 HD
BRANCH  25  28
ATOM     28  C   UNL     1       4.218  14.901  19.494  0.00  0.00    +0.000 A 
ATOM     29  C   UNL     1       4.936  14.981  20.696  0.00  0.00    +0.000 A 
ATOM     30  C   UNL     1       5.923  15.943  20.887  0.00  0.00    +0.000 A 
ATOM     31  C   UNL     1       6.221  16.832  19.864  0.00  0.00    +0.000 A 
ATOM     32 CL   UNL     1       7.443  18.016  20.102  0.00  0.00    +0.000 Cl
ATOM     33  C   UNL     1       5.539  16.758  18.650  0.00  0.00    +0.000 A 
ATOM     34  C   UNL     1       4.543  15.787  18.461  0.00  0.00    +0.000 A 
ENDBRANCH  25  28
ENDBRANCH  15  22
TORSDOF 3
ENDMDL
MODEL 3
REMARK VINA RESULT:      -7.3      0.153      1.205
REMARK  Name = 
REMARK  4 active torsions:
REMARK  status: ('A' for Active; 'I' for Inactive)
REMARK    1  A    between atoms: C_1  and  C_2
REMARK    2  A    between atoms: C_13  and  C_14
REMARK    3  A    between atoms: C_21  and  N_22
REMARK    4  A    between atoms: N_25  and  C_26
REMARK                            x       y       z     vdW  Elec       q    Type
REMARK                         _______ _______ _______ _____ _____    ______ ____
ROOT
ATOM      1  C   UNL     1      -0.314   8.705  21.573  0.00  0.00    +0.000 C 
ATOM      2  C   UNL     1      -0.428  10.159  21.834  0.00  0.00    +0.000 A 
ATOM      3  N   UNL     1      -0.145  10.726  22.989  0.00  0.00    +0.000 NA
ATOM      4  N   UNL     1      -0.460  12.054  22.906  0.00  0.00    +0.000 NA
ATOM      5  C   UNL     1      -0.927  12.289  21.697  0.00  0.00    +0.000 A 
ATOM      6  N   UNL     1      -0.963  11.114  20.980  0.00  0.00    +0.000 N 
ATOM      7  C   UNL     1      -1.424  10.984  19.648  0.00  0.00    +0.000 A 
ATOM      8  C   UNL     1      -0.733  10.143  18.762  0.00  0.00    +0.000 A 
ATOM      9  C   UNL     1      -1.127  10.044  17.427  0.00  0.00    +0.000 A 
ATOM     10  C   UNL     1      -2.214  10.775  16.963  0.00  0.00    +0.000 A 
ATOM     11  C   UNL     1      -2.891  11.631  17.827  0.00  0.00    +0.000 A 
ATOM     12  C   UNL     1      -2.508  11.747  19.176  0.00  0.00    +0.000 A 
ATOM     13  C   UNL     1      -3.283  12.728  20.008  0.00  0.00    +0.000 C 
ATOM     14  N   UNL     1      -2.749  13.587  20.795  0.00  0.00    +0.000 NA
ATOM     15  C   UNL     1      -1.334  13.602  21.117  0.00  0.00    +0.000 C 
ENDROOT
BRANCH  13  16
ATOM     16  C   UNL     1      -4.777  12.752  19.882  0.00  0.00    +0.000 A 
ATOM     17  C   UNL     1      -5.498  13.917  20.173  0.00  0.00    +0.000 A 
ATOM     18  C   UNL     1      -6.890  13.919  20.095  0.00  0.00    +0.000 A 
ATOM     19  C   UNL     1      -7.567  12.766  19.699  0.00  0.00    +0.000 A 
ATOM     20  C   UNL     1      -6.853  11.613  19.371  0.00  0.00    +0.000 A 
ATOM     21  C   UNL     1      -5.460  11.604  19.458  0.00  0.00    +0.000 A 
ENDBRANCH  13  16
BRANCH  15  22
ATOM     22  N   UNL     1      -0.554  13.943  19.948  0.00  0.00    +0.000 N 
ATOM     23  C   UNL     1       0.690  14.483  20.119  0.00  0.00    +0.000 C 
ATOM     24  O   UNL     1       1.152  14.659  21.240  0.00  0.00    +0.000 OA
ATOM     25  N   UNL     1       1.339  14.761  18.933  0.00  0.00    +0.000 N 
ATOM     26  H   UNL     1      -1.056  14.115  19.097  0.00  0.00    +0.000 HD
ATOM     27  H   UNL     1       0.779  14.794  18.093  0.00  0.00    +0.000 HD
BRANCH  25  28
ATOM     28  C   UNL     1       2.684  15.188  18.836  0.00  0.00    +0.000 A 
ATOM     29  C   UNL     1       3.100  16.444  19.299  0.00  0.00    +0.000 A 
ATOM     30  C   UNL     1       4.421  16.862  19.170  0.00  0.00    +0.000 A 
ATOM     31  C   UNL     1       5.356  16.015  18.590  0.00  0.00    +0.000 A 
ATOM     32 CL   UNL     1       6.986  16.534  18.436  0.00  0.00    +0.000 Cl
ATOM     33  C   UNL     1       4.973  14.751  18.144  0.00  0.00    +0.000 A 
ATOM     34  C   UNL     1       3.640  14.333  18.274  0.00  0.00    +0.000 A 
ENDBRANCH  25  28
ENDBRANCH  15  22
TORSDOF 3
ENDMDL
MODEL 4
REMARK VINA RESULT:      -7.2      2.164      3.506
REMARK  Name = 
REMARK  4 active torsions:
REMARK  status: ('A' for Active; 'I' for Inactive)
REMARK    1  A    between atoms: C_1  and  C_2
REMARK    2  A    between atoms: C_13  and  C_14
REMARK    3  A    between atoms: C_21  and  N_22
REMARK    4  A    between atoms: N_25  and  C_26
REMARK                            x       y       z     vdW  Elec       q    Type
REMARK                         _______ _______ _______ _____ _____    ______ ____
ROOT
ATOM      1  C   UNL     1      -3.380  12.624  24.162  0.00  0.00    +0.000 C 
ATOM      2  C   UNL     1      -2.811  13.484  23.098  0.00  0.00    +0.000 A 
ATOM      3  N   UNL     1      -3.129  14.750  22.923  0.00  0.00    +0.000 NA
ATOM      4  N   UNL     1      -2.501  15.201  21.795  0.00  0.00    +0.000 NA
ATOM      5  C   UNL     1      -1.798  14.206  21.293  0.00  0.00    +0.000 A 
ATOM      6  N   UNL     1      -1.984  13.077  22.060  0.00  0.00    +0.000 N 
ATOM      7  C   UNL     1      -1.398  11.813  21.808  0.00  0.00    +0.000 A 
ATOM      8  C   UNL     1      -0.922  11.051  22.886  0.00  0.00    +0.000 A 
ATOM      9  C   UNL     1      -0.283   9.831  22.663  0.00  0.00    +0.000 A 
ATOM     10  C   UNL     1      -0.116   9.355  21.369  0.00  0.00    +0.000 A 
ATOM     11  C   UNL     1      -0.562  10.115  20.290  0.00  0.00    +0.000 A 
ATOM     12  C   UNL     1      -1.206  11.349  20.494  0.00  0.00    +0.000 A 
ATOM     13  C   UNL     1      -1.610  12.103  19.259  0.00  0.00    +0.000 C 
ATOM     14  N   UNL     1      -1.396  13.352  19.073  0.00  0.00    +0.000 NA
ATOM     15  C   UNL     1      -0.893  14.237  20.108  0.00  0.00    +0.000 C 
ENDROOT
BRANCH  13  16
ATOM     16  C   UNL     1      -2.263  11.348  18.140  0.00  0.00    +0.000 A 
ATOM     17  C   UNL     1      -1.543  10.396  17.407  0.00  0.00    +0.000 A 
ATOM     18  C   UNL     1      -2.145   9.728  16.341  0.00  0.00    +0.000 A 
ATOM     19  C   UNL     1      -3.475   9.988  16.019  0.00  0.00    +0.000 A 
ATOM     20  C   UNL     1      -4.211  10.907  16.769  0.00  0.00    +0.000 A 
ATOM     21  C   UNL     1      -3.610  11.585  17.830  0.00  0.00    +0.000 A 
ENDBRANCH  13  16
BRANCH  15  22
ATOM     22  N   UNL     1       0.467  13.887  20.455  0.00  0.00    +0.000 N 
ATOM     23  C   UNL     1       1.493  14.427  19.732  0.00  0.00    +0.000 C 
ATOM     24  O   UNL     1       1.275  15.211  18.816  0.00  0.00    +0.000 OA
ATOM     25  N   UNL     1       2.742  14.022  20.160  0.00  0.00    +0.000 N 
ATOM     26  H   UNL     1       0.606  13.021  20.944  0.00  0.00    +0.000 HD
ATOM     27  H   UNL     1       2.789  13.209  20.756  0.00  0.00    +0.000 HD
BRANCH  25  28
ATOM     28  C   UNL     1       3.963  14.546  19.674  0.00  0.00    +0.000 A 
ATOM     29  C   UNL     1       4.348  14.411  18.332  0.00  0.00    +0.000 A 
ATOM     30  C   UNL     1       5.566  14.905  17.875  0.00  0.00    +0.000 A 
ATOM     31  C   UNL     1       6.414  15.562  18.756  0.00  0.00    +0.000 A 
ATOM     32 CL   UNL     1       7.915  16.173  18.187  0.00  0.00    +0.000 Cl
ATOM     33  C   UNL     1       6.045  15.731  20.090  0.00  0.00    +0.000 A 
ATOM     34  C   UNL     1       4.816  15.231  20.548  0.00  0.00    +0.000 A 
ENDBRANCH  25  28
ENDBRANCH  15  22
TORSDOF 3
ENDMDL
MODEL 5
REMARK VINA RESULT:      -7.1      2.136      3.618
REMARK  Name = 
REMARK  4 active torsions:
REMARK  status: ('A' for Active; 'I' for Inactive)
REMARK    1  A    between atoms: C_1  and  C_2
REMARK    2  A    between atoms: C_13  and  C_14
REMARK    3  A    between atoms: C_21  and  N_22
REMARK    4  A    between atoms: N_25  and  C_26
REMARK                            x       y       z     vdW  Elec       q    Type
REMARK                         _______ _______ _______ _____ _____    ______ ____
ROOT
ATOM      1  C   UNL     1      -3.293  12.841  24.135  0.00  0.00    +0.000 C 
ATOM      2  C   UNL     1      -2.719  13.667  23.047  0.00  0.00    +0.000 A 
ATOM      3  N   UNL     1      -3.010  14.937  22.853  0.00  0.00    +0.000 NA
ATOM      4  N   UNL     1      -2.388  15.351  21.708  0.00  0.00    +0.000 NA
ATOM      5  C   UNL     1      -1.717  14.330  21.214  0.00  0.00    +0.000 A 
ATOM      6  N   UNL     1      -1.919  13.221  22.005  0.00  0.00    +0.000 N 
ATOM      7  C   UNL     1      -1.366  11.939  21.769  0.00  0.00    +0.000 A 
ATOM      8  C   UNL     1      -0.893  11.186  22.854  0.00  0.00    +0.000 A 
ATOM      9  C   UNL     1      -0.286   9.946  22.645  0.00  0.00    +0.000 A 
ATOM     10  C   UNL     1      -0.150   9.443  21.357  0.00  0.00    +0.000 A 
ATOM     11  C   UNL     1      -0.593  10.193  20.271  0.00  0.00    +0.000 A 
ATOM     12  C   UNL     1      -1.205  11.446  20.461  0.00  0.00    +0.000 A 
ATOM     13  C   UNL     1      -1.610  12.186  19.218  0.00  0.00    +0.000 C 
ATOM     14  N   UNL     1      -1.369  13.426  19.005  0.00  0.00    +0.000 NA
ATOM     15  C   UNL     1      -0.829  14.317  20.016  0.00  0.00    +0.000 C 
ENDROOT
BRANCH  13  16
ATOM     16  C   UNL     1      -2.297  11.426  18.122  0.00  0.00    +0.000 A 
ATOM     17  C   UNL     1      -3.658  11.631  17.859  0.00  0.00    +0.000 A 
ATOM     18  C   UNL     1      -4.299  10.891  16.866  0.00  0.00    +0.000 A 
ATOM     19  C   UNL     1      -3.580   9.963  16.115  0.00  0.00    +0.000 A 
ATOM     20  C   UNL     1      -2.216   9.780  16.347  0.00  0.00    +0.000 A 
ATOM     21  C   UNL     1      -1.572  10.511  17.346  0.00  0.00    +0.000 A 
ENDBRANCH  13  16
BRANCH  15  22
ATOM     22  N   UNL     1       0.527  13.941  20.350  0.00  0.00    +0.000 N 
ATOM     23  C   UNL     1       1.562  14.557  19.703  0.00  0.00    +0.000 C 
ATOM     24  O   UNL     1       1.353  15.428  18.867  0.00  0.00    +0.000 OA
ATOM     25  N   UNL     1       2.806  14.118  20.110  0.00  0.00    +0.000 N 
ATOM     26  H   UNL     1       0.664  13.031  20.751  0.00  0.00    +0.000 HD
ATOM     27  H   UNL     1       2.849  13.249  20.622  0.00  0.00    +0.000 HD
BRANCH  25  28
ATOM     28  C   UNL     1       4.032  14.694  19.701  0.00  0.00    +0.000 A 
ATOM     29  C   UNL     1       4.781  15.526  20.546  0.00  0.00    +0.000 A 
ATOM     30  C   UNL     1       5.970  16.109  20.119  0.00  0.00    +0.000 A 
ATOM     31  C   UNL     1       6.439  15.852  18.838  0.00  0.00    +0.000 A 
ATOM     32 CL   UNL     1       7.909  16.571  18.316  0.00  0.00    +0.000 Cl
ATOM     33  C   UNL     1       5.726  15.009  17.987  0.00  0.00    +0.000 A 
ATOM     34  C   UNL     1       4.527  14.423  18.420  0.00  0.00    +0.000 A 
ENDBRANCH  25  28
ENDBRANCH  15  22
TORSDOF 3
ENDMDL
MODEL 6
REMARK VINA RESULT:      -7.0      3.586      5.926
REMARK  Name = 
REMARK  4 active torsions:
REMARK  status: ('A' for Active; 'I' for Inactive)
REMARK    1  A    between atoms: C_1  and  C_2
REMARK    2  A    between atoms: C_13  and  C_14
REMARK    3  A    between atoms: C_21  and  N_22
REMARK    4  A    between atoms: N_25  and  C_26
REMARK                            x       y       z     vdW  Elec       q    Type
REMARK                         _______ _______ _______ _____ _____    ______ ____
ROOT
ATOM      1  C   UNL     1      -0.540  16.912  21.143  0.00  0.00    +0.000 C 
ATOM      2  C   UNL     1      -0.379  15.860  20.111  0.00  0.00    +0.000 A 
ATOM      3  N   UNL     1       0.114  16.076  18.908  0.00  0.00    +0.000 NA
ATOM      4  N   UNL     1       0.019  14.916  18.190  0.00  0.00    +0.000 NA
ATOM      5  C   UNL     1      -0.526  13.999  18.964  0.00  0.00    +0.000 A 
ATOM      6  N   UNL     1      -0.833  14.551  20.187  0.00  0.00    +0.000 N 
ATOM      7  C   UNL     1      -1.446  13.864  21.262  0.00  0.00    +0.000 A 
ATOM      8  C   UNL     1      -1.003  14.104  22.571  0.00  0.00    +0.000 A 
ATOM      9  C   UNL     1      -1.545  13.395  23.644  0.00  0.00    +0.000 A 
ATOM     10  C   UNL     1      -2.536  12.446  23.425  0.00  0.00    +0.000 A 
ATOM     11  C   UNL     1      -2.966  12.182  22.128  0.00  0.00    +0.000 A 
ATOM     12  C   UNL     1      -2.430  12.884  21.033  0.00  0.00    +0.000 A 
ATOM     13  C   UNL     1      -2.938  12.492  19.675  0.00  0.00    +0.000 C 
ATOM     14  N   UNL     1      -2.188  12.279  18.657  0.00  0.00    +0.000 NA
ATOM     15  C   UNL     1      -0.765  12.562  18.643  0.00  0.00    +0.000 C 
ENDROOT
BRANCH  13  16
ATOM     16  C   UNL     1      -4.412  12.282  19.493  0.00  0.00    +0.000 A 
ATOM     17  C   UNL     1      -5.331  12.919  20.337  0.00  0.00    +0.000 A 
ATOM     18  C   UNL     1      -6.698  12.686  20.188  0.00  0.00    +0.000 A 
ATOM     19  C   UNL     1      -7.154  11.840  19.180  0.00  0.00    +0.000 A 
ATOM     20  C   UNL     1      -6.247  11.232  18.311  0.00  0.00    +0.000 A 
ATOM     21  C   UNL     1      -4.878  11.454  18.463  0.00  0.00    +0.000 A 
ENDBRANCH  13  16
BRANCH  15  22
ATOM     22  N   UNL     1      -0.065  11.680  19.551  0.00  0.00    +0.000 N 
ATOM     23  C   UNL     1       0.261  10.421  19.129  0.00  0.00    +0.000 C 
ATOM     24  O   UNL     1      -0.014  10.046  17.996  0.00  0.00    +0.000 OA
ATOM     25  N   UNL     1       0.931   9.678  20.080  0.00  0.00    +0.000 N 
ATOM     26  H   UNL     1      -0.159  11.865  20.532  0.00  0.00    +0.000 HD
ATOM     27  H   UNL     1       0.892  10.000  21.035  0.00  0.00    +0.000 HD
BRANCH  25  28
ATOM     28  C   UNL     1       1.501   8.404  19.845  0.00  0.00    +0.000 A 
ATOM     29  C   UNL     1       2.241   8.123  18.688  0.00  0.00    +0.000 A 
ATOM     30  C   UNL     1       2.771   6.857  18.456  0.00  0.00    +0.000 A 
ATOM     31  C   UNL     1       2.581   5.852  19.395  0.00  0.00    +0.000 A 
ATOM     32 CL   UNL     1       3.239   4.292  19.107  0.00  0.00    +0.000 Cl
ATOM     33  C   UNL     1       1.870   6.112  20.565  0.00  0.00    +0.000 A 
ATOM     34  C   UNL     1       1.336   7.389  20.795  0.00  0.00    +0.000 A 
ENDBRANCH  25  28
ENDBRANCH  15  22
TORSDOF 3
ENDMDL
MODEL 7
REMARK VINA RESULT:      -7.0      3.566      5.894
REMARK  Name = 
REMARK  4 active torsions:
REMARK  status: ('A' for Active; 'I' for Inactive)
REMARK    1  A    between atoms: C_1  and  C_2
REMARK    2  A    between atoms: C_13  and  C_14
REMARK    3  A    between atoms: C_21  and  N_22
REMARK    4  A    between atoms: N_25  and  C_26
REMARK                            x       y       z     vdW  Elec       q    Type
REMARK                         _______ _______ _______ _____ _____    ______ ____
ROOT
ATOM      1  C   UNL     1      -0.510  16.865  21.147  0.00  0.00    +0.000 C 
ATOM      2  C   UNL     1      -0.330  15.815  20.117  0.00  0.00    +0.000 A 
ATOM      3  N   UNL     1       0.196  16.030  18.929  0.00  0.00    +0.000 NA
ATOM      4  N   UNL     1       0.112  14.873  18.205  0.00  0.00    +0.000 NA
ATOM      5  C   UNL     1      -0.459  13.957  18.962  0.00  0.00    +0.000 A 
ATOM      6  N   UNL     1      -0.795  14.509  20.178  0.00  0.00    +0.000 N 
ATOM      7  C   UNL     1      -1.440  13.824  21.235  0.00  0.00    +0.000 A 
ATOM      8  C   UNL     1      -1.029  14.056  22.556  0.00  0.00    +0.000 A 
ATOM      9  C   UNL     1      -1.605  13.349  23.612  0.00  0.00    +0.000 A 
ATOM     10  C   UNL     1      -2.596  12.408  23.365  0.00  0.00    +0.000 A 
ATOM     11  C   UNL     1      -2.994  12.150  22.056  0.00  0.00    +0.000 A 
ATOM     12  C   UNL     1      -2.424  12.851  20.977  0.00  0.00    +0.000 A 
ATOM     13  C   UNL     1      -2.899  12.466  19.605  0.00  0.00    +0.000 C 
ATOM     14  N   UNL     1      -2.125  12.250  18.607  0.00  0.00    +0.000 NA
ATOM     15  C   UNL     1      -0.700  12.523  18.631  0.00  0.00    +0.000 C 
ENDROOT
BRANCH  13  16
ATOM     16  C   UNL     1      -4.370  12.267  19.385  0.00  0.00    +0.000 A 
ATOM     17  C   UNL     1      -4.832  11.254  18.535  0.00  0.00    +0.000 A 
ATOM     18  C   UNL     1      -6.199  11.103  18.303  0.00  0.00    +0.000 A 
ATOM     19  C   UNL     1      -7.110  11.943  18.939  0.00  0.00    +0.000 A 
ATOM     20  C   UNL     1      -6.660  12.930  19.816  0.00  0.00    +0.000 A 
ATOM     21  C   UNL     1      -5.292  13.092  20.044  0.00  0.00    +0.000 A 
ENDBRANCH  13  16
BRANCH  15  22
ATOM     22  N   UNL     1      -0.030  11.634  19.554  0.00  0.00    +0.000 N 
ATOM     23  C   UNL     1       0.293  10.373  19.139  0.00  0.00    +0.000 C 
ATOM     24  O   UNL     1       0.042  10.000  17.999  0.00  0.00    +0.000 OA
ATOM     25  N   UNL     1       0.933   9.622  20.105  0.00  0.00    +0.000 N 
ATOM     26  H   UNL     1      -0.145  11.820  20.533  0.00  0.00    +0.000 HD
ATOM     27  H   UNL     1       0.875   9.944  21.060  0.00  0.00    +0.000 HD
BRANCH  25  28
ATOM     28  C   UNL     1       1.496   8.343  19.882  0.00  0.00    +0.000 A 
ATOM     29  C   UNL     1       1.331   7.289  20.793  0.00  0.00    +0.000 A 
ATOM     30  C   UNL     1       1.916   6.045  20.575  0.00  0.00    +0.000 A 
ATOM     31  C   UNL     1       2.663   5.831  19.425  0.00  0.00    +0.000 A 
ATOM     32 CL   UNL     1       3.380   4.293  19.157  0.00  0.00    +0.000 Cl
ATOM     33  C   UNL     1       2.821   6.854  18.491  0.00  0.00    +0.000 A 
ATOM     34  C   UNL     1       2.231   8.107  18.715  0.00  0.00    +0.000 A 
ENDBRANCH  25  28
ENDBRANCH  15  22
TORSDOF 3
ENDMDL
MODEL 8
REMARK VINA RESULT:      -7.0      3.630      7.532
REMARK  Name = 
REMARK  4 active torsions:
REMARK  status: ('A' for Active; 'I' for Inactive)
REMARK    1  A    between atoms: C_1  and  C_2
REMARK    2  A    between atoms: C_13  and  C_14
REMARK    3  A    between atoms: C_21  and  N_22
REMARK    4  A    between atoms: N_25  and  C_26
REMARK                            x       y       z     vdW  Elec       q    Type
REMARK                         _______ _______ _______ _____ _____    ______ ____
ROOT
ATOM      1  C   UNL     1       1.083  14.782  18.521  0.00  0.00    +0.000 C 
ATOM      2  C   UNL     1       0.848  14.148  19.839  0.00  0.00    +0.000 A 
ATOM      3  N   UNL     1       1.333  14.605  20.975  0.00  0.00    +0.000 NA
ATOM      4  N   UNL     1       1.009  13.723  21.968  0.00  0.00    +0.000 NA
ATOM      5  C   UNL     1       0.321  12.736  21.430  0.00  0.00    +0.000 A 
ATOM      6  N   UNL     1       0.217  12.934  20.072  0.00  0.00    +0.000 N 
ATOM      7  C   UNL     1      -0.440  12.064  19.168  0.00  0.00    +0.000 A 
ATOM      8  C   UNL     1      -1.212  12.608  18.131  0.00  0.00    +0.000 A 
ATOM      9  C   UNL     1      -1.921  11.776  17.264  0.00  0.00    +0.000 A 
ATOM     10  C   UNL     1      -1.865  10.397  17.417  0.00  0.00    +0.000 A 
ATOM     11  C   UNL     1      -1.123   9.847  18.459  0.00  0.00    +0.000 A 
ATOM     12  C   UNL     1      -0.403  10.668  19.345  0.00  0.00    +0.000 A 
ATOM     13  C   UNL     1       0.331   9.972  20.454  0.00  0.00    +0.000 C 
ATOM     14  N   UNL     1       0.300  10.337  21.682  0.00  0.00    +0.000 NA
ATOM     15  C   UNL     1      -0.307  11.577  22.129  0.00  0.00    +0.000 C 
ENDROOT
BRANCH  13  16
ATOM     16  C   UNL     1       1.117   8.735  20.129  0.00  0.00    +0.000 A 
ATOM     17  C   UNL     1       1.861   8.656  18.946  0.00  0.00    +0.000 A 
ATOM     18  C   UNL     1       2.555   7.488  18.631  0.00  0.00    +0.000 A 
ATOM     19  C   UNL     1       2.531   6.405  19.508  0.00  0.00    +0.000 A 
ATOM     20  C   UNL     1       1.822   6.491  20.707  0.00  0.00    +0.000 A 
ATOM     21  C   UNL     1       1.118   7.655  21.022  0.00  0.00    +0.000 A 
ENDBRANCH  13  16
BRANCH  15  22
ATOM     22  N   UNL     1      -1.739  11.538  21.932  0.00  0.00    +0.000 N 
ATOM     23  C   UNL     1      -2.502  12.562  22.421  0.00  0.00    +0.000 C 
ATOM     24  O   UNL     1      -1.986  13.512  22.999  0.00  0.00    +0.000 OA
ATOM     25  N   UNL     1      -3.851  12.415  22.167  0.00  0.00    +0.000 N 
ATOM     26  H   UNL     1      -2.157  10.638  21.782  0.00  0.00    +0.000 HD
ATOM     27  H   UNL     1      -4.177  11.499  21.898  0.00  0.00    +0.000 HD
BRANCH  25  28
ATOM     28  C   UNL     1      -4.829  13.400  22.440  0.00  0.00    +0.000 A 
ATOM     29  C   UNL     1      -5.096  14.450  21.549  0.00  0.00    +0.000 A 
ATOM     30  C   UNL     1      -6.040  15.428  21.845  0.00  0.00    +0.000 A 
ATOM     31  C   UNL     1      -6.749  15.360  23.036  0.00  0.00    +0.000 A 
ATOM     32 CL   UNL     1      -7.916  16.568  23.396  0.00  0.00    +0.000 Cl
ATOM     33  C   UNL     1      -6.520  14.313  23.928  0.00  0.00    +0.000 A 
ATOM     34  C   UNL     1      -5.567  13.328  23.627  0.00  0.00    +0.000 A 
ENDBRANCH  25  28
ENDBRANCH  15  22
TORSDOF 3
ENDMDL
MODEL 9
REMARK VINA RESULT:      -6.9      3.651      6.980
REMARK  Name = 
REMARK  4 active torsions:
REMARK  status: ('A' for Active; 'I' for Inactive)
REMARK    1  A    between atoms: C_1  and  C_2
REMARK    2  A    between atoms: C_13  and  C_14
REMARK    3  A    between atoms: C_21  and  N_22
REMARK    4  A    between atoms: N_25  and  C_26
REMARK                            x       y       z     vdW  Elec       q    Type
REMARK                         _______ _______ _______ _____ _____    ______ ____
ROOT
ATOM      1  C   UNL     1      -4.330  12.767  21.888  0.00  0.00    +0.000 C 
ATOM      2  C   UNL     1      -2.990  12.254  22.259  0.00  0.00    +0.000 A 
ATOM      3  N   UNL     1      -2.571  12.116  23.501  0.00  0.00    +0.000 NA
ATOM      4  N   UNL     1      -1.262  11.722  23.472  0.00  0.00    +0.000 NA
ATOM      5  C   UNL     1      -0.894  11.617  22.211  0.00  0.00    +0.000 A 
ATOM      6  N   UNL     1      -1.942  11.977  21.394  0.00  0.00    +0.000 N 
ATOM      7  C   UNL     1      -1.902  12.002  19.979  0.00  0.00    +0.000 A 
ATOM      8  C   UNL     1      -3.016  11.552  19.254  0.00  0.00    +0.000 A 
ATOM      9  C   UNL     1      -2.981  11.506  17.859  0.00  0.00    +0.000 A 
ATOM     10  C   UNL     1      -1.843  11.911  17.174  0.00  0.00    +0.000 A 
ATOM     11  C   UNL     1      -0.723  12.334  17.884  0.00  0.00    +0.000 A 
ATOM     12  C   UNL     1      -0.736  12.386  19.290  0.00  0.00    +0.000 A 
ATOM     13  C   UNL     1       0.538  12.821  19.954  0.00  0.00    +0.000 C 
ATOM     14  N   UNL     1       1.073  12.222  20.953  0.00  0.00    +0.000 NA
ATOM     15  C   UNL     1       0.420  11.150  21.682  0.00  0.00    +0.000 C 
ENDROOT
BRANCH  13  16
ATOM     16  C   UNL     1       1.273  14.002  19.393  0.00  0.00    +0.000 A 
ATOM     17  C   UNL     1       0.713  15.284  19.455  0.00  0.00    +0.000 A 
ATOM     18  C   UNL     1       1.384  16.370  18.893  0.00  0.00    +0.000 A 
ATOM     19  C   UNL     1       2.628  16.186  18.292  0.00  0.00    +0.000 A 
ATOM     20  C   UNL     1       3.209  14.918  18.260  0.00  0.00    +0.000 A 
ATOM     21  C   UNL     1       2.537  13.826  18.812  0.00  0.00    +0.000 A 
ENDBRANCH  13  16
BRANCH  15  22
ATOM     22  N   UNL     1       0.282   9.980  20.843  0.00  0.00    +0.000 N 
ATOM     23  C   UNL     1       1.238   9.005  20.908  0.00  0.00    +0.000 C 
ATOM     24  O   UNL     1       2.188   9.103  21.675  0.00  0.00    +0.000 OA
ATOM     25  N   UNL     1       0.994   7.938  20.066  0.00  0.00    +0.000 N 
ATOM     26  H   UNL     1      -0.275  10.074  20.014  0.00  0.00    +0.000 HD
ATOM     27  H   UNL     1       0.322   8.073  19.325  0.00  0.00    +0.000 HD
BRANCH  25  28
ATOM     28  C   UNL     1       1.751   6.742  20.049  0.00  0.00    +0.000 A 
ATOM     29  C   UNL     1       1.429   5.647  20.863  0.00  0.00    +0.000 A 
ATOM     30  C   UNL     1       2.201   4.489  20.857  0.00  0.00    +0.000 A 
ATOM     31  C   UNL     1       3.302   4.402  20.016  0.00  0.00    +0.000 A 
ATOM     32 CL   UNL     1       4.250   2.970  20.009  0.00  0.00    +0.000 Cl
ATOM     33  C   UNL     1       3.629   5.468  19.179  0.00  0.00    +0.000 A 
ATOM     34  C   UNL     1       2.850   6.635  19.188  0.00  0.00    +0.000 A 
ENDBRANCH  25  28
ENDBRANCH  15  22
TORSDOF 3
ENDMDL
