MODEL 1
REMARK VINA RESULT:      -8.4      0.000      0.000
REMARK  Name = 
REMARK  15 active torsions:
REMARK  status: ('A' for Active; 'I' for Inactive)
REMARK    1  A    between atoms: C_1  and  C_2
REMARK    2  A    between atoms: C_2  and  C_3
REMARK    3  A    between atoms: C_3  and  C_4
REMARK    4  A    between atoms: C_4  and  C_5
REMARK    5  A    between atoms: C_5  and  C_6
REMARK    6  A    between atoms: C_6  and  C_7
REMARK    7  A    between atoms: C_7  and  C_8
REMARK    8  A    between atoms: C_8  and  N_9
REMARK    9  A    between atoms: C_12  and  C_13
REMARK   10  A    between atoms: C_13  and  C_14
REMARK   11  A    between atoms: N_16  and  C_17
REMARK   12  A    between atoms: C_17  and  C_18
REMARK   13  A    between atoms: C_24  and  C_25
REMARK   14  A    between atoms: C_25  and  O_27
REMARK   15  A    between atoms: O_27  and  C_28
REMARK                            x       y       z     vdW  Elec       q    Type
REMARK                         _______ _______ _______ _____ _____    ______ ____
ROOT
ATOM      1  N   UNL     1       4.628   5.354  16.849  0.00  0.00    +0.000 N 
ATOM      2  C   UNL     1       4.718   6.586  17.522  0.00  0.00    +0.000 C 
ATOM      3  O   UNL     1       5.695   7.302  17.559  0.00  0.00    +0.000 OA
ATOM      4  C   UNL     1       3.385   6.875  18.146  0.00  0.00    +0.000 C 
ATOM      5  C   UNL     1       3.491   6.071  19.429  0.00  0.00    +0.000 C 
ATOM      6  C   UNL     1       3.145   4.585  19.036  0.00  0.00    +0.000 C 
ATOM      7  C   UNL     1       1.567   4.584  18.891  0.00  0.00    +0.000 C 
ATOM      8  C   UNL     1       0.785   3.336  19.193  0.00  0.00    +0.000 C 
ATOM      9  C   UNL     1       1.521   2.063  18.827  0.00  0.00    +0.000 C 
ATOM     10  C   UNL     1       2.325   2.045  17.493  0.00  0.00    +0.000 C 
ATOM     11  C   UNL     1       3.407   3.056  16.996  0.00  0.00    +0.000 C 
ATOM     12  C   UNL     1       3.834   4.221  17.564  0.00  0.00    +0.000 C 
ENDROOT
BRANCH   6  13
ATOM     13  C   UNL     1       3.539   3.778  20.284  0.00  0.00    +0.000 C 
ATOM     14  O   UNL     1       2.853   3.791  21.304  0.00  0.00    +0.000 OA
BRANCH  13  15
ATOM     15  O   UNL     1       4.703   3.095  20.164  0.00  0.00    +0.000 OA
ATOM     16  C   UNL     1       4.614   1.692  20.454  0.00  0.00    +0.000 C 
ENDBRANCH  13  15
ENDBRANCH   6  13
BRANCH   1  17
ATOM     17  C   UNL     1       4.840   5.696  15.390  0.00  0.00    +0.000 C 
BRANCH  17  18
ATOM     18  C   UNL     1       6.077   4.967  14.447  0.00  0.00    +0.000 C 
BRANCH  18  19
ATOM     19  C   UNL     1       6.196   3.544  13.728  0.00  0.00    +0.000 C 
BRANCH  19  20
ATOM     20  C   UNL     1       5.952   3.307  12.215  0.00  0.00    +0.000 C 
BRANCH  20  21
ATOM     21  C   UNL     1       4.525   3.063  11.689  0.00  0.00    +0.000 C 
BRANCH  21  22
ATOM     22  C   UNL     1       3.783   4.161  10.892  0.00  0.00    +0.000 C 
BRANCH  22  24
ATOM     23  C   UNL     1       2.301   4.891   8.960  0.00  0.00    +0.000 C 
ATOM     24  C   UNL     1       2.946   3.704   9.687  0.00  0.00    +0.000 C 
ENDBRANCH  22  24
ENDBRANCH  21  22
ENDBRANCH  20  21
ENDBRANCH  19  20
ENDBRANCH  18  19
ENDBRANCH  17  18
ENDBRANCH   1  17
BRANCH   4  25
ATOM     25  C   UNL     1       2.191   7.537  17.405  0.00  0.00    +0.000 C 
BRANCH  25  26
ATOM     26  C   UNL     1       1.946   9.052  17.882  0.00  0.00    +0.000 C 
ATOM     27  O   UNL     1       2.621  10.019  17.570  0.00  0.00    +0.000 OA
ATOM     28  N   UNL     1       0.911   9.258  18.745  0.00  0.00    +0.000 N 
ATOM     29  H   UNL     1       0.280   8.505  18.997  0.00  0.00    +0.000 HD
BRANCH  28  30
ATOM     30  C   UNL     1       0.713  10.581  19.314  0.00  0.00    +0.000 C 
BRANCH  30  31
ATOM     31  C   UNL     1       0.414  10.358  20.744  0.00  0.00    +0.000 A 
ATOM     32  C   UNL     1      -0.314  11.153  21.597  0.00  0.00    +0.000 A 
ATOM     33  C   UNL     1      -0.563  10.500  22.841  0.00  0.00    +0.000 A 
ATOM     34  C   UNL     1       0.017   9.249  22.885  0.00  0.00    +0.000 A 
ATOM     35  S   UNL     1       0.906   8.895  21.480  0.00  0.00    +0.000 S 
ENDBRANCH  30  31
ENDBRANCH  28  30
ENDBRANCH  25  26
ENDBRANCH   4  25
TORSDOF 13
ENDMDL
MODEL 2
REMARK VINA RESULT:      -8.3      1.766      2.355
REMARK  Name = 
REMARK  15 active torsions:
REMARK  status: ('A' for Active; 'I' for Inactive)
REMARK    1  A    between atoms: C_1  and  C_2
REMARK    2  A    between atoms: C_2  and  C_3
REMARK    3  A    between atoms: C_3  and  C_4
REMARK    4  A    between atoms: C_4  and  C_5
REMARK    5  A    between atoms: C_5  and  C_6
REMARK    6  A    between atoms: C_6  and  C_7
REMARK    7  A    between atoms: C_7  and  C_8
REMARK    8  A    between atoms: C_8  and  N_9
REMARK    9  A    between atoms: C_12  and  C_13
REMARK   10  A    between atoms: C_13  and  C_14
REMARK   11  A    between atoms: N_16  and  C_17
REMARK   12  A    between atoms: C_17  and  C_18
REMARK   13  A    between atoms: C_24  and  C_25
REMARK   14  A    between atoms: C_25  and  O_27
REMARK   15  A    between atoms: O_27  and  C_28
REMARK                            x       y       z     vdW  Elec       q    Type
REMARK                         _______ _______ _______ _____ _____    ______ ____
ROOT
ATOM      1  N   UNL     1       4.948   5.092  16.825  0.00  0.00    +0.000 N 
ATOM      2  C   UNL     1       5.160   6.280  17.547  0.00  0.00    +0.000 C 
ATOM      3  O   UNL     1       6.215   6.869  17.647  0.00  0.00    +0.000 OA
ATOM      4  C   UNL     1       3.849   6.712  18.133  0.00  0.00    +0.000 C 
ATOM      5  C   UNL     1       3.803   5.859  19.387  0.00  0.00    +0.000 C 
ATOM      6  C   UNL     1       3.294   4.441  18.925  0.00  0.00    +0.000 C 
ATOM      7  C   UNL     1       1.735   4.641  18.723  0.00  0.00    +0.000 C 
ATOM      8  C   UNL     1       0.794   3.490  18.948  0.00  0.00    +0.000 C 
ATOM      9  C   UNL     1       1.382   2.148  18.561  0.00  0.00    +0.000 C 
ATOM     10  C   UNL     1       2.232   2.075  17.257  0.00  0.00    +0.000 C 
ATOM     11  C   UNL     1       3.449   2.960  16.839  0.00  0.00    +0.000 C 
ATOM     12  C   UNL     1       3.992   4.044  17.467  0.00  0.00    +0.000 C 
ENDROOT
BRANCH   6  13
ATOM     13  C   UNL     1       3.534   3.550  20.155  0.00  0.00    +0.000 C 
ATOM     14  O   UNL     1       4.288   2.581  20.112  0.00  0.00    +0.000 OA
BRANCH  13  15
ATOM     15  O   UNL     1       2.825   3.909  21.253  0.00  0.00    +0.000 OA
ATOM     16  C   UNL     1       2.286   2.815  22.010  0.00  0.00    +0.000 C 
ENDBRANCH  13  15
ENDBRANCH   6  13
BRANCH   1  17
ATOM     17  C   UNL     1       5.259   5.454  15.389  0.00  0.00    +0.000 C 
BRANCH  17  18
ATOM     18  C   UNL     1       6.413   4.590  14.454  0.00  0.00    +0.000 C 
BRANCH  18  19
ATOM     19  C   UNL     1       6.479   4.196  12.906  0.00  0.00    +0.000 C 
BRANCH  19  20
ATOM     20  C   UNL     1       5.497   3.218  12.211  0.00  0.00    +0.000 C 
BRANCH  20  21
ATOM     21  C   UNL     1       4.092   3.696  11.798  0.00  0.00    +0.000 C 
BRANCH  21  22
ATOM     22  C   UNL     1       3.387   3.087  10.563  0.00  0.00    +0.000 C 
BRANCH  22  24
ATOM     23  C   UNL     1       2.150   4.887   9.262  0.00  0.00    +0.000 C 
ATOM     24  C   UNL     1       3.356   3.940   9.285  0.00  0.00    +0.000 C 
ENDBRANCH  22  24
ENDBRANCH  21  22
ENDBRANCH  20  21
ENDBRANCH  19  20
ENDBRANCH  18  19
ENDBRANCH  17  18
ENDBRANCH   1  17
BRANCH   4  25
ATOM     25  C   UNL     1       2.777   7.542  17.375  0.00  0.00    +0.000 C 
BRANCH  25  26
ATOM     26  C   UNL     1       1.954   8.512  18.356  0.00  0.00    +0.000 C 
ATOM     27  O   UNL     1       1.968   8.476  19.575  0.00  0.00    +0.000 OA
ATOM     28  N   UNL     1       1.137   9.427  17.762  0.00  0.00    +0.000 N 
ATOM     29  H   UNL     1       1.124   9.543  16.755  0.00  0.00    +0.000 HD
BRANCH  28  30
ATOM     30  C   UNL     1       0.269  10.249  18.590  0.00  0.00    +0.000 C 
BRANCH  30  31
ATOM     31  C   UNL     1      -1.008  10.348  17.853  0.00  0.00    +0.000 A 
ATOM     32  C   UNL     1      -1.446   9.583  16.798  0.00  0.00    +0.000 A 
ATOM     33  C   UNL     1      -2.817   9.838  16.497  0.00  0.00    +0.000 A 
ATOM     34  C   UNL     1      -3.347  10.810  17.319  0.00  0.00    +0.000 A 
ATOM     35  S   UNL     1      -2.195  11.454  18.390  0.00  0.00    +0.000 S 
ENDBRANCH  30  31
ENDBRANCH  28  30
ENDBRANCH  25  26
ENDBRANCH   4  25
TORSDOF 13
ENDMDL
MODEL 3
REMARK VINA RESULT:      -7.8      1.312      1.591
REMARK  Name = 
REMARK  15 active torsions:
REMARK  status: ('A' for Active; 'I' for Inactive)
REMARK    1  A    between atoms: C_1  and  C_2
REMARK    2  A    between atoms: C_2  and  C_3
REMARK    3  A    between atoms: C_3  and  C_4
REMARK    4  A    between atoms: C_4  and  C_5
REMARK    5  A    between atoms: C_5  and  C_6
REMARK    6  A    between atoms: C_6  and  C_7
REMARK    7  A    between atoms: C_7  and  C_8
REMARK    8  A    between atoms: C_8  and  N_9
REMARK    9  A    between atoms: C_12  and  C_13
REMARK   10  A    between atoms: C_13  and  C_14
REMARK   11  A    between atoms: N_16  and  C_17
REMARK   12  A    between atoms: C_17  and  C_18
REMARK   13  A    between atoms: C_24  and  C_25
REMARK   14  A    between atoms: C_25  and  O_27
REMARK   15  A    between atoms: O_27  and  C_28
REMARK                            x       y       z     vdW  Elec       q    Type
REMARK                         _______ _______ _______ _____ _____    ______ ____
ROOT
ATOM      1  N   UNL     1       4.715   5.418  16.986  0.00  0.00    +0.000 N 
ATOM      2  C   UNL     1       4.697   6.626  17.707  0.00  0.00    +0.000 C 
ATOM      3  O   UNL     1       5.628   7.392  17.828  0.00  0.00    +0.000 OA
ATOM      4  C   UNL     1       3.317   6.818  18.261  0.00  0.00    +0.000 C 
ATOM      5  C   UNL     1       3.393   5.971  19.518  0.00  0.00    +0.000 C 
ATOM      6  C   UNL     1       3.154   4.485  19.051  0.00  0.00    +0.000 C 
ATOM      7  C   UNL     1       1.590   4.405  18.812  0.00  0.00    +0.000 C 
ATOM      8  C   UNL     1       0.863   3.105  19.021  0.00  0.00    +0.000 C 
ATOM      9  C   UNL     1       1.688   1.889  18.654  0.00  0.00    +0.000 C 
ATOM     10  C   UNL     1       2.568   1.968  17.370  0.00  0.00    +0.000 C 
ATOM     11  C   UNL     1       3.619   3.054  16.976  0.00  0.00    +0.000 C 
ATOM     12  C   UNL     1       3.946   4.217  17.611  0.00  0.00    +0.000 C 
ENDROOT
BRANCH   6  13
ATOM     13  C   UNL     1       3.520   3.652  20.290  0.00  0.00    +0.000 C 
ATOM     14  O   UNL     1       2.835   3.677  21.309  0.00  0.00    +0.000 OA
BRANCH  13  15
ATOM     15  O   UNL     1       4.661   2.931  20.162  0.00  0.00    +0.000 OA
ATOM     16  C   UNL     1       4.686   1.701  20.902  0.00  0.00    +0.000 C 
ENDBRANCH  13  15
ENDBRANCH   6  13
BRANCH   1  17
ATOM     17  C   UNL     1       4.991   5.829  15.555  0.00  0.00    +0.000 C 
BRANCH  17  18
ATOM     18  C   UNL     1       5.932   4.865  14.489  0.00  0.00    +0.000 C 
BRANCH  18  19
ATOM     19  C   UNL     1       5.563   3.659  13.506  0.00  0.00    +0.000 C 
BRANCH  19  20
ATOM     20  C   UNL     1       5.158   3.836  12.020  0.00  0.00    +0.000 C 
BRANCH  20  21
ATOM     21  C   UNL     1       4.251   2.796  11.335  0.00  0.00    +0.000 C 
BRANCH  21  22
ATOM     22  C   UNL     1       3.085   3.250  10.426  0.00  0.00    +0.000 C 
BRANCH  22  24
ATOM     23  C   UNL     1       2.017   4.936   8.851  0.00  0.00    +0.000 C 
ATOM     24  C   UNL     1       3.258   4.584   9.681  0.00  0.00    +0.000 C 
ENDBRANCH  22  24
ENDBRANCH  21  22
ENDBRANCH  20  21
ENDBRANCH  19  20
ENDBRANCH  18  19
ENDBRANCH  17  18
ENDBRANCH   1  17
BRANCH   4  25
ATOM     25  C   UNL     1       2.132   7.444  17.475  0.00  0.00    +0.000 C 
BRANCH  25  26
ATOM     26  C   UNL     1       1.914   8.994  17.837  0.00  0.00    +0.000 C 
ATOM     27  O   UNL     1       2.510   9.936  17.343  0.00  0.00    +0.000 OA
ATOM     28  N   UNL     1       1.006   9.268  18.817  0.00  0.00    +0.000 N 
ATOM     29  H   UNL     1       0.439   8.534  19.227  0.00  0.00    +0.000 HD
BRANCH  28  30
ATOM     30  C   UNL     1       0.854  10.636  19.283  0.00  0.00    +0.000 C 
BRANCH  30  31
ATOM     31  C   UNL     1      -0.589  10.935  19.175  0.00  0.00    +0.000 A 
ATOM     32  C   UNL     1      -1.369  11.692  20.017  0.00  0.00    +0.000 A 
ATOM     33  C   UNL     1      -2.663  11.928  19.465  0.00  0.00    +0.000 A 
ATOM     34  C   UNL     1      -2.816  11.310  18.241  0.00  0.00    +0.000 A 
ATOM     35  S   UNL     1      -1.449  10.403  17.796  0.00  0.00    +0.000 S 
ENDBRANCH  30  31
ENDBRANCH  28  30
ENDBRANCH  25  26
ENDBRANCH   4  25
TORSDOF 13
ENDMDL
MODEL 4
REMARK VINA RESULT:      -7.8      0.920      1.340
REMARK  Name = 
REMARK  15 active torsions:
REMARK  status: ('A' for Active; 'I' for Inactive)
REMARK    1  A    between atoms: C_1  and  C_2
REMARK    2  A    between atoms: C_2  and  C_3
REMARK    3  A    between atoms: C_3  and  C_4
REMARK    4  A    between atoms: C_4  and  C_5
REMARK    5  A    between atoms: C_5  and  C_6
REMARK    6  A    between atoms: C_6  and  C_7
REMARK    7  A    between atoms: C_7  and  C_8
REMARK    8  A    between atoms: C_8  and  N_9
REMARK    9  A    between atoms: C_12  and  C_13
REMARK   10  A    between atoms: C_13  and  C_14
REMARK   11  A    between atoms: N_16  and  C_17
REMARK   12  A    between atoms: C_17  and  C_18
REMARK   13  A    between atoms: C_24  and  C_25
REMARK   14  A    between atoms: C_25  and  O_27
REMARK   15  A    between atoms: O_27  and  C_28
REMARK                            x       y       z     vdW  Elec       q    Type
REMARK                         _______ _______ _______ _____ _____    ______ ____
ROOT
ATOM      1  N   UNL     1       4.832   5.528  17.275  0.00  0.00    +0.000 N 
ATOM      2  C   UNL     1       4.735   6.709  18.033  0.00  0.00    +0.000 C 
ATOM      3  O   UNL     1       5.649   7.465  18.285  0.00  0.00    +0.000 OA
ATOM      4  C   UNL     1       3.302   6.890  18.435  0.00  0.00    +0.000 C 
ATOM      5  C   UNL     1       3.236   5.999  19.662  0.00  0.00    +0.000 C 
ATOM      6  C   UNL     1       3.047   4.532  19.118  0.00  0.00    +0.000 C 
ATOM      7  C   UNL     1       1.519   4.470  18.704  0.00  0.00    +0.000 C 
ATOM      8  C   UNL     1       0.771   3.168  18.783  0.00  0.00    +0.000 C 
ATOM      9  C   UNL     1       1.630   1.961  18.468  0.00  0.00    +0.000 C 
ATOM     10  C   UNL     1       2.648   2.079  17.294  0.00  0.00    +0.000 C 
ATOM     11  C   UNL     1       3.738   3.172  17.059  0.00  0.00    +0.000 C 
ATOM     12  C   UNL     1       3.995   4.310  17.767  0.00  0.00    +0.000 C 
ENDROOT
BRANCH   6  13
ATOM     13  C   UNL     1       3.270   3.654  20.360  0.00  0.00    +0.000 C 
ATOM     14  O   UNL     1       4.123   2.769  20.380  0.00  0.00    +0.000 OA
BRANCH  13  15
ATOM     15  O   UNL     1       2.433   3.921  21.392  0.00  0.00    +0.000 OA
ATOM     16  C   UNL     1       1.926   2.764  22.075  0.00  0.00    +0.000 C 
ENDBRANCH  13  15
ENDBRANCH   6  13
BRANCH   1  17
ATOM     17  C   UNL     1       5.267   5.987  15.901  0.00  0.00    +0.000 C 
BRANCH  17  18
ATOM     18  C   UNL     1       5.245   4.944  14.536  0.00  0.00    +0.000 C 
BRANCH  18  19
ATOM     19  C   UNL     1       6.265   3.834  14.003  0.00  0.00    +0.000 C 
BRANCH  19  20
ATOM     20  C   UNL     1       7.004   3.908  12.642  0.00  0.00    +0.000 C 
BRANCH  20  21
ATOM     21  C   UNL     1       6.364   3.303  11.378  0.00  0.00    +0.000 C 
BRANCH  21  22
ATOM     22  C   UNL     1       4.983   2.611  11.453  0.00  0.00    +0.000 C 
BRANCH  22  24
ATOM     23  C   UNL     1       3.150   3.343   9.851  0.00  0.00    +0.000 C 
ATOM     24  C   UNL     1       3.744   3.500  11.256  0.00  0.00    +0.000 C 
ENDBRANCH  22  24
ENDBRANCH  21  22
ENDBRANCH  20  21
ENDBRANCH  19  20
ENDBRANCH  18  19
ENDBRANCH  17  18
ENDBRANCH   1  17
BRANCH   4  25
ATOM     25  C   UNL     1       2.214   7.551  17.544  0.00  0.00    +0.000 C 
BRANCH  25  26
ATOM     26  C   UNL     1       1.888   9.057  17.999  0.00  0.00    +0.000 C 
ATOM     27  O   UNL     1       2.262  10.072  17.436  0.00  0.00    +0.000 OA
ATOM     28  N   UNL     1       1.162   9.203  19.144  0.00  0.00    +0.000 N 
ATOM     29  H   UNL     1       0.775   8.399  19.626  0.00  0.00    +0.000 HD
BRANCH  28  30
ATOM     30  C   UNL     1       0.941  10.535  19.680  0.00  0.00    +0.000 C 
BRANCH  30  31
ATOM     31  C   UNL     1       0.197  10.339  20.942  0.00  0.00    +0.000 A 
ATOM     32  C   UNL     1       0.213   9.250  21.781  0.00  0.00    +0.000 A 
ATOM     33  C   UNL     1      -0.467   9.520  23.006  0.00  0.00    +0.000 A 
ATOM     34  C   UNL     1      -0.996  10.794  23.025  0.00  0.00    +0.000 A 
ATOM     35  S   UNL     1      -0.739  11.627  21.566  0.00  0.00    +0.000 S 
ENDBRANCH  30  31
ENDBRANCH  28  30
ENDBRANCH  25  26
ENDBRANCH   4  25
TORSDOF 13
ENDMDL
MODEL 5
REMARK VINA RESULT:      -7.7      1.611      2.134
REMARK  Name = 
REMARK  15 active torsions:
REMARK  status: ('A' for Active; 'I' for Inactive)
REMARK    1  A    between atoms: C_1  and  C_2
REMARK    2  A    between atoms: C_2  and  C_3
REMARK    3  A    between atoms: C_3  and  C_4
REMARK    4  A    between atoms: C_4  and  C_5
REMARK    5  A    between atoms: C_5  and  C_6
REMARK    6  A    between atoms: C_6  and  C_7
REMARK    7  A    between atoms: C_7  and  C_8
REMARK    8  A    between atoms: C_8  and  N_9
REMARK    9  A    between atoms: C_12  and  C_13
REMARK   10  A    between atoms: C_13  and  C_14
REMARK   11  A    between atoms: N_16  and  C_17
REMARK   12  A    between atoms: C_17  and  C_18
REMARK   13  A    between atoms: C_24  and  C_25
REMARK   14  A    between atoms: C_25  and  O_27
REMARK   15  A    between atoms: O_27  and  C_28
REMARK                            x       y       z     vdW  Elec       q    Type
REMARK                         _______ _______ _______ _____ _____    ______ ____
ROOT
ATOM      1  N   UNL     1       5.012   4.753  17.018  0.00  0.00    +0.000 N 
ATOM      2  C   UNL     1       5.310   5.925  17.737  0.00  0.00    +0.000 C 
ATOM      3  O   UNL     1       6.393   6.467  17.789  0.00  0.00    +0.000 OA
ATOM      4  C   UNL     1       4.048   6.407  18.388  0.00  0.00    +0.000 C 
ATOM      5  C   UNL     1       4.025   5.547  19.637  0.00  0.00    +0.000 C 
ATOM      6  C   UNL     1       3.434   4.156  19.192  0.00  0.00    +0.000 C 
ATOM      7  C   UNL     1       1.877   4.424  19.067  0.00  0.00    +0.000 C 
ATOM      8  C   UNL     1       0.899   3.312  19.330  0.00  0.00    +0.000 C 
ATOM      9  C   UNL     1       1.410   1.950  18.907  0.00  0.00    +0.000 C 
ATOM     10  C   UNL     1       2.192   1.851  17.563  0.00  0.00    +0.000 C 
ATOM     11  C   UNL     1       3.425   2.686  17.093  0.00  0.00    +0.000 C 
ATOM     12  C   UNL     1       4.044   3.741  17.699  0.00  0.00    +0.000 C 
ENDROOT
BRANCH   6  13
ATOM     13  C   UNL     1       3.694   3.246  20.403  0.00  0.00    +0.000 C 
ATOM     14  O   UNL     1       3.006   3.311  21.419  0.00  0.00    +0.000 OA
BRANCH  13  15
ATOM     15  O   UNL     1       4.751   2.409  20.257  0.00  0.00    +0.000 OA
ATOM     16  C   UNL     1       4.854   1.385  21.258  0.00  0.00    +0.000 C 
ENDBRANCH  13  15
ENDBRANCH   6  13
BRANCH   1  17
ATOM     17  C   UNL     1       5.269   5.113  15.571  0.00  0.00    +0.000 C 
BRANCH  17  18
ATOM     18  C   UNL     1       6.150   4.085  14.513  0.00  0.00    +0.000 C 
BRANCH  18  19
ATOM     19  C   UNL     1       6.490   4.168  12.953  0.00  0.00    +0.000 C 
BRANCH  19  20
ATOM     20  C   UNL     1       6.578   2.940  12.011  0.00  0.00    +0.000 C 
BRANCH  20  21
ATOM     21  C   UNL     1       5.301   2.353  11.381  0.00  0.00    +0.000 C 
BRANCH  21  22
ATOM     22  C   UNL     1       3.955   3.107  11.488  0.00  0.00    +0.000 C 
BRANCH  22  24
ATOM     23  C   UNL     1       2.775   3.739   9.326  0.00  0.00    +0.000 C 
ATOM     24  C   UNL     1       3.693   4.218  10.457  0.00  0.00    +0.000 C 
ENDBRANCH  22  24
ENDBRANCH  21  22
ENDBRANCH  20  21
ENDBRANCH  19  20
ENDBRANCH  18  19
ENDBRANCH  17  18
ENDBRANCH   1  17
BRANCH   4  25
ATOM     25  C   UNL     1       2.977   7.288  17.687  0.00  0.00    +0.000 C 
BRANCH  25  26
ATOM     26  C   UNL     1       2.165   8.202  18.730  0.00  0.00    +0.000 C 
ATOM     27  O   UNL     1       1.930   7.924  19.893  0.00  0.00    +0.000 OA
ATOM     28  N   UNL     1       1.663   9.375  18.248  0.00  0.00    +0.000 N 
ATOM     29  H   UNL     1       1.872   9.688  17.307  0.00  0.00    +0.000 HD
BRANCH  28  30
ATOM     30  C   UNL     1       0.811  10.186  19.102  0.00  0.00    +0.000 C 
BRANCH  30  31
ATOM     31  C   UNL     1       1.282  11.577  18.927  0.00  0.00    +0.000 A 
ATOM     32  C   UNL     1       2.369  12.027  18.217  0.00  0.00    +0.000 A 
ATOM     33  C   UNL     1       2.372  13.449  18.105  0.00  0.00    +0.000 A 
ATOM     34  C   UNL     1       1.301  14.014  18.765  0.00  0.00    +0.000 A 
ATOM     35  S   UNL     1       0.346  12.858  19.565  0.00  0.00    +0.000 S 
ENDBRANCH  30  31
ENDBRANCH  28  30
ENDBRANCH  25  26
ENDBRANCH   4  25
TORSDOF 13
ENDMDL
MODEL 6
REMARK VINA RESULT:      -7.6      4.139      7.797
REMARK  Name = 
REMARK  15 active torsions:
REMARK  status: ('A' for Active; 'I' for Inactive)
REMARK    1  A    between atoms: C_1  and  C_2
REMARK    2  A    between atoms: C_2  and  C_3
REMARK    3  A    between atoms: C_3  and  C_4
REMARK    4  A    between atoms: C_4  and  C_5
REMARK    5  A    between atoms: C_5  and  C_6
REMARK    6  A    between atoms: C_6  and  C_7
REMARK    7  A    between atoms: C_7  and  C_8
REMARK    8  A    between atoms: C_8  and  N_9
REMARK    9  A    between atoms: C_12  and  C_13
REMARK   10  A    between atoms: C_13  and  C_14
REMARK   11  A    between atoms: N_16  and  C_17
REMARK   12  A    between atoms: C_17  and  C_18
REMARK   13  A    between atoms: C_24  and  C_25
REMARK   14  A    between atoms: C_25  and  O_27
REMARK   15  A    between atoms: O_27  and  C_28
REMARK                            x       y       z     vdW  Elec       q    Type
REMARK                         _______ _______ _______ _____ _____    ______ ____
ROOT
ATOM      1  N   UNL     1       1.403   9.280  19.533  0.00  0.00    +0.000 N 
ATOM      2  C   UNL     1       1.341   9.786  18.222  0.00  0.00    +0.000 C 
ATOM      3  O   UNL     1       2.218   9.704  17.390  0.00  0.00    +0.000 OA
ATOM      4  C   UNL     1      -0.012  10.403  18.022  0.00  0.00    +0.000 C 
ATOM      5  C   UNL     1       0.209  11.776  18.631  0.00  0.00    +0.000 C 
ATOM      6  C   UNL     1       0.052  11.587  20.187  0.00  0.00    +0.000 C 
ATOM      7  C   UNL     1      -1.514  11.486  20.405  0.00  0.00    +0.000 C 
ATOM      8  C   UNL     1      -2.127  11.967  21.691  0.00  0.00    +0.000 C 
ATOM      9  C   UNL     1      -1.239  11.749  22.899  0.00  0.00    +0.000 C 
ATOM     10  C   UNL     1      -0.452  10.407  22.991  0.00  0.00    +0.000 C 
ATOM     11  C   UNL     1       0.487   9.756  21.926  0.00  0.00    +0.000 C 
ATOM     12  C   UNL     1       0.767  10.157  20.652  0.00  0.00    +0.000 C 
ENDROOT
BRANCH   6  13
ATOM     13  C   UNL     1       0.558  12.918  20.767  0.00  0.00    +0.000 C 
ATOM     14  O   UNL     1      -0.089  13.956  20.660  0.00  0.00    +0.000 OA
BRANCH  13  15
ATOM     15  O   UNL     1       1.773  12.842  21.364  0.00  0.00    +0.000 OA
ATOM     16  C   UNL     1       2.673  13.913  21.043  0.00  0.00    +0.000 C 
ENDBRANCH  13  15
ENDBRANCH   6  13
BRANCH   1  17
ATOM     17  C   UNL     1       1.554   7.784  19.362  0.00  0.00    +0.000 C 
BRANCH  17  18
ATOM     18  C   UNL     1       1.811   6.730  20.693  0.00  0.00    +0.000 C 
BRANCH  18  19
ATOM     19  C   UNL     1       2.072   5.156  20.797  0.00  0.00    +0.000 C 
BRANCH  19  20
ATOM     20  C   UNL     1       1.006   4.072  20.493  0.00  0.00    +0.000 C 
BRANCH  20  21
ATOM     21  C   UNL     1       1.022   3.325  19.146  0.00  0.00    +0.000 C 
BRANCH  21  22
ATOM     22  C   UNL     1       1.598   4.003  17.880  0.00  0.00    +0.000 C 
BRANCH  22  24
ATOM     23  C   UNL     1       3.267   2.088  17.985  0.00  0.00    +0.000 C 
ATOM     24  C   UNL     1       2.766   3.292  17.177  0.00  0.00    +0.000 C 
ENDBRANCH  22  24
ENDBRANCH  21  22
ENDBRANCH  20  21
ENDBRANCH  19  20
ENDBRANCH  18  19
ENDBRANCH  17  18
ENDBRANCH   1  17
BRANCH   4  25
ATOM     25  C   UNL     1      -1.288   9.615  17.618  0.00  0.00    +0.000 C 
BRANCH  25  26
ATOM     26  C   UNL     1      -2.468  10.585  17.120  0.00  0.00    +0.000 C 
ATOM     27  O   UNL     1      -2.379  11.431  16.248  0.00  0.00    +0.000 OA
ATOM     28  N   UNL     1      -3.663  10.470  17.767  0.00  0.00    +0.000 N 
ATOM     29  H   UNL     1      -3.817   9.748  18.462  0.00  0.00    +0.000 HD
BRANCH  28  30
ATOM     30  C   UNL     1      -4.733  11.404  17.454  0.00  0.00    +0.000 C 
BRANCH  30  31
ATOM     31  C   UNL     1      -5.512  11.549  18.701  0.00  0.00    +0.000 A 
ATOM     32  C   UNL     1      -5.413  12.530  19.659  0.00  0.00    +0.000 A 
ATOM     33  C   UNL     1      -6.479  12.450  20.605  0.00  0.00    +0.000 A 
ATOM     34  C   UNL     1      -7.320  11.390  20.337  0.00  0.00    +0.000 A 
ATOM     35  S   UNL     1      -6.797  10.465  19.010  0.00  0.00    +0.000 S 
ENDBRANCH  30  31
ENDBRANCH  28  30
ENDBRANCH  25  26
ENDBRANCH   4  25
TORSDOF 13
ENDMDL
MODEL 7
REMARK VINA RESULT:      -7.6      2.574      5.486
REMARK  Name = 
REMARK  15 active torsions:
REMARK  status: ('A' for Active; 'I' for Inactive)
REMARK    1  A    between atoms: C_1  and  C_2
REMARK    2  A    between atoms: C_2  and  C_3
REMARK    3  A    between atoms: C_3  and  C_4
REMARK    4  A    between atoms: C_4  and  C_5
REMARK    5  A    between atoms: C_5  and  C_6
REMARK    6  A    between atoms: C_6  and  C_7
REMARK    7  A    between atoms: C_7  and  C_8
REMARK    8  A    between atoms: C_8  and  N_9
REMARK    9  A    between atoms: C_12  and  C_13
REMARK   10  A    between atoms: C_13  and  C_14
REMARK   11  A    between atoms: N_16  and  C_17
REMARK   12  A    between atoms: C_17  and  C_18
REMARK   13  A    between atoms: C_24  and  C_25
REMARK   14  A    between atoms: C_25  and  O_27
REMARK   15  A    between atoms: O_27  and  C_28
REMARK                            x       y       z     vdW  Elec       q    Type
REMARK                         _______ _______ _______ _____ _____    ______ ____
ROOT
ATOM      1  N   UNL     1       3.284   5.526  18.881  0.00  0.00    +0.000 N 
ATOM      2  C   UNL     1       2.493   6.073  17.854  0.00  0.00    +0.000 C 
ATOM      3  O   UNL     1       1.416   5.651  17.491  0.00  0.00    +0.000 OA
ATOM      4  C   UNL     1       3.192   7.288  17.322  0.00  0.00    +0.000 C 
ATOM      5  C   UNL     1       4.165   6.652  16.347  0.00  0.00    +0.000 C 
ATOM      6  C   UNL     1       5.383   6.156  17.215  0.00  0.00    +0.000 C 
ATOM      7  C   UNL     1       6.197   7.480  17.526  0.00  0.00    +0.000 C 
ATOM      8  C   UNL     1       7.688   7.419  17.713  0.00  0.00    +0.000 C 
ATOM      9  C   UNL     1       8.159   6.138  18.371  0.00  0.00    +0.000 C 
ATOM     10  C   UNL     1       7.312   5.570  19.548  0.00  0.00    +0.000 C 
ATOM     11  C   UNL     1       5.780   5.267  19.586  0.00  0.00    +0.000 C 
ATOM     12  C   UNL     1       4.823   5.505  18.642  0.00  0.00    +0.000 C 
ENDROOT
BRANCH   6  13
ATOM     13  C   UNL     1       6.191   5.282  16.242  0.00  0.00    +0.000 C 
ATOM     14  O   UNL     1       6.510   4.129  16.524  0.00  0.00    +0.000 OA
BRANCH  13  15
ATOM     15  O   UNL     1       6.536   5.902  15.088  0.00  0.00    +0.000 OA
ATOM     16  C   UNL     1       7.109   5.046  14.089  0.00  0.00    +0.000 C 
ENDBRANCH  13  15
ENDBRANCH   6  13
BRANCH   1  17
ATOM     17  C   UNL     1       2.440   5.659  20.130  0.00  0.00    +0.000 C 
BRANCH  17  18
ATOM     18  C   UNL     1       2.215   4.357  21.227  0.00  0.00    +0.000 C 
BRANCH  18  19
ATOM     19  C   UNL     1       1.248   3.083  21.215  0.00  0.00    +0.000 C 
BRANCH  19  20
ATOM     20  C   UNL     1       0.992   2.192  19.972  0.00  0.00    +0.000 C 
BRANCH  20  21
ATOM     21  C   UNL     1       1.331   2.713  18.563  0.00  0.00    +0.000 C 
BRANCH  21  22
ATOM     22  C   UNL     1       2.622   2.253  17.846  0.00  0.00    +0.000 C 
BRANCH  22  24
ATOM     23  C   UNL     1       4.492   2.016  19.552  0.00  0.00    +0.000 C 
ATOM     24  C   UNL     1       3.535   1.278  18.607  0.00  0.00    +0.000 C 
ENDBRANCH  22  24
ENDBRANCH  21  22
ENDBRANCH  20  21
ENDBRANCH  19  20
ENDBRANCH  18  19
ENDBRANCH  17  18
ENDBRANCH   1  17
BRANCH   4  25
ATOM     25  C   UNL     1       3.093   8.706  17.949  0.00  0.00    +0.000 C 
BRANCH  25  26
ATOM     26  C   UNL     1       1.570   9.183  18.135  0.00  0.00    +0.000 C 
ATOM     27  O   UNL     1       0.660   8.996  17.345  0.00  0.00    +0.000 OA
ATOM     28  N   UNL     1       1.288   9.895  19.263  0.00  0.00    +0.000 N 
ATOM     29  H   UNL     1       1.988  10.034  19.983  0.00  0.00    +0.000 HD
BRANCH  28  30
ATOM     30  C   UNL     1      -0.038  10.465  19.431  0.00  0.00    +0.000 C 
BRANCH  30  31
ATOM     31  C   UNL     1      -0.257  10.542  20.891  0.00  0.00    +0.000 A 
ATOM     32  C   UNL     1      -1.036  11.431  21.591  0.00  0.00    +0.000 A 
ATOM     33  C   UNL     1      -1.165  11.052  22.961  0.00  0.00    +0.000 A 
ATOM     34  C   UNL     1      -0.448   9.908  23.243  0.00  0.00    +0.000 A 
ATOM     35  S   UNL     1       0.421   9.338  21.898  0.00  0.00    +0.000 S 
ENDBRANCH  30  31
ENDBRANCH  28  30
ENDBRANCH  25  26
ENDBRANCH   4  25
TORSDOF 13
ENDMDL
MODEL 8
REMARK VINA RESULT:      -7.6      1.540      1.934
REMARK  Name = 
REMARK  15 active torsions:
REMARK  status: ('A' for Active; 'I' for Inactive)
REMARK    1  A    between atoms: C_1  and  C_2
REMARK    2  A    between atoms: C_2  and  C_3
REMARK    3  A    between atoms: C_3  and  C_4
REMARK    4  A    between atoms: C_4  and  C_5
REMARK    5  A    between atoms: C_5  and  C_6
REMARK    6  A    between atoms: C_6  and  C_7
REMARK    7  A    between atoms: C_7  and  C_8
REMARK    8  A    between atoms: C_8  and  N_9
REMARK    9  A    between atoms: C_12  and  C_13
REMARK   10  A    between atoms: C_13  and  C_14
REMARK   11  A    between atoms: N_16  and  C_17
REMARK   12  A    between atoms: C_17  and  C_18
REMARK   13  A    between atoms: C_24  and  C_25
REMARK   14  A    between atoms: C_25  and  O_27
REMARK   15  A    between atoms: O_27  and  C_28
REMARK                            x       y       z     vdW  Elec       q    Type
REMARK                         _______ _______ _______ _____ _____    ______ ____
ROOT
ATOM      1  N   UNL     1       4.838   4.609  16.705  0.00  0.00    +0.000 N 
ATOM      2  C   UNL     1       5.322   5.746  17.378  0.00  0.00    +0.000 C 
ATOM      3  O   UNL     1       6.437   6.209  17.274  0.00  0.00    +0.000 OA
ATOM      4  C   UNL     1       4.206   6.308  18.208  0.00  0.00    +0.000 C 
ATOM      5  C   UNL     1       4.303   5.433  19.444  0.00  0.00    +0.000 C 
ATOM      6  C   UNL     1       3.553   4.094  19.084  0.00  0.00    +0.000 C 
ATOM      7  C   UNL     1       2.018   4.475  19.188  0.00  0.00    +0.000 C 
ATOM      8  C   UNL     1       1.011   3.432  19.586  0.00  0.00    +0.000 C 
ATOM      9  C   UNL     1       1.354   2.043  19.087  0.00  0.00    +0.000 C 
ATOM     10  C   UNL     1       1.924   1.908  17.643  0.00  0.00    +0.000 C 
ATOM     11  C   UNL     1       3.133   2.661  17.002  0.00  0.00    +0.000 C 
ATOM     12  C   UNL     1       3.908   3.659  17.516  0.00  0.00    +0.000 C 
ENDROOT
BRANCH   6  13
ATOM     13  C   UNL     1       3.919   3.150  20.240  0.00  0.00    +0.000 C 
ATOM     14  O   UNL     1       3.240   3.087  21.262  0.00  0.00    +0.000 OA
BRANCH  13  15
ATOM     15  O   UNL     1       5.054   2.436  20.041  0.00  0.00    +0.000 OA
ATOM     16  C   UNL     1       4.873   1.013  19.989  0.00  0.00    +0.000 C 
ENDBRANCH  13  15
ENDBRANCH   6  13
BRANCH   1  17
ATOM     17  C   UNL     1       4.909   4.971  15.238  0.00  0.00    +0.000 C 
BRANCH  17  18
ATOM     18  C   UNL     1       6.061   4.269  14.174  0.00  0.00    +0.000 C 
BRANCH  18  19
ATOM     19  C   UNL     1       6.018   3.901  12.619  0.00  0.00    +0.000 C 
BRANCH  19  20
ATOM     20  C   UNL     1       5.265   2.679  12.031  0.00  0.00    +0.000 C 
BRANCH  20  21
ATOM     21  C   UNL     1       3.914   2.872  11.317  0.00  0.00    +0.000 C 
BRANCH  21  22
ATOM     22  C   UNL     1       3.623   4.168  10.524  0.00  0.00    +0.000 C 
BRANCH  22  24
ATOM     23  C   UNL     1       2.017   5.221   8.858  0.00  0.00    +0.000 C 
ATOM     24  C   UNL     1       2.910   4.014   9.171  0.00  0.00    +0.000 C 
ENDBRANCH  22  24
ENDBRANCH  21  22
ENDBRANCH  20  21
ENDBRANCH  19  20
ENDBRANCH  18  19
ENDBRANCH  17  18
ENDBRANCH   1  17
BRANCH   4  25
ATOM     25  C   UNL     1       3.112   7.273  17.674  0.00  0.00    +0.000 C 
BRANCH  25  26
ATOM     26  C   UNL     1       2.278   7.961  18.863  0.00  0.00    +0.000 C 
ATOM     27  O   UNL     1       2.315   7.646  20.040  0.00  0.00    +0.000 OA
ATOM     28  N   UNL     1       1.422   8.961  18.505  0.00  0.00    +0.000 N 
ATOM     29  H   UNL     1       1.386   9.306  17.552  0.00  0.00    +0.000 HD
BRANCH  28  30
ATOM     30  C   UNL     1       0.544   9.538  19.510  0.00  0.00    +0.000 C 
BRANCH  30  31
ATOM     31  C   UNL     1      -0.025  10.753  18.891  0.00  0.00    +0.000 A 
ATOM     32  C   UNL     1      -1.213  10.888  18.213  0.00  0.00    +0.000 A 
ATOM     33  C   UNL     1      -1.517  12.258  17.953  0.00  0.00    +0.000 A 
ATOM     34  C   UNL     1      -0.528  13.097  18.419  0.00  0.00    +0.000 A 
ATOM     35  S   UNL     1       0.779  12.248  19.097  0.00  0.00    +0.000 S 
ENDBRANCH  30  31
ENDBRANCH  28  30
ENDBRANCH  25  26
ENDBRANCH   4  25
TORSDOF 13
ENDMDL
MODEL 9
REMARK VINA RESULT:      -7.6      1.668      2.217
REMARK  Name = 
REMARK  15 active torsions:
REMARK  status: ('A' for Active; 'I' for Inactive)
REMARK    1  A    between atoms: C_1  and  C_2
REMARK    2  A    between atoms: C_2  and  C_3
REMARK    3  A    between atoms: C_3  and  C_4
REMARK    4  A    between atoms: C_4  and  C_5
REMARK    5  A    between atoms: C_5  and  C_6
REMARK    6  A    between atoms: C_6  and  C_7
REMARK    7  A    between atoms: C_7  and  C_8
REMARK    8  A    between atoms: C_8  and  N_9
REMARK    9  A    between atoms: C_12  and  C_13
REMARK   10  A    between atoms: C_13  and  C_14
REMARK   11  A    between atoms: N_16  and  C_17
REMARK   12  A    between atoms: C_17  and  C_18
REMARK   13  A    between atoms: C_24  and  C_25
REMARK   14  A    between atoms: C_25  and  O_27
REMARK   15  A    between atoms: O_27  and  C_28
REMARK                            x       y       z     vdW  Elec       q    Type
REMARK                         _______ _______ _______ _____ _____    ______ ____
ROOT
ATOM      1  N   UNL     1       5.082   5.013  17.163  0.00  0.00    +0.000 N 
ATOM      2  C   UNL     1       5.300   6.145  17.969  0.00  0.00    +0.000 C 
ATOM      3  O   UNL     1       6.370   6.682  18.160  0.00  0.00    +0.000 OA
ATOM      4  C   UNL     1       3.976   6.594  18.512  0.00  0.00    +0.000 C 
ATOM      5  C   UNL     1       3.829   5.669  19.706  0.00  0.00    +0.000 C 
ATOM      6  C   UNL     1       3.292   4.304  19.129  0.00  0.00    +0.000 C 
ATOM      7  C   UNL     1       1.755   4.581  18.860  0.00  0.00    +0.000 C 
ATOM      8  C   UNL     1       0.760   3.458  18.962  0.00  0.00    +0.000 C 
ATOM      9  C   UNL     1       1.316   2.120  18.522  0.00  0.00    +0.000 C 
ATOM     10  C   UNL     1       2.232   2.091  17.262  0.00  0.00    +0.000 C 
ATOM     11  C   UNL     1       3.504   2.948  16.965  0.00  0.00    +0.000 C 
ATOM     12  C   UNL     1       4.053   3.968  17.687  0.00  0.00    +0.000 C 
ENDROOT
BRANCH   6  13
ATOM     13  C   UNL     1       3.431   3.331  20.311  0.00  0.00    +0.000 C 
ATOM     14  O   UNL     1       4.133   2.325  20.239  0.00  0.00    +0.000 OA
BRANCH  13  15
ATOM     15  O   UNL     1       2.695   3.664  21.399  0.00  0.00    +0.000 OA
ATOM     16  C   UNL     1       1.994   2.572  22.014  0.00  0.00    +0.000 C 
ENDBRANCH  13  15
ENDBRANCH   6  13
BRANCH   1  17
ATOM     17  C   UNL     1       5.484   5.449  15.770  0.00  0.00    +0.000 C 
BRANCH  17  18
ATOM     18  C   UNL     1       6.970   4.970  15.053  0.00  0.00    +0.000 C 
BRANCH  18  19
ATOM     19  C   UNL     1       7.451   4.845  13.534  0.00  0.00    +0.000 C 
BRANCH  19  20
ATOM     20  C   UNL     1       6.530   4.426  12.358  0.00  0.00    +0.000 C 
BRANCH  20  21
ATOM     21  C   UNL     1       6.390   2.941  11.974  0.00  0.00    +0.000 C 
BRANCH  21  22
ATOM     22  C   UNL     1       5.124   2.435  11.244  0.00  0.00    +0.000 C 
BRANCH  22  24
ATOM     23  C   UNL     1       3.299   3.728  10.036  0.00  0.00    +0.000 C 
ATOM     24  C   UNL     1       3.847   3.277  11.396  0.00  0.00    +0.000 C 
ENDBRANCH  22  24
ENDBRANCH  21  22
ENDBRANCH  20  21
ENDBRANCH  19  20
ENDBRANCH  18  19
ENDBRANCH  17  18
ENDBRANCH   1  17
BRANCH   4  25
ATOM     25  C   UNL     1       2.979   7.513  17.753  0.00  0.00    +0.000 C 
BRANCH  25  26
ATOM     26  C   UNL     1       1.992   8.294  18.751  0.00  0.00    +0.000 C 
ATOM     27  O   UNL     1       1.803   8.026  19.926  0.00  0.00    +0.000 OA
ATOM     28  N   UNL     1       1.276   9.323  18.217  0.00  0.00    +0.000 N 
ATOM     29  H   UNL     1       1.430   9.630  17.263  0.00  0.00    +0.000 HD
BRANCH  28  30
ATOM     30  C   UNL     1       0.272   9.989  19.031  0.00  0.00    +0.000 C 
BRANCH  30  31
ATOM     31  C   UNL     1       0.378  11.425  18.699  0.00  0.00    +0.000 A 
ATOM     32  C   UNL     1      -0.636  12.327  18.479  0.00  0.00    +0.000 A 
ATOM     33  C   UNL     1      -0.142  13.663  18.399  0.00  0.00    +0.000 A 
ATOM     34  C   UNL     1       1.230  13.709  18.530  0.00  0.00    +0.000 A 
ATOM     35  S   UNL     1       1.921  12.163  18.677  0.00  0.00    +0.000 S 
ENDBRANCH  30  31
ENDBRANCH  28  30
ENDBRANCH  25  26
ENDBRANCH   4  25
TORSDOF 13
ENDMDL
