MODEL 1
REMARK VINA RESULT:      -8.4      0.000      0.000
REMARK  Name = 
REMARK  8 active torsions:
REMARK  status: ('A' for Active; 'I' for Inactive)
REMARK    1  A    between atoms: C_1  and  C_2
REMARK    2  A    between atoms: C_2  and  C_3
REMARK    3  A    between atoms: C_2  and  C_4
REMARK    4  A    between atoms: C_4  and  C_5
REMARK    5  A    between atoms: C_5  and  N_6
REMARK    6  A    between atoms: N_15  and  C_16
REMARK    7  A    between atoms: C_16  and  C_17
REMARK    8  A    between atoms: N_19  and  C_20
REMARK                            x       y       z     vdW  Elec       q    Type
REMARK                         _______ _______ _______ _____ _____    ______ ____
ROOT
ATOM      1  N   UNL     1       4.282   4.735  18.225  0.00  0.00    +0.000 N 
ATOM      2  C   UNL     1       4.168   4.172  16.959  0.00  0.00    +0.000 A 
ATOM      3  O   UNL     1       3.210   3.496  16.588  0.00  0.00    +0.000 OA
ATOM      4  C   UNL     1       5.288   4.392  16.050  0.00  0.00    +0.000 A 
ATOM      5  C   UNL     1       5.193   4.045  14.697  0.00  0.00    +0.000 A 
ATOM      6  C   UNL     1       6.288   4.258  13.871  0.00  0.00    +0.000 A 
ATOM      7  C   UNL     1       7.444   4.764  14.443  0.00  0.00    +0.000 A 
ATOM      8  N   UNL     1       7.560   5.079  15.756  0.00  0.00    +0.000 NA
ATOM      9  C   UNL     1       6.459   4.943  16.535  0.00  0.00    +0.000 A 
ATOM     10  N   UNL     1       6.509   5.424  17.854  0.00  0.00    +0.000 N 
ATOM     11  C   UNL     1       5.394   5.441  18.671  0.00  0.00    +0.000 A 
ATOM     12  O   UNL     1       5.395   6.030  19.755  0.00  0.00    +0.000 OA
ENDROOT
BRANCH   1  13
ATOM     13  C   UNL     1       3.205   4.498  19.186  0.00  0.00    +0.000 C 
BRANCH  13  14
ATOM     14  C   UNL     1       3.403   3.140  19.874  0.00  0.00    +0.000 C 
BRANCH  14  16
ATOM     15  C   UNL     1       1.688   2.472  21.580  0.00  0.00    +0.000 C 
ATOM     16  C   UNL     1       2.099   2.357  20.110  0.00  0.00    +0.000 C 
ATOM     17  C   UNL     1       0.956   2.848  19.220  0.00  0.00    +0.000 C 
ENDBRANCH  14  16
ENDBRANCH  13  14
ENDBRANCH   1  13
BRANCH  10  18
ATOM     18  C   UNL     1       7.747   6.019  18.358  0.00  0.00    +0.000 C 
BRANCH  18  19
ATOM     19  C   UNL     1       7.848   7.530  18.110  0.00  0.00    +0.000 C 
ATOM     20  O   UNL     1       7.304   8.049  17.135  0.00  0.00    +0.000 OA
ATOM     21  N   UNL     1       8.729   8.209  18.947  0.00  0.00    +0.000 N 
ATOM     22  H   UNL     1       9.444   7.637  19.390  0.00  0.00    +0.000 HD
BRANCH  21  23
ATOM     23  C   UNL     1       8.931   9.608  18.918  0.00  0.00    +0.000 A 
ATOM     24  C   UNL     1       8.697  10.375  17.767  0.00  0.00    +0.000 A 
ATOM     25  C   UNL     1       8.867  11.765  17.801  0.00  0.00    +0.000 A 
ATOM     26  C   UNL     1       9.296  12.378  18.966  0.00  0.00    +0.000 A 
ATOM     27  F   UNL     1       9.470  13.702  18.995  0.00  0.00    +0.000 F 
ATOM     28  C   UNL     1       9.541  11.633  20.114  0.00  0.00    +0.000 A 
ATOM     29  C   UNL     1       9.342  10.247  20.092  0.00  0.00    +0.000 A 
ENDBRANCH  21  23
ENDBRANCH  18  19
ENDBRANCH  10  18
TORSDOF 6
ENDMDL
MODEL 2
REMARK VINA RESULT:      -8.0      1.013      1.707
REMARK  Name = 
REMARK  8 active torsions:
REMARK  status: ('A' for Active; 'I' for Inactive)
REMARK    1  A    between atoms: C_1  and  C_2
REMARK    2  A    between atoms: C_2  and  C_3
REMARK    3  A    between atoms: C_2  and  C_4
REMARK    4  A    between atoms: C_4  and  C_5
REMARK    5  A    between atoms: C_5  and  N_6
REMARK    6  A    between atoms: N_15  and  C_16
REMARK    7  A    between atoms: C_16  and  C_17
REMARK    8  A    between atoms: N_19  and  C_20
REMARK                            x       y       z     vdW  Elec       q    Type
REMARK                         _______ _______ _______ _____ _____    ______ ____
ROOT
ATOM      1  N   UNL     1       4.548   4.566  18.337  0.00  0.00    +0.000 N 
ATOM      2  C   UNL     1       4.354   4.059  17.057  0.00  0.00    +0.000 A 
ATOM      3  O   UNL     1       3.407   3.344  16.733  0.00  0.00    +0.000 OA
ATOM      4  C   UNL     1       5.376   4.391  16.069  0.00  0.00    +0.000 A 
ATOM      5  C   UNL     1       5.182   4.106  14.713  0.00  0.00    +0.000 A 
ATOM      6  C   UNL     1       6.186   4.424  13.809  0.00  0.00    +0.000 A 
ATOM      7  C   UNL     1       7.357   4.971  14.307  0.00  0.00    +0.000 A 
ATOM      8  N   UNL     1       7.571   5.229  15.620  0.00  0.00    +0.000 NA
ATOM      9  C   UNL     1       6.552   4.988  16.482  0.00  0.00    +0.000 A 
ATOM     10  N   UNL     1       6.691   5.406  17.816  0.00  0.00    +0.000 N 
ATOM     11  C   UNL     1       5.653   5.316  18.725  0.00  0.00    +0.000 A 
ATOM     12  O   UNL     1       5.716   5.850  19.834  0.00  0.00    +0.000 OA
ENDROOT
BRANCH   1  13
ATOM     13  C   UNL     1       3.574   4.216  19.372  0.00  0.00    +0.000 C 
BRANCH  13  14
ATOM     14  C   UNL     1       2.327   5.103  19.244  0.00  0.00    +0.000 C 
BRANCH  14  16
ATOM     15  C   UNL     1       2.434   7.421  18.289  0.00  0.00    +0.000 C 
ATOM     16  C   UNL     1       2.573   6.587  19.566  0.00  0.00    +0.000 C 
ATOM     17  C   UNL     1       1.611   7.118  20.630  0.00  0.00    +0.000 C 
ENDBRANCH  14  16
ENDBRANCH  13  14
ENDBRANCH   1  13
BRANCH  10  18
ATOM     18  C   UNL     1       7.933   6.050  18.244  0.00  0.00    +0.000 C 
BRANCH  18  19
ATOM     19  C   UNL     1       7.922   7.576  18.081  0.00  0.00    +0.000 C 
ATOM     20  O   UNL     1       7.250   8.113  17.200  0.00  0.00    +0.000 OA
ATOM     21  N   UNL     1       8.847   8.261  18.864  0.00  0.00    +0.000 N 
ATOM     22  H   UNL     1       9.635   7.711  19.196  0.00  0.00    +0.000 HD
BRANCH  21  23
ATOM     23  C   UNL     1       8.965   9.670  18.901  0.00  0.00    +0.000 A 
ATOM     24  C   UNL     1       8.750  10.470  17.769  0.00  0.00    +0.000 A 
ATOM     25  C   UNL     1       8.834  11.864  17.866  0.00  0.00    +0.000 A 
ATOM     26  C   UNL     1       9.159  12.451  19.077  0.00  0.00    +0.000 A 
ATOM     27  F   UNL     1       9.252  13.781  19.168  0.00  0.00    +0.000 F 
ATOM     28  C   UNL     1       9.385  11.674  20.207  0.00  0.00    +0.000 A 
ATOM     29  C   UNL     1       9.271  10.282  20.120  0.00  0.00    +0.000 A 
ENDBRANCH  21  23
ENDBRANCH  18  19
ENDBRANCH  10  18
TORSDOF 6
ENDMDL
MODEL 3
REMARK VINA RESULT:      -8.0      0.822      1.386
REMARK  Name = 
REMARK  8 active torsions:
REMARK  status: ('A' for Active; 'I' for Inactive)
REMARK    1  A    between atoms: C_1  and  C_2
REMARK    2  A    between atoms: C_2  and  C_3
REMARK    3  A    between atoms: C_2  and  C_4
REMARK    4  A    between atoms: C_4  and  C_5
REMARK    5  A    between atoms: C_5  and  N_6
REMARK    6  A    between atoms: N_15  and  C_16
REMARK    7  A    between atoms: C_16  and  C_17
REMARK    8  A    between atoms: N_19  and  C_20
REMARK                            x       y       z     vdW  Elec       q    Type
REMARK                         _______ _______ _______ _____ _____    ______ ____
ROOT
ATOM      1  N   UNL     1       4.511   4.334  18.215  0.00  0.00    +0.000 N 
ATOM      2  C   UNL     1       4.367   3.851  16.919  0.00  0.00    +0.000 A 
ATOM      3  O   UNL     1       3.454   3.111  16.556  0.00  0.00    +0.000 OA
ATOM      4  C   UNL     1       5.400   4.241  15.966  0.00  0.00    +0.000 A 
ATOM      5  C   UNL     1       5.250   3.981  14.599  0.00  0.00    +0.000 A 
ATOM      6  C   UNL     1       6.264   4.356  13.728  0.00  0.00    +0.000 A 
ATOM      7  C   UNL     1       7.402   4.932  14.268  0.00  0.00    +0.000 A 
ATOM      8  N   UNL     1       7.574   5.166  15.591  0.00  0.00    +0.000 NA
ATOM      9  C   UNL     1       6.544   4.870  16.421  0.00  0.00    +0.000 A 
ATOM     10  N   UNL     1       6.635   5.261  17.767  0.00  0.00    +0.000 N 
ATOM     11  C   UNL     1       5.579   5.113  18.647  0.00  0.00    +0.000 A 
ATOM     12  O   UNL     1       5.596   5.623  19.770  0.00  0.00    +0.000 OA
ENDROOT
BRANCH   1  13
ATOM     13  C   UNL     1       3.526   3.927  19.217  0.00  0.00    +0.000 C 
BRANCH  13  14
ATOM     14  C   UNL     1       2.200   4.666  18.984  0.00  0.00    +0.000 C 
BRANCH  14  16
ATOM     15  C   UNL     1       1.713   3.817  21.295  0.00  0.00    +0.000 C 
ATOM     16  C   UNL     1       1.373   4.894  20.261  0.00  0.00    +0.000 C 
ATOM     17  C   UNL     1       1.609   6.278  20.868  0.00  0.00    +0.000 C 
ENDBRANCH  14  16
ENDBRANCH  13  14
ENDBRANCH   1  13
BRANCH  10  18
ATOM     18  C   UNL     1       7.842   5.938  18.241  0.00  0.00    +0.000 C 
BRANCH  18  19
ATOM     19  C   UNL     1       7.817   7.458  18.031  0.00  0.00    +0.000 C 
ATOM     20  O   UNL     1       7.152   7.961  17.125  0.00  0.00    +0.000 OA
ATOM     21  N   UNL     1       8.724   8.177  18.805  0.00  0.00    +0.000 N 
ATOM     22  H   UNL     1       9.513   7.646  19.165  0.00  0.00    +0.000 HD
BRANCH  21  23
ATOM     23  C   UNL     1       8.826   9.588  18.800  0.00  0.00    +0.000 A 
ATOM     24  C   UNL     1       9.458  10.297  19.832  0.00  0.00    +0.000 A 
ATOM     25  C   UNL     1       9.574  11.690  19.759  0.00  0.00    +0.000 A 
ATOM     26  C   UNL     1       9.039  12.371  18.680  0.00  0.00    +0.000 A 
ATOM     27  F   UNL     1       9.139  13.702  18.616  0.00  0.00    +0.000 F 
ATOM     28  C   UNL     1       8.401  11.685  17.651  0.00  0.00    +0.000 A 
ATOM     29  C   UNL     1       8.310  10.290  17.706  0.00  0.00    +0.000 A 
ENDBRANCH  21  23
ENDBRANCH  18  19
ENDBRANCH  10  18
TORSDOF 6
ENDMDL
MODEL 4
REMARK VINA RESULT:      -7.9      0.646      1.043
REMARK  Name = 
REMARK  8 active torsions:
REMARK  status: ('A' for Active; 'I' for Inactive)
REMARK    1  A    between atoms: C_1  and  C_2
REMARK    2  A    between atoms: C_2  and  C_3
REMARK    3  A    between atoms: C_2  and  C_4
REMARK    4  A    between atoms: C_4  and  C_5
REMARK    5  A    between atoms: C_5  and  N_6
REMARK    6  A    between atoms: N_15  and  C_16
REMARK    7  A    between atoms: C_16  and  C_17
REMARK    8  A    between atoms: N_19  and  C_20
REMARK                            x       y       z     vdW  Elec       q    Type
REMARK                         _______ _______ _______ _____ _____    ______ ____
ROOT
ATOM      1  N   UNL     1       4.787   4.234  18.505  0.00  0.00    +0.000 N 
ATOM      2  C   UNL     1       4.570   3.759  17.216  0.00  0.00    +0.000 A 
ATOM      3  O   UNL     1       3.676   2.971  16.912  0.00  0.00    +0.000 OA
ATOM      4  C   UNL     1       5.501   4.220  16.192  0.00  0.00    +0.000 A 
ATOM      5  C   UNL     1       5.261   3.968  14.837  0.00  0.00    +0.000 A 
ATOM      6  C   UNL     1       6.180   4.411  13.896  0.00  0.00    +0.000 A 
ATOM      7  C   UNL     1       7.322   5.047  14.356  0.00  0.00    +0.000 A 
ATOM      8  N   UNL     1       7.583   5.275  15.666  0.00  0.00    +0.000 NA
ATOM      9  C   UNL     1       6.639   4.909  16.568  0.00  0.00    +0.000 A 
ATOM     10  N   UNL     1       6.812   5.289  17.909  0.00  0.00    +0.000 N 
ATOM     11  C   UNL     1       5.839   5.070  18.866  0.00  0.00    +0.000 A 
ATOM     12  O   UNL     1       5.913   5.567  19.992  0.00  0.00    +0.000 OA
ENDROOT
BRANCH   1  13
ATOM     13  C   UNL     1       3.908   3.759  19.573  0.00  0.00    +0.000 C 
BRANCH  13  14
ATOM     14  C   UNL     1       2.724   4.720  19.749  0.00  0.00    +0.000 C 
BRANCH  14  16
ATOM     15  C   UNL     1       1.099   4.344  17.874  0.00  0.00    +0.000 C 
ATOM     16  C   UNL     1       1.361   4.119  19.366  0.00  0.00    +0.000 C 
ATOM     17  C   UNL     1       1.275   2.624  19.681  0.00  0.00    +0.000 C 
ENDBRANCH  14  16
ENDBRANCH  13  14
ENDBRANCH   1  13
BRANCH  10  18
ATOM     18  C   UNL     1       8.012   6.031  18.300  0.00  0.00    +0.000 C 
BRANCH  18  19
ATOM     19  C   UNL     1       7.888   7.548  18.103  0.00  0.00    +0.000 C 
ATOM     20  O   UNL     1       7.094   8.018  17.288  0.00  0.00    +0.000 OA
ATOM     21  N   UNL     1       8.847   8.310  18.765  0.00  0.00    +0.000 N 
ATOM     22  H   UNL     1       9.698   7.818  19.023  0.00  0.00    +0.000 HD
BRANCH  21  23
ATOM     23  C   UNL     1       8.880   9.724  18.756  0.00  0.00    +0.000 A 
ATOM     24  C   UNL     1       8.414  10.477  17.669  0.00  0.00    +0.000 A 
ATOM     25  C   UNL     1       8.426  11.877  17.726  0.00  0.00    +0.000 A 
ATOM     26  C   UNL     1       8.926  12.516  18.848  0.00  0.00    +0.000 A 
ATOM     27  F   UNL     1       8.948  13.851  18.898  0.00  0.00    +0.000 F 
ATOM     28  C   UNL     1       9.400  11.785  19.931  0.00  0.00    +0.000 A 
ATOM     29  C   UNL     1       9.361  10.386  19.890  0.00  0.00    +0.000 A 
ENDBRANCH  21  23
ENDBRANCH  18  19
ENDBRANCH  10  18
TORSDOF 6
ENDMDL
MODEL 5
REMARK VINA RESULT:      -7.6      4.369      5.565
REMARK  Name = 
REMARK  8 active torsions:
REMARK  status: ('A' for Active; 'I' for Inactive)
REMARK    1  A    between atoms: C_1  and  C_2
REMARK    2  A    between atoms: C_2  and  C_3
REMARK    3  A    between atoms: C_2  and  C_4
REMARK    4  A    between atoms: C_4  and  C_5
REMARK    5  A    between atoms: C_5  and  N_6
REMARK    6  A    between atoms: N_15  and  C_16
REMARK    7  A    between atoms: C_16  and  C_17
REMARK    8  A    between atoms: N_19  and  C_20
REMARK                            x       y       z     vdW  Elec       q    Type
REMARK                         _______ _______ _______ _____ _____    ______ ____
ROOT
ATOM      1  N   UNL     1       3.193   3.734  18.468  0.00  0.00    +0.000 N 
ATOM      2  C   UNL     1       4.534   3.632  18.821  0.00  0.00    +0.000 A 
ATOM      3  O   UNL     1       5.012   2.689  19.450  0.00  0.00    +0.000 OA
ATOM      4  C   UNL     1       5.392   4.746  18.432  0.00  0.00    +0.000 A 
ATOM      5  C   UNL     1       6.783   4.658  18.556  0.00  0.00    +0.000 A 
ATOM      6  C   UNL     1       7.561   5.747  18.188  0.00  0.00    +0.000 A 
ATOM      7  C   UNL     1       6.911   6.891  17.755  0.00  0.00    +0.000 A 
ATOM      8  N   UNL     1       5.564   7.002  17.654  0.00  0.00    +0.000 NA
ATOM      9  C   UNL     1       4.820   5.904  17.940  0.00  0.00    +0.000 A 
ATOM     10  N   UNL     1       3.441   5.944  17.678  0.00  0.00    +0.000 N 
ATOM     11  C   UNL     1       2.635   4.830  17.818  0.00  0.00    +0.000 A 
ATOM     12  O   UNL     1       1.470   4.818  17.413  0.00  0.00    +0.000 OA
ENDROOT
BRANCH   1  13
ATOM     13  C   UNL     1       2.286   2.664  18.882  0.00  0.00    +0.000 C 
BRANCH  13  14
ATOM     14  C   UNL     1       1.109   3.248  19.676  0.00  0.00    +0.000 C 
BRANCH  14  16
ATOM     15  C   UNL     1       2.320   2.451  21.724  0.00  0.00    +0.000 C 
ATOM     16  C   UNL     1       1.432   3.557  21.148  0.00  0.00    +0.000 C 
ATOM     17  C   UNL     1       2.124   4.910  21.320  0.00  0.00    +0.000 C 
ENDBRANCH  14  16
ENDBRANCH  13  14
ENDBRANCH   1  13
BRANCH  10  18
ATOM     18  C   UNL     1       2.843   7.169  17.144  0.00  0.00    +0.000 C 
BRANCH  18  19
ATOM     19  C   UNL     1       2.270   8.095  18.226  0.00  0.00    +0.000 C 
ATOM     20  O   UNL     1       2.294   7.772  19.413  0.00  0.00    +0.000 OA
ATOM     21  N   UNL     1       1.580   9.205  17.747  0.00  0.00    +0.000 N 
ATOM     22  H   UNL     1       1.237   9.133  16.794  0.00  0.00    +0.000 HD
BRANCH  21  23
ATOM     23  C   UNL     1       1.020  10.207  18.575  0.00  0.00    +0.000 A 
ATOM     24  C   UNL     1      -0.157  10.001  19.308  0.00  0.00    +0.000 A 
ATOM     25  C   UNL     1      -0.648  11.008  20.149  0.00  0.00    +0.000 A 
ATOM     26  C   UNL     1       0.017  12.220  20.232  0.00  0.00    +0.000 A 
ATOM     27  F   UNL     1      -0.458  13.185  21.025  0.00  0.00    +0.000 F 
ATOM     28  C   UNL     1       1.181  12.445  19.506  0.00  0.00    +0.000 A 
ATOM     29  C   UNL     1       1.690  11.429  18.688  0.00  0.00    +0.000 A 
ENDBRANCH  21  23
ENDBRANCH  18  19
ENDBRANCH  10  18
TORSDOF 6
ENDMDL
MODEL 6
REMARK VINA RESULT:      -7.4      4.468      5.673
REMARK  Name = 
REMARK  8 active torsions:
REMARK  status: ('A' for Active; 'I' for Inactive)
REMARK    1  A    between atoms: C_1  and  C_2
REMARK    2  A    between atoms: C_2  and  C_3
REMARK    3  A    between atoms: C_2  and  C_4
REMARK    4  A    between atoms: C_4  and  C_5
REMARK    5  A    between atoms: C_5  and  N_6
REMARK    6  A    between atoms: N_15  and  C_16
REMARK    7  A    between atoms: C_16  and  C_17
REMARK    8  A    between atoms: N_19  and  C_20
REMARK                            x       y       z     vdW  Elec       q    Type
REMARK                         _______ _______ _______ _____ _____    ______ ____
ROOT
ATOM      1  N   UNL     1       3.982   4.186  18.475  0.00  0.00    +0.000 N 
ATOM      2  C   UNL     1       5.328   4.308  18.803  0.00  0.00    +0.000 A 
ATOM      3  O   UNL     1       5.958   3.476  19.452  0.00  0.00    +0.000 OA
ATOM      4  C   UNL     1       5.992   5.529  18.361  0.00  0.00    +0.000 A 
ATOM      5  C   UNL     1       7.381   5.666  18.460  0.00  0.00    +0.000 A 
ATOM      6  C   UNL     1       7.972   6.851  18.041  0.00  0.00    +0.000 A 
ATOM      7  C   UNL     1       7.143   7.862  17.585  0.00  0.00    +0.000 A 
ATOM      8  N   UNL     1       5.794   7.756  17.509  0.00  0.00    +0.000 NA
ATOM      9  C   UNL     1       5.238   6.566  17.844  0.00  0.00    +0.000 A 
ATOM     10  N   UNL     1       3.865   6.378  17.610  0.00  0.00    +0.000 N 
ATOM     11  C   UNL     1       3.248   5.157  17.803  0.00  0.00    +0.000 A 
ATOM     12  O   UNL     1       2.094   4.947  17.422  0.00  0.00    +0.000 OA
ENDROOT
BRANCH   1  13
ATOM     13  C   UNL     1       3.262   3.001  18.942  0.00  0.00    +0.000 C 
BRANCH  13  14
ATOM     14  C   UNL     1       2.830   3.188  20.404  0.00  0.00    +0.000 C 
BRANCH  14  16
ATOM     15  C   UNL     1       0.979   4.863  20.655  0.00  0.00    +0.000 C 
ATOM     16  C   UNL     1       1.315   3.370  20.595  0.00  0.00    +0.000 C 
ATOM     17  C   UNL     1       0.504   2.709  19.480  0.00  0.00    +0.000 C 
ENDBRANCH  14  16
ENDBRANCH  13  14
ENDBRANCH   1  13
BRANCH  10  18
ATOM     18  C   UNL     1       3.073   7.474  17.050  0.00  0.00    +0.000 C 
BRANCH  18  19
ATOM     19  C   UNL     1       2.323   8.294  18.109  0.00  0.00    +0.000 C 
ATOM     20  O   UNL     1       2.243   7.902  19.273  0.00  0.00    +0.000 OA
ATOM     21  N   UNL     1       1.610   9.384  17.616  0.00  0.00    +0.000 N 
ATOM     22  H   UNL     1       1.377   9.346  16.628  0.00  0.00    +0.000 HD
BRANCH  21  23
ATOM     23  C   UNL     1       0.895  10.295  18.428  0.00  0.00    +0.000 A 
ATOM     24  C   UNL     1      -0.460  10.115  18.741  0.00  0.00    +0.000 A 
ATOM     25  C   UNL     1      -1.113  11.021  19.586  0.00  0.00    +0.000 A 
ATOM     26  C   UNL     1      -0.426  12.112  20.089  0.00  0.00    +0.000 A 
ATOM     27  F   UNL     1      -1.052  12.983  20.886  0.00  0.00    +0.000 F 
ATOM     28  C   UNL     1       0.916  12.311  19.783  0.00  0.00    +0.000 A 
ATOM     29  C   UNL     1       1.579  11.391  18.963  0.00  0.00    +0.000 A 
ENDBRANCH  21  23
ENDBRANCH  18  19
ENDBRANCH  10  18
TORSDOF 6
ENDMDL
MODEL 7
REMARK VINA RESULT:      -7.4      3.521      6.611
REMARK  Name = 
REMARK  8 active torsions:
REMARK  status: ('A' for Active; 'I' for Inactive)
REMARK    1  A    between atoms: C_1  and  C_2
REMARK    2  A    between atoms: C_2  and  C_3
REMARK    3  A    between atoms: C_2  and  C_4
REMARK    4  A    between atoms: C_4  and  C_5
REMARK    5  A    between atoms: C_5  and  N_6
REMARK    6  A    between atoms: N_15  and  C_16
REMARK    7  A    between atoms: C_16  and  C_17
REMARK    8  A    between atoms: N_19  and  C_20
REMARK                            x       y       z     vdW  Elec       q    Type
REMARK                         _______ _______ _______ _____ _____    ______ ____
ROOT
ATOM      1  N   UNL     1       5.528   4.750  15.284  0.00  0.00    +0.000 N 
ATOM      2  C   UNL     1       6.735   5.310  15.688  0.00  0.00    +0.000 A 
ATOM      3  O   UNL     1       7.646   5.615  14.920  0.00  0.00    +0.000 OA
ATOM      4  C   UNL     1       6.911   5.502  17.123  0.00  0.00    +0.000 A 
ATOM      5  C   UNL     1       7.993   6.235  17.622  0.00  0.00    +0.000 A 
ATOM      6  C   UNL     1       8.130   6.381  18.996  0.00  0.00    +0.000 A 
ATOM      7  C   UNL     1       7.205   5.749  19.810  0.00  0.00    +0.000 A 
ATOM      8  N   UNL     1       6.167   5.013  19.344  0.00  0.00    +0.000 NA
ATOM      9  C   UNL     1       5.998   4.946  18.000  0.00  0.00    +0.000 A 
ATOM     10  N   UNL     1       4.836   4.334  17.501  0.00  0.00    +0.000 N 
ATOM     11  C   UNL     1       4.525   4.338  16.155  0.00  0.00    +0.000 A 
ATOM     12  O   UNL     1       3.423   3.968  15.743  0.00  0.00    +0.000 OA
ENDROOT
BRANCH   1  13
ATOM     13  C   UNL     1       5.330   4.492  13.857  0.00  0.00    +0.000 C 
BRANCH  13  14
ATOM     14  C   UNL     1       6.177   3.291  13.416  0.00  0.00    +0.000 C 
BRANCH  14  16
ATOM     15  C   UNL     1       4.549   3.384  11.508  0.00  0.00    +0.000 C 
ATOM     16  C   UNL     1       5.606   2.526  12.209  0.00  0.00    +0.000 C 
ATOM     17  C   UNL     1       6.690   2.130  11.205  0.00  0.00    +0.000 C 
ENDBRANCH  14  16
ENDBRANCH  13  14
ENDBRANCH   1  13
BRANCH  10  18
ATOM     18  C   UNL     1       3.867   3.759  18.435  0.00  0.00    +0.000 C 
BRANCH  18  19
ATOM     19  C   UNL     1       2.765   4.740  18.859  0.00  0.00    +0.000 C 
ATOM     20  O   UNL     1       1.580   4.405  18.848  0.00  0.00    +0.000 OA
ATOM     21  N   UNL     1       3.189   6.049  19.070  0.00  0.00    +0.000 N 
ATOM     22  H   UNL     1       4.064   6.306  18.621  0.00  0.00    +0.000 HD
BRANCH  21  23
ATOM     23  C   UNL     1       2.344   7.094  19.514  0.00  0.00    +0.000 A 
ATOM     24  C   UNL     1       1.822   7.134  20.814  0.00  0.00    +0.000 A 
ATOM     25  C   UNL     1       1.027   8.213  21.221  0.00  0.00    +0.000 A 
ATOM     26  C   UNL     1       0.733   9.227  20.325  0.00  0.00    +0.000 A 
ATOM     27  F   UNL     1      -0.035  10.251  20.709  0.00  0.00    +0.000 F 
ATOM     28  C   UNL     1       1.235   9.200  19.029  0.00  0.00    +0.000 A 
ATOM     29  C   UNL     1       2.055   8.138  18.630  0.00  0.00    +0.000 A 
ENDBRANCH  21  23
ENDBRANCH  18  19
ENDBRANCH  10  18
TORSDOF 6
ENDMDL
MODEL 8
REMARK VINA RESULT:      -7.3      4.184      6.498
REMARK  Name = 
REMARK  8 active torsions:
REMARK  status: ('A' for Active; 'I' for Inactive)
REMARK    1  A    between atoms: C_1  and  C_2
REMARK    2  A    between atoms: C_2  and  C_3
REMARK    3  A    between atoms: C_2  and  C_4
REMARK    4  A    between atoms: C_4  and  C_5
REMARK    5  A    between atoms: C_5  and  N_6
REMARK    6  A    between atoms: N_15  and  C_16
REMARK    7  A    between atoms: C_16  and  C_17
REMARK    8  A    between atoms: N_19  and  C_20
REMARK                            x       y       z     vdW  Elec       q    Type
REMARK                         _______ _______ _______ _____ _____    ______ ____
ROOT
ATOM      1  N   UNL     1       2.851   6.607  18.393  0.00  0.00    +0.000 N 
ATOM      2  C   UNL     1       2.250   5.554  19.074  0.00  0.00    +0.000 A 
ATOM      3  O   UNL     1       1.078   5.550  19.444  0.00  0.00    +0.000 OA
ATOM      4  C   UNL     1       3.105   4.412  19.381  0.00  0.00    +0.000 A 
ATOM      5  C   UNL     1       2.562   3.223  19.881  0.00  0.00    +0.000 A 
ATOM      6  C   UNL     1       3.413   2.166  20.173  0.00  0.00    +0.000 A 
ATOM      7  C   UNL     1       4.773   2.361  19.997  0.00  0.00    +0.000 A 
ATOM      8  N   UNL     1       5.317   3.515  19.540  0.00  0.00    +0.000 NA
ATOM      9  C   UNL     1       4.469   4.510  19.181  0.00  0.00    +0.000 A 
ATOM     10  N   UNL     1       5.000   5.646  18.547  0.00  0.00    +0.000 N 
ATOM     11  C   UNL     1       4.194   6.645  18.035  0.00  0.00    +0.000 A 
ATOM     12  O   UNL     1       4.649   7.541  17.321  0.00  0.00    +0.000 OA
ENDROOT
BRANCH   1  13
ATOM     13  C   UNL     1       2.045   7.795  18.109  0.00  0.00    +0.000 C 
BRANCH  13  14
ATOM     14  C   UNL     1       2.044   8.734  19.323  0.00  0.00    +0.000 C 
BRANCH  14  16
ATOM     15  C   UNL     1       0.193   9.736  17.956  0.00  0.00    +0.000 C 
ATOM     16  C   UNL     1       0.937   9.802  19.293  0.00  0.00    +0.000 C 
ATOM     17  C   UNL     1      -0.060   9.638  20.442  0.00  0.00    +0.000 C 
ENDBRANCH  14  16
ENDBRANCH  13  14
ENDBRANCH   1  13
BRANCH  10  18
ATOM     18  C   UNL     1       6.444   5.739  18.326  0.00  0.00    +0.000 C 
BRANCH  18  19
ATOM     19  C   UNL     1       6.912   5.066  17.028  0.00  0.00    +0.000 C 
ATOM     20  O   UNL     1       7.867   4.290  17.026  0.00  0.00    +0.000 OA
ATOM     21  N   UNL     1       6.303   5.534  15.867  0.00  0.00    +0.000 N 
ATOM     22  H   UNL     1       5.885   6.458  15.932  0.00  0.00    +0.000 HD
BRANCH  21  23
ATOM     23  C   UNL     1       6.554   5.014  14.576  0.00  0.00    +0.000 A 
ATOM     24  C   UNL     1       7.596   5.489  13.766  0.00  0.00    +0.000 A 
ATOM     25  C   UNL     1       7.833   4.910  12.513  0.00  0.00    +0.000 A 
ATOM     26  C   UNL     1       7.017   3.888  12.061  0.00  0.00    +0.000 A 
ATOM     27  F   UNL     1       7.235   3.343  10.861  0.00  0.00    +0.000 F 
ATOM     28  C   UNL     1       5.974   3.410  12.847  0.00  0.00    +0.000 A 
ATOM     29  C   UNL     1       5.754   3.965  14.113  0.00  0.00    +0.000 A 
ENDBRANCH  21  23
ENDBRANCH  18  19
ENDBRANCH  10  18
TORSDOF 6
ENDMDL
MODEL 9
REMARK VINA RESULT:      -7.3      4.554      5.946
REMARK  Name = 
REMARK  8 active torsions:
REMARK  status: ('A' for Active; 'I' for Inactive)
REMARK    1  A    between atoms: C_1  and  C_2
REMARK    2  A    between atoms: C_2  and  C_3
REMARK    3  A    between atoms: C_2  and  C_4
REMARK    4  A    between atoms: C_4  and  C_5
REMARK    5  A    between atoms: C_5  and  N_6
REMARK    6  A    between atoms: N_15  and  C_16
REMARK    7  A    between atoms: C_16  and  C_17
REMARK    8  A    between atoms: N_19  and  C_20
REMARK                            x       y       z     vdW  Elec       q    Type
REMARK                         _______ _______ _______ _____ _____    ______ ____
ROOT
ATOM      1  N   UNL     1       3.830   4.280  18.528  0.00  0.00    +0.000 N 
ATOM      2  C   UNL     1       5.189   4.341  18.812  0.00  0.00    +0.000 A 
ATOM      3  O   UNL     1       5.802   3.482  19.444  0.00  0.00    +0.000 OA
ATOM      4  C   UNL     1       5.895   5.528  18.342  0.00  0.00    +0.000 A 
ATOM      5  C   UNL     1       7.291   5.601  18.395  0.00  0.00    +0.000 A 
ATOM      6  C   UNL     1       7.922   6.755  17.951  0.00  0.00    +0.000 A 
ATOM      7  C   UNL     1       7.126   7.803  17.517  0.00  0.00    +0.000 A 
ATOM      8  N   UNL     1       5.772   7.758  17.485  0.00  0.00    +0.000 NA
ATOM      9  C   UNL     1       5.173   6.597  17.844  0.00  0.00    +0.000 A 
ATOM     10  N   UNL     1       3.786   6.472  17.656  0.00  0.00    +0.000 N 
ATOM     11  C   UNL     1       3.119   5.281  17.874  0.00  0.00    +0.000 A 
ATOM     12  O   UNL     1       1.945   5.124  17.532  0.00  0.00    +0.000 OA
ENDROOT
BRANCH   1  13
ATOM     13  C   UNL     1       3.071   3.131  19.024  0.00  0.00    +0.000 C 
BRANCH  13  14
ATOM     14  C   UNL     1       2.946   3.202  20.552  0.00  0.00    +0.000 C 
BRANCH  14  16
ATOM     15  C   UNL     1       0.523   3.134  19.906  0.00  0.00    +0.000 C 
ATOM     16  C   UNL     1       1.503   3.362  21.060  0.00  0.00    +0.000 C 
ATOM     17  C   UNL     1       1.178   2.399  22.203  0.00  0.00    +0.000 C 
ENDBRANCH  14  16
ENDBRANCH  13  14
ENDBRANCH   1  13
BRANCH  10  18
ATOM     18  C   UNL     1       3.028   7.601  17.116  0.00  0.00    +0.000 C 
BRANCH  18  19
ATOM     19  C   UNL     1       2.196   8.344  18.171  0.00  0.00    +0.000 C 
ATOM     20  O   UNL     1       2.131   7.933  19.329  0.00  0.00    +0.000 OA
ATOM     21  N   UNL     1       1.403   9.376  17.678  0.00  0.00    +0.000 N 
ATOM     22  H   UNL     1       1.188   9.331  16.686  0.00  0.00    +0.000 HD
BRANCH  21  23
ATOM     23  C   UNL     1       0.602  10.215  18.488  0.00  0.00    +0.000 A 
ATOM     24  C   UNL     1       1.150  11.061  19.463  0.00  0.00    +0.000 A 
ATOM     25  C   UNL     1       0.319  11.907  20.208  0.00  0.00    +0.000 A 
ATOM     26  C   UNL     1      -1.049  11.886  20.000  0.00  0.00    +0.000 A 
ATOM     27  F   UNL     1      -1.843  12.684  20.720  0.00  0.00    +0.000 F 
ATOM     28  C   UNL     1      -1.611  11.048  19.044  0.00  0.00    +0.000 A 
ATOM     29  C   UNL     1      -0.780  10.223  18.276  0.00  0.00    +0.000 A 
ENDBRANCH  21  23
ENDBRANCH  18  19
ENDBRANCH  10  18
TORSDOF 6
ENDMDL
