MODEL 1
REMARK VINA RESULT:      -8.1      0.000      0.000
REMARK  Name = 
REMARK  9 active torsions:
REMARK  status: ('A' for Active; 'I' for Inactive)
REMARK    1  A    between atoms: N_1  and  C_2
REMARK    2  A    between atoms: C_2  and  C_3
REMARK    3  A    between atoms: C_3  and  C_4
REMARK    4  A    between atoms: C_4  and  C_5
REMARK    5  A    between atoms: C_8  and  C_9
REMARK    6  A    between atoms: C_9  and  C_10
REMARK    7  A    between atoms: N_18  and  C_19
REMARK    8  A    between atoms: C_19  and  C_20
REMARK    9  A    between atoms: C_20  and  C_21
REMARK                            x       y       z     vdW  Elec       q    Type
REMARK                         _______ _______ _______ _____ _____    ______ ____
ROOT
ATOM      1  C   UNL     1       2.051   3.415  18.770  0.00  0.00    +0.000 A 
ATOM      2  N   UNL     1       2.517   2.189  18.664  0.00  0.00    +0.000 NA
ATOM      3  N   UNL     1       3.499   2.188  17.724  0.00  0.00    +0.000 NA
ATOM      4  C   UNL     1       3.640   3.415  17.255  0.00  0.00    +0.000 A 
ATOM      5  N   UNL     1       2.673   4.217  17.825  0.00  0.00    +0.000 N 
ENDROOT
BRANCH   1   6
ATOM      6  C   UNL     1       1.066   3.846  19.807  0.00  0.00    +0.000 C 
BRANCH   6   7
ATOM      7  C   UNL     1       1.753   4.234  21.124  0.00  0.00    +0.000 C 
BRANCH   7   8
ATOM      8  C   UNL     1       1.932   3.075  22.106  0.00  0.00    +0.000 C 
BRANCH   8   9
ATOM      9  N   UNL     1       3.108   2.269  21.781  0.00  0.00    +0.000 NA
ATOM     10  H   UNL     1       3.502   1.905  22.650  0.00  0.00    +0.000 HD
ATOM     11  H   UNL     1       3.829   2.879  21.393  0.00  0.00    +0.000 HD
ENDBRANCH   8   9
ENDBRANCH   7   8
ENDBRANCH   6   7
ENDBRANCH   1   6
BRANCH   4  12
ATOM     12  C   UNL     1       4.742   3.802  16.325  0.00  0.00    +0.000 C 
BRANCH  12  13
ATOM     13  C   UNL     1       5.644   4.903  16.854  0.00  0.00    +0.000 A 
ATOM     14  C   UNL     1       5.724   6.153  16.222  0.00  0.00    +0.000 A 
ATOM     15  C   UNL     1       6.554   7.159  16.724  0.00  0.00    +0.000 A 
ATOM     16  C   UNL     1       7.301   6.940  17.883  0.00  0.00    +0.000 A 
ATOM     17 CL   UNL     1       8.338   8.211  18.425  0.00  0.00    +0.000 Cl
ATOM     18  C   UNL     1       7.191   5.719  18.555  0.00  0.00    +0.000 A 
ATOM     19 CL   UNL     1       8.054   5.385  20.016  0.00  0.00    +0.000 Cl
ATOM     20  C   UNL     1       6.362   4.710  18.046  0.00  0.00    +0.000 A 
ENDBRANCH  12  13
ENDBRANCH   4  12
BRANCH   5  21
ATOM     21  C   UNL     1       2.381   5.625  17.624  0.00  0.00    +0.000 C 
BRANCH  21  22
ATOM     22  C   UNL     1       2.974   6.668  18.583  0.00  0.00    +0.000 C 
BRANCH  22  23
ATOM     23  C   UNL     1       2.255   7.980  18.639  0.00  0.00    +0.000 A 
ATOM     24  C   UNL     1       2.110   8.890  17.605  0.00  0.00    +0.000 A 
ATOM     25  N   UNL     1       1.362   9.944  18.051  0.00  0.00    +0.000 N 
ATOM     26  C   UNL     1       0.928   9.708  19.333  0.00  0.00    +0.000 A 
ATOM     27  C   UNL     1       0.063  10.461  20.132  0.00  0.00    +0.000 A 
ATOM     28  C   UNL     1      -0.226   9.975  21.410  0.00  0.00    +0.000 A 
ATOM     29  C   UNL     1       0.376   8.811  21.881  0.00  0.00    +0.000 A 
ATOM     30  C   UNL     1       1.253   8.075  21.069  0.00  0.00    +0.000 A 
ATOM     31  C   UNL     1       1.511   8.512  19.751  0.00  0.00    +0.000 A 
ATOM     32  H   UNL     1       1.125  10.761  17.508  0.00  0.00    +0.000 HD
ENDBRANCH  22  23
ENDBRANCH  21  22
ENDBRANCH   5  21
TORSDOF 9
ENDMDL
MODEL 2
REMARK VINA RESULT:      -8.0      2.715      4.772
REMARK  Name = 
REMARK  9 active torsions:
REMARK  status: ('A' for Active; 'I' for Inactive)
REMARK    1  A    between atoms: N_1  and  C_2
REMARK    2  A    between atoms: C_2  and  C_3
REMARK    3  A    between atoms: C_3  and  C_4
REMARK    4  A    between atoms: C_4  and  C_5
REMARK    5  A    between atoms: C_8  and  C_9
REMARK    6  A    between atoms: C_9  and  C_10
REMARK    7  A    between atoms: N_18  and  C_19
REMARK    8  A    between atoms: C_19  and  C_20
REMARK    9  A    between atoms: C_20  and  C_21
REMARK                            x       y       z     vdW  Elec       q    Type
REMARK                         _______ _______ _______ _____ _____    ______ ____
ROOT
ATOM      1  C   UNL     1       6.728   5.870  16.742  0.00  0.00    +0.000 A 
ATOM      2  N   UNL     1       7.155   4.987  15.863  0.00  0.00    +0.000 NA
ATOM      3  N   UNL     1       6.169   4.071  15.669  0.00  0.00    +0.000 NA
ATOM      4  C   UNL     1       5.135   4.394  16.426  0.00  0.00    +0.000 A 
ATOM      5  N   UNL     1       5.478   5.482  17.200  0.00  0.00    +0.000 N 
ENDROOT
BRANCH   1   6
ATOM      6  C   UNL     1       7.472   7.114  17.101  0.00  0.00    +0.000 C 
BRANCH   6   7
ATOM      7  C   UNL     1       8.065   7.038  18.515  0.00  0.00    +0.000 C 
BRANCH   7   8
ATOM      8  C   UNL     1       8.224   5.616  19.056  0.00  0.00    +0.000 C 
BRANCH   8   9
ATOM      9  N   UNL     1       7.942   5.549  20.489  0.00  0.00    +0.000 NA
ATOM     10  H   UNL     1       8.183   4.616  20.824  0.00  0.00    +0.000 HD
ATOM     11  H   UNL     1       6.935   5.635  20.632  0.00  0.00    +0.000 HD
ENDBRANCH   8   9
ENDBRANCH   7   8
ENDBRANCH   6   7
ENDBRANCH   1   6
BRANCH   4  12
ATOM     12  C   UNL     1       3.820   3.691  16.336  0.00  0.00    +0.000 C 
BRANCH  12  13
ATOM     13  C   UNL     1       3.182   3.391  17.681  0.00  0.00    +0.000 A 
ATOM     14  C   UNL     1       1.820   3.627  17.917  0.00  0.00    +0.000 A 
ATOM     15  C   UNL     1       1.245   3.340  19.158  0.00  0.00    +0.000 A 
ATOM     16  C   UNL     1       2.020   2.787  20.179  0.00  0.00    +0.000 A 
ATOM     17 CL   UNL     1       1.257   2.495  21.700  0.00  0.00    +0.000 Cl
ATOM     18  C   UNL     1       3.367   2.494  19.943  0.00  0.00    +0.000 A 
ATOM     19 CL   UNL     1       4.382   1.774  21.143  0.00  0.00    +0.000 Cl
ATOM     20  C   UNL     1       3.941   2.789  18.699  0.00  0.00    +0.000 A 
ENDBRANCH  12  13
ENDBRANCH   4  12
BRANCH   5  21
ATOM     21  C   UNL     1       4.716   6.197  18.207  0.00  0.00    +0.000 C 
BRANCH  21  22
ATOM     22  C   UNL     1       3.470   6.994  17.793  0.00  0.00    +0.000 C 
BRANCH  22  23
ATOM     23  C   UNL     1       2.565   7.410  18.911  0.00  0.00    +0.000 A 
ATOM     24  C   UNL     1       2.338   6.723  20.092  0.00  0.00    +0.000 A 
ATOM     25  N   UNL     1       1.473   7.449  20.862  0.00  0.00    +0.000 N 
ATOM     26  C   UNL     1       1.193   8.650  20.256  0.00  0.00    +0.000 A 
ATOM     27  C   UNL     1       0.445   9.733  20.729  0.00  0.00    +0.000 A 
ATOM     28  C   UNL     1       0.332  10.852  19.900  0.00  0.00    +0.000 A 
ATOM     29  C   UNL     1       0.900  10.856  18.629  0.00  0.00    +0.000 A 
ATOM     30  C   UNL     1       1.636   9.755  18.165  0.00  0.00    +0.000 A 
ATOM     31  C   UNL     1       1.818   8.637  19.009  0.00  0.00    +0.000 A 
ATOM     32  H   UNL     1       1.120   7.169  21.765  0.00  0.00    +0.000 HD
ENDBRANCH  22  23
ENDBRANCH  21  22
ENDBRANCH   5  21
TORSDOF 9
ENDMDL
MODEL 3
REMARK VINA RESULT:      -7.7      2.915      6.282
REMARK  Name = 
REMARK  9 active torsions:
REMARK  status: ('A' for Active; 'I' for Inactive)
REMARK    1  A    between atoms: N_1  and  C_2
REMARK    2  A    between atoms: C_2  and  C_3
REMARK    3  A    between atoms: C_3  and  C_4
REMARK    4  A    between atoms: C_4  and  C_5
REMARK    5  A    between atoms: C_8  and  C_9
REMARK    6  A    between atoms: C_9  and  C_10
REMARK    7  A    between atoms: N_18  and  C_19
REMARK    8  A    between atoms: C_19  and  C_20
REMARK    9  A    between atoms: C_20  and  C_21
REMARK                            x       y       z     vdW  Elec       q    Type
REMARK                         _______ _______ _______ _____ _____    ______ ____
ROOT
ATOM      1  C   UNL     1       2.493   3.856  18.468  0.00  0.00    +0.000 A 
ATOM      2  N   UNL     1       1.489   4.128  17.663  0.00  0.00    +0.000 NA
ATOM      3  N   UNL     1       1.500   5.464  17.408  0.00  0.00    +0.000 NA
ATOM      4  C   UNL     1       2.514   6.011  18.054  0.00  0.00    +0.000 A 
ATOM      5  N   UNL     1       3.123   5.040  18.821  0.00  0.00    +0.000 N 
ENDROOT
BRANCH   1   6
ATOM      6  C   UNL     1       2.899   2.471  18.854  0.00  0.00    +0.000 C 
BRANCH   6   7
ATOM      7  C   UNL     1       1.883   1.821  19.804  0.00  0.00    +0.000 C 
BRANCH   7   8
ATOM      8  C   UNL     1       1.465   2.705  20.980  0.00  0.00    +0.000 C 
BRANCH   8   9
ATOM      9  N   UNL     1       2.503   2.758  22.010  0.00  0.00    +0.000 NA
ATOM     10  H   UNL     1       3.045   3.613  21.881  0.00  0.00    +0.000 HD
ATOM     11  H   UNL     1       3.163   1.995  21.853  0.00  0.00    +0.000 HD
ENDBRANCH   8   9
ENDBRANCH   7   8
ENDBRANCH   6   7
ENDBRANCH   1   6
BRANCH   4  12
ATOM     12  C   UNL     1       2.915   7.437  17.865  0.00  0.00    +0.000 C 
BRANCH  12  13
ATOM     13  C   UNL     1       2.015   8.435  18.573  0.00  0.00    +0.000 A 
ATOM     14  C   UNL     1       1.364   9.462  17.873  0.00  0.00    +0.000 A 
ATOM     15  C   UNL     1       0.534  10.369  18.537  0.00  0.00    +0.000 A 
ATOM     16  C   UNL     1       0.320  10.249  19.911  0.00  0.00    +0.000 A 
ATOM     17 CL   UNL     1      -0.684  11.428  20.675  0.00  0.00    +0.000 Cl
ATOM     18  C   UNL     1       0.917   9.198  20.614  0.00  0.00    +0.000 A 
ATOM     19 CL   UNL     1       0.670   8.960  22.308  0.00  0.00    +0.000 Cl
ATOM     20  C   UNL     1       1.753   8.294  19.946  0.00  0.00    +0.000 A 
ENDBRANCH  12  13
ENDBRANCH   4  12
BRANCH   5  21
ATOM     21  C   UNL     1       4.252   5.130  19.729  0.00  0.00    +0.000 C 
BRANCH  21  22
ATOM     22  C   UNL     1       5.612   4.552  19.310  0.00  0.00    +0.000 C 
BRANCH  22  23
ATOM     23  C   UNL     1       6.232   5.168  18.095  0.00  0.00    +0.000 A 
ATOM     24  C   UNL     1       7.131   6.220  18.067  0.00  0.00    +0.000 A 
ATOM     25  N   UNL     1       7.483   6.463  16.769  0.00  0.00    +0.000 N 
ATOM     26  C   UNL     1       6.905   5.530  15.940  0.00  0.00    +0.000 A 
ATOM     27  C   UNL     1       7.071   5.338  14.565  0.00  0.00    +0.000 A 
ATOM     28  C   UNL     1       6.366   4.290  13.969  0.00  0.00    +0.000 A 
ATOM     29  C   UNL     1       5.488   3.507  14.716  0.00  0.00    +0.000 A 
ATOM     30  C   UNL     1       5.324   3.724  16.092  0.00  0.00    +0.000 A 
ATOM     31  C   UNL     1       6.074   4.736  16.730  0.00  0.00    +0.000 A 
ATOM     32  H   UNL     1       8.107   7.192  16.460  0.00  0.00    +0.000 HD
ENDBRANCH  22  23
ENDBRANCH  21  22
ENDBRANCH   5  21
TORSDOF 9
ENDMDL
MODEL 4
REMARK VINA RESULT:      -7.6      3.213      5.306
REMARK  Name = 
REMARK  9 active torsions:
REMARK  status: ('A' for Active; 'I' for Inactive)
REMARK    1  A    between atoms: N_1  and  C_2
REMARK    2  A    between atoms: C_2  and  C_3
REMARK    3  A    between atoms: C_3  and  C_4
REMARK    4  A    between atoms: C_4  and  C_5
REMARK    5  A    between atoms: C_8  and  C_9
REMARK    6  A    between atoms: C_9  and  C_10
REMARK    7  A    between atoms: N_18  and  C_19
REMARK    8  A    between atoms: C_19  and  C_20
REMARK    9  A    between atoms: C_20  and  C_21
REMARK                            x       y       z     vdW  Elec       q    Type
REMARK                         _______ _______ _______ _____ _____    ______ ____
ROOT
ATOM      1  C   UNL     1       6.947   6.627  17.321  0.00  0.00    +0.000 A 
ATOM      2  N   UNL     1       7.811   5.642  17.437  0.00  0.00    +0.000 NA
ATOM      3  N   UNL     1       7.127   4.468  17.376  0.00  0.00    +0.000 NA
ATOM      4  C   UNL     1       5.842   4.734  17.219  0.00  0.00    +0.000 A 
ATOM      5  N   UNL     1       5.665   6.101  17.273  0.00  0.00    +0.000 N 
ENDROOT
BRANCH   1   6
ATOM      6  C   UNL     1       7.334   8.064  17.191  0.00  0.00    +0.000 C 
BRANCH   6   7
ATOM      7  C   UNL     1       8.315   8.494  18.291  0.00  0.00    +0.000 C 
BRANCH   7   8
ATOM      8  C   UNL     1       8.580  10.000  18.345  0.00  0.00    +0.000 C 
BRANCH   8   9
ATOM      9  N   UNL     1       9.672  10.323  19.262  0.00  0.00    +0.000 NA
ATOM     10  H   UNL     1      10.267   9.499  19.361  0.00  0.00    +0.000 HD
ATOM     11  H   UNL     1       9.284  10.487  20.192  0.00  0.00    +0.000 HD
ENDBRANCH   8   9
ENDBRANCH   7   8
ENDBRANCH   6   7
ENDBRANCH   1   6
BRANCH   4  12
ATOM     12  C   UNL     1       4.826   3.672  16.953  0.00  0.00    +0.000 C 
BRANCH  12  13
ATOM     13  C   UNL     1       3.966   3.319  18.155  0.00  0.00    +0.000 A 
ATOM     14  C   UNL     1       4.500   3.273  19.451  0.00  0.00    +0.000 A 
ATOM     15  C   UNL     1       3.695   2.952  20.548  0.00  0.00    +0.000 A 
ATOM     16  C   UNL     1       2.335   2.696  20.369  0.00  0.00    +0.000 A 
ATOM     17 CL   UNL     1       1.407   2.266  21.761  0.00  0.00    +0.000 Cl
ATOM     18  C   UNL     1       1.776   2.792  19.091  0.00  0.00    +0.000 A 
ATOM     19 CL   UNL     1       0.093   2.528  18.794  0.00  0.00    +0.000 Cl
ATOM     20  C   UNL     1       2.587   3.108  17.993  0.00  0.00    +0.000 A 
ENDBRANCH  12  13
ENDBRANCH   4  12
BRANCH   5  21
ATOM     21  C   UNL     1       4.454   6.896  17.184  0.00  0.00    +0.000 C 
BRANCH  21  22
ATOM     22  C   UNL     1       3.444   6.873  18.342  0.00  0.00    +0.000 C 
BRANCH  22  23
ATOM     23  C   UNL     1       2.518   8.047  18.417  0.00  0.00    +0.000 A 
ATOM     24  C   UNL     1       2.221   8.935  17.396  0.00  0.00    +0.000 A 
ATOM     25  N   UNL     1       1.309   9.843  17.856  0.00  0.00    +0.000 N 
ATOM     26  C   UNL     1       0.924   9.520  19.135  0.00  0.00    +0.000 A 
ATOM     27  C   UNL     1      -0.053  10.108  19.945  0.00  0.00    +0.000 A 
ATOM     28  C   UNL     1      -0.254   9.563  21.215  0.00  0.00    +0.000 A 
ATOM     29  C   UNL     1       0.534   8.508  21.670  0.00  0.00    +0.000 A 
ATOM     30  C   UNL     1       1.520   7.940  20.848  0.00  0.00    +0.000 A 
ATOM     31  C   UNL     1       1.698   8.432  19.537  0.00  0.00    +0.000 A 
ATOM     32  H   UNL     1       0.938  10.616  17.326  0.00  0.00    +0.000 HD
ENDBRANCH  22  23
ENDBRANCH  21  22
ENDBRANCH   5  21
TORSDOF 9
ENDMDL
MODEL 5
REMARK VINA RESULT:      -7.5      2.331      3.034
REMARK  Name = 
REMARK  9 active torsions:
REMARK  status: ('A' for Active; 'I' for Inactive)
REMARK    1  A    between atoms: N_1  and  C_2
REMARK    2  A    between atoms: C_2  and  C_3
REMARK    3  A    between atoms: C_3  and  C_4
REMARK    4  A    between atoms: C_4  and  C_5
REMARK    5  A    between atoms: C_8  and  C_9
REMARK    6  A    between atoms: C_9  and  C_10
REMARK    7  A    between atoms: N_18  and  C_19
REMARK    8  A    between atoms: C_19  and  C_20
REMARK    9  A    between atoms: C_20  and  C_21
REMARK                            x       y       z     vdW  Elec       q    Type
REMARK                         _______ _______ _______ _____ _____    ______ ____
ROOT
ATOM      1  C   UNL     1       3.258   4.111  19.979  0.00  0.00    +0.000 A 
ATOM      2  N   UNL     1       4.183   3.183  20.111  0.00  0.00    +0.000 NA
ATOM      3  N   UNL     1       5.233   3.515  19.314  0.00  0.00    +0.000 NA
ATOM      4  C   UNL     1       4.955   4.649  18.695  0.00  0.00    +0.000 A 
ATOM      5  N   UNL     1       3.666   5.021  19.015  0.00  0.00    +0.000 N 
ENDROOT
BRANCH   1   6
ATOM      6  C   UNL     1       2.018   4.176  20.809  0.00  0.00    +0.000 C 
BRANCH   6   7
ATOM      7  C   UNL     1       1.076   2.997  20.523  0.00  0.00    +0.000 C 
BRANCH   7   8
ATOM      8  C   UNL     1       0.868   2.705  19.036  0.00  0.00    +0.000 C 
BRANCH   8   9
ATOM      9  N   UNL     1       1.639   1.540  18.603  0.00  0.00    +0.000 NA
ATOM     10  H   UNL     1       2.380   1.857  17.976  0.00  0.00    +0.000 HD
ATOM     11  H   UNL     1       1.041   0.942  18.031  0.00  0.00    +0.000 HD
ENDBRANCH   8   9
ENDBRANCH   7   8
ENDBRANCH   6   7
ENDBRANCH   1   6
BRANCH   4  12
ATOM     12  C   UNL     1       5.958   5.382  17.867  0.00  0.00    +0.000 C 
BRANCH  12  13
ATOM     13  C   UNL     1       6.046   4.903  16.427  0.00  0.00    +0.000 A 
ATOM     14  C   UNL     1       5.095   4.024  15.888  0.00  0.00    +0.000 A 
ATOM     15  C   UNL     1       5.186   3.597  14.560  0.00  0.00    +0.000 A 
ATOM     16  C   UNL     1       6.215   4.064  13.741  0.00  0.00    +0.000 A 
ATOM     17 CL   UNL     1       6.291   3.465  12.122  0.00  0.00    +0.000 Cl
ATOM     18  C   UNL     1       7.138   4.984  14.247  0.00  0.00    +0.000 A 
ATOM     19 CL   UNL     1       8.417   5.637  13.286  0.00  0.00    +0.000 Cl
ATOM     20  C   UNL     1       7.048   5.405  15.581  0.00  0.00    +0.000 A 
ENDBRANCH  12  13
ENDBRANCH   4  12
BRANCH   5  21
ATOM     21  C   UNL     1       2.880   6.160  18.578  0.00  0.00    +0.000 C 
BRANCH  21  22
ATOM     22  C   UNL     1       2.347   7.158  19.616  0.00  0.00    +0.000 C 
BRANCH  22  23
ATOM     23  C   UNL     1       1.851   8.460  19.068  0.00  0.00    +0.000 A 
ATOM     24  C   UNL     1       2.063   8.958  17.793  0.00  0.00    +0.000 A 
ATOM     25  N   UNL     1       1.420  10.158  17.677  0.00  0.00    +0.000 N 
ATOM     26  C   UNL     1       0.706  10.424  18.821  0.00  0.00    +0.000 A 
ATOM     27  C   UNL     1      -0.170  11.478  19.097  0.00  0.00    +0.000 A 
ATOM     28  C   UNL     1      -0.783  11.498  20.353  0.00  0.00    +0.000 A 
ATOM     29  C   UNL     1      -0.481  10.529  21.307  0.00  0.00    +0.000 A 
ATOM     30  C   UNL     1       0.411   9.486  21.016  0.00  0.00    +0.000 A 
ATOM     31  C   UNL     1       0.994   9.409  19.732  0.00  0.00    +0.000 A 
ATOM     32  H   UNL     1       1.429  10.748  16.859  0.00  0.00    +0.000 HD
ENDBRANCH  22  23
ENDBRANCH  21  22
ENDBRANCH   5  21
TORSDOF 9
ENDMDL
MODEL 6
REMARK VINA RESULT:      -7.5      2.432      2.988
REMARK  Name = 
REMARK  9 active torsions:
REMARK  status: ('A' for Active; 'I' for Inactive)
REMARK    1  A    between atoms: N_1  and  C_2
REMARK    2  A    between atoms: C_2  and  C_3
REMARK    3  A    between atoms: C_3  and  C_4
REMARK    4  A    between atoms: C_4  and  C_5
REMARK    5  A    between atoms: C_8  and  C_9
REMARK    6  A    between atoms: C_9  and  C_10
REMARK    7  A    between atoms: N_18  and  C_19
REMARK    8  A    between atoms: C_19  and  C_20
REMARK    9  A    between atoms: C_20  and  C_21
REMARK                            x       y       z     vdW  Elec       q    Type
REMARK                         _______ _______ _______ _____ _____    ______ ____
ROOT
ATOM      1  C   UNL     1       3.286   4.752  19.767  0.00  0.00    +0.000 A 
ATOM      2  N   UNL     1       4.318   3.981  20.040  0.00  0.00    +0.000 NA
ATOM      3  N   UNL     1       5.321   4.294  19.177  0.00  0.00    +0.000 NA
ATOM      4  C   UNL     1       4.907   5.260  18.376  0.00  0.00    +0.000 A 
ATOM      5  N   UNL     1       3.581   5.522  18.652  0.00  0.00    +0.000 N 
ENDROOT
BRANCH   1   6
ATOM      6  C   UNL     1       2.046   4.809  20.597  0.00  0.00    +0.000 C 
BRANCH   6   7
ATOM      7  C   UNL     1       1.139   3.594  20.354  0.00  0.00    +0.000 C 
BRANCH   7   8
ATOM      8  C   UNL     1       1.233   2.513  21.432  0.00  0.00    +0.000 C 
BRANCH   8   9
ATOM      9  N   UNL     1       2.508   2.574  22.147  0.00  0.00    +0.000 NA
ATOM     10  H   UNL     1       2.763   1.629  22.436  0.00  0.00    +0.000 HD
ATOM     11  H   UNL     1       2.374   3.095  23.015  0.00  0.00    +0.000 HD
ENDBRANCH   8   9
ENDBRANCH   7   8
ENDBRANCH   6   7
ENDBRANCH   1   6
BRANCH   4  12
ATOM     12  C   UNL     1       5.814   5.954  17.414  0.00  0.00    +0.000 C 
BRANCH  12  13
ATOM     13  C   UNL     1       5.974   5.238  16.084  0.00  0.00    +0.000 A 
ATOM     14  C   UNL     1       5.103   4.209  15.694  0.00  0.00    +0.000 A 
ATOM     15  C   UNL     1       5.259   3.564  14.464  0.00  0.00    +0.000 A 
ATOM     16  C   UNL     1       6.275   3.956  13.590  0.00  0.00    +0.000 A 
ATOM     17 CL   UNL     1       6.436   3.090  12.104  0.00  0.00    +0.000 Cl
ATOM     18  C   UNL     1       7.116   5.017  13.939  0.00  0.00    +0.000 A 
ATOM     19 CL   UNL     1       8.371   5.586  12.895  0.00  0.00    +0.000 Cl
ATOM     20  C   UNL     1       6.961   5.657  15.176  0.00  0.00    +0.000 A 
ENDBRANCH  12  13
ENDBRANCH   4  12
BRANCH   5  21
ATOM     21  C   UNL     1       2.662   6.464  18.039  0.00  0.00    +0.000 C 
BRANCH  21  22
ATOM     22  C   UNL     1       3.039   7.950  17.957  0.00  0.00    +0.000 C 
BRANCH  22  23
ATOM     23  C   UNL     1       1.983   8.913  18.402  0.00  0.00    +0.000 A 
ATOM     24  C   UNL     1       1.349   9.865  17.621  0.00  0.00    +0.000 A 
ATOM     25  N   UNL     1       0.428  10.520  18.390  0.00  0.00    +0.000 N 
ATOM     26  C   UNL     1       0.372   9.958  19.643  0.00  0.00    +0.000 A 
ATOM     27  C   UNL     1      -0.490  10.241  20.707  0.00  0.00    +0.000 A 
ATOM     28  C   UNL     1      -0.335   9.498  21.880  0.00  0.00    +0.000 A 
ATOM     29  C   UNL     1       0.681   8.551  21.994  0.00  0.00    +0.000 A 
ATOM     30  C   UNL     1       1.545   8.291  20.919  0.00  0.00    +0.000 A 
ATOM     31  C   UNL     1       1.368   8.984  19.702  0.00  0.00    +0.000 A 
ATOM     32  H   UNL     1      -0.159  11.279  18.078  0.00  0.00    +0.000 HD
ENDBRANCH  22  23
ENDBRANCH  21  22
ENDBRANCH   5  21
TORSDOF 9
ENDMDL
MODEL 7
REMARK VINA RESULT:      -7.4      3.413      6.262
REMARK  Name = 
REMARK  9 active torsions:
REMARK  status: ('A' for Active; 'I' for Inactive)
REMARK    1  A    between atoms: N_1  and  C_2
REMARK    2  A    between atoms: C_2  and  C_3
REMARK    3  A    between atoms: C_3  and  C_4
REMARK    4  A    between atoms: C_4  and  C_5
REMARK    5  A    between atoms: C_8  and  C_9
REMARK    6  A    between atoms: C_9  and  C_10
REMARK    7  A    between atoms: N_18  and  C_19
REMARK    8  A    between atoms: C_19  and  C_20
REMARK    9  A    between atoms: C_20  and  C_21
REMARK                            x       y       z     vdW  Elec       q    Type
REMARK                         _______ _______ _______ _____ _____    ______ ____
ROOT
ATOM      1  C   UNL     1       1.877   5.206  20.098  0.00  0.00    +0.000 A 
ATOM      2  N   UNL     1       1.866   6.228  20.927  0.00  0.00    +0.000 NA
ATOM      3  N   UNL     1       2.100   7.359  20.209  0.00  0.00    +0.000 NA
ATOM      4  C   UNL     1       2.249   7.032  18.938  0.00  0.00    +0.000 A 
ATOM      5  N   UNL     1       2.209   5.657  18.829  0.00  0.00    +0.000 N 
ENDROOT
BRANCH   1   6
ATOM      6  C   UNL     1       1.510   3.812  20.489  0.00  0.00    +0.000 C 
BRANCH   6   7
ATOM      7  C   UNL     1       2.719   3.030  21.022  0.00  0.00    +0.000 C 
BRANCH   7   8
ATOM      8  C   UNL     1       3.376   2.110  19.992  0.00  0.00    +0.000 C 
BRANCH   8   9
ATOM      9  N   UNL     1       4.834   2.137  20.097  0.00  0.00    +0.000 NA
ATOM     10  H   UNL     1       5.229   2.046  19.160  0.00  0.00    +0.000 HD
ATOM     11  H   UNL     1       5.144   1.305  20.602  0.00  0.00    +0.000 HD
ENDBRANCH   8   9
ENDBRANCH   7   8
ENDBRANCH   6   7
ENDBRANCH   1   6
BRANCH   4  12
ATOM     12  C   UNL     1       2.358   8.049  17.850  0.00  0.00    +0.000 C 
BRANCH  12  13
ATOM     13  C   UNL     1       1.560   9.317  18.102  0.00  0.00    +0.000 A 
ATOM     14  C   UNL     1       2.191  10.546  18.343  0.00  0.00    +0.000 A 
ATOM     15  C   UNL     1       1.442  11.705  18.567  0.00  0.00    +0.000 A 
ATOM     16  C   UNL     1       0.048  11.658  18.529  0.00  0.00    +0.000 A 
ATOM     17 CL   UNL     1      -0.816  13.119  18.855  0.00  0.00    +0.000 Cl
ATOM     18  C   UNL     1      -0.596  10.452  18.235  0.00  0.00    +0.000 A 
ATOM     19 CL   UNL     1      -2.316  10.322  18.132  0.00  0.00    +0.000 Cl
ATOM     20  C   UNL     1       0.158   9.291  18.017  0.00  0.00    +0.000 A 
ENDBRANCH  12  13
ENDBRANCH   4  12
BRANCH   5  21
ATOM     21  C   UNL     1       2.353   4.801  17.666  0.00  0.00    +0.000 C 
BRANCH  21  22
ATOM     22  C   UNL     1       3.736   4.240  17.303  0.00  0.00    +0.000 C 
BRANCH  22  23
ATOM     23  C   UNL     1       4.779   5.257  16.957  0.00  0.00    +0.000 A 
ATOM     24  C   UNL     1       4.775   6.108  15.864  0.00  0.00    +0.000 A 
ATOM     25  N   UNL     1       5.885   6.904  15.925  0.00  0.00    +0.000 N 
ATOM     26  C   UNL     1       6.578   6.662  17.087  0.00  0.00    +0.000 A 
ATOM     27  C   UNL     1       7.703   7.312  17.603  0.00  0.00    +0.000 A 
ATOM     28  C   UNL     1       8.201   6.867  18.830  0.00  0.00    +0.000 A 
ATOM     29  C   UNL     1       7.623   5.778  19.479  0.00  0.00    +0.000 A 
ATOM     30  C   UNL     1       6.503   5.129  18.939  0.00  0.00    +0.000 A 
ATOM     31  C   UNL     1       5.943   5.601  17.731  0.00  0.00    +0.000 A 
ATOM     32  H   UNL     1       6.142   7.599  15.240  0.00  0.00    +0.000 HD
ENDBRANCH  22  23
ENDBRANCH  21  22
ENDBRANCH   5  21
TORSDOF 9
ENDMDL
MODEL 8
REMARK VINA RESULT:      -7.4      3.012      5.169
REMARK  Name = 
REMARK  9 active torsions:
REMARK  status: ('A' for Active; 'I' for Inactive)
REMARK    1  A    between atoms: N_1  and  C_2
REMARK    2  A    between atoms: C_2  and  C_3
REMARK    3  A    between atoms: C_3  and  C_4
REMARK    4  A    between atoms: C_4  and  C_5
REMARK    5  A    between atoms: C_8  and  C_9
REMARK    6  A    between atoms: C_9  and  C_10
REMARK    7  A    between atoms: N_18  and  C_19
REMARK    8  A    between atoms: C_19  and  C_20
REMARK    9  A    between atoms: C_20  and  C_21
REMARK                            x       y       z     vdW  Elec       q    Type
REMARK                         _______ _______ _______ _____ _____    ______ ____
ROOT
ATOM      1  C   UNL     1       6.672   6.675  16.867  0.00  0.00    +0.000 A 
ATOM      2  N   UNL     1       7.410   6.043  15.978  0.00  0.00    +0.000 NA
ATOM      3  N   UNL     1       6.814   4.852  15.702  0.00  0.00    +0.000 NA
ATOM      4  C   UNL     1       5.708   4.754  16.419  0.00  0.00    +0.000 A 
ATOM      5  N   UNL     1       5.623   5.853  17.249  0.00  0.00    +0.000 N 
ENDROOT
BRANCH   1   6
ATOM      6  C   UNL     1       6.921   8.080  17.308  0.00  0.00    +0.000 C 
BRANCH   6   7
ATOM      7  C   UNL     1       8.207   8.201  18.138  0.00  0.00    +0.000 C 
BRANCH   7   8
ATOM      8  C   UNL     1       8.684   9.638  18.354  0.00  0.00    +0.000 C 
BRANCH   8   9
ATOM      9  N   UNL     1       9.346   9.797  19.648  0.00  0.00    +0.000 NA
ATOM     10  H   UNL     1       8.812  10.464  20.206  0.00  0.00    +0.000 HD
ATOM     11  H   UNL     1      10.256  10.236  19.501  0.00  0.00    +0.000 HD
ENDBRANCH   8   9
ENDBRANCH   7   8
ENDBRANCH   6   7
ENDBRANCH   1   6
BRANCH   4  12
ATOM     12  C   UNL     1       4.727   3.644  16.240  0.00  0.00    +0.000 C 
BRANCH  12  13
ATOM     13  C   UNL     1       3.815   3.420  17.434  0.00  0.00    +0.000 A 
ATOM     14  C   UNL     1       2.436   3.670  17.361  0.00  0.00    +0.000 A 
ATOM     15  C   UNL     1       1.609   3.454  18.466  0.00  0.00    +0.000 A 
ATOM     16  C   UNL     1       2.143   2.959  19.657  0.00  0.00    +0.000 A 
ATOM     17 CL   UNL     1       1.071   2.754  20.996  0.00  0.00    +0.000 Cl
ATOM     18  C   UNL     1       3.505   2.653  19.729  0.00  0.00    +0.000 A 
ATOM     19 CL   UNL     1       4.234   2.002  21.155  0.00  0.00    +0.000 Cl
ATOM     20  C   UNL     1       4.333   2.876  18.621  0.00  0.00    +0.000 A 
ENDBRANCH  12  13
ENDBRANCH   4  12
BRANCH   5  21
ATOM     21  C   UNL     1       4.626   6.204  18.244  0.00  0.00    +0.000 C 
BRANCH  21  22
ATOM     22  C   UNL     1       3.404   7.039  17.833  0.00  0.00    +0.000 C 
BRANCH  22  23
ATOM     23  C   UNL     1       2.501   7.461  18.950  0.00  0.00    +0.000 A 
ATOM     24  C   UNL     1       2.269   6.776  20.131  0.00  0.00    +0.000 A 
ATOM     25  N   UNL     1       1.409   7.507  20.901  0.00  0.00    +0.000 N 
ATOM     26  C   UNL     1       1.136   8.709  20.294  0.00  0.00    +0.000 A 
ATOM     27  C   UNL     1       0.395   9.797  20.766  0.00  0.00    +0.000 A 
ATOM     28  C   UNL     1       0.289  10.917  19.938  0.00  0.00    +0.000 A 
ATOM     29  C   UNL     1       0.858  10.917  18.666  0.00  0.00    +0.000 A 
ATOM     30  C   UNL     1       1.587   9.811  18.203  0.00  0.00    +0.000 A 
ATOM     31  C   UNL     1       1.761   8.692  19.047  0.00  0.00    +0.000 A 
ATOM     32  H   UNL     1       1.053   7.229  21.803  0.00  0.00    +0.000 HD
ENDBRANCH  22  23
ENDBRANCH  21  22
ENDBRANCH   5  21
TORSDOF 9
ENDMDL
MODEL 9
REMARK VINA RESULT:      -7.3      2.311      2.625
REMARK  Name = 
REMARK  9 active torsions:
REMARK  status: ('A' for Active; 'I' for Inactive)
REMARK    1  A    between atoms: N_1  and  C_2
REMARK    2  A    between atoms: C_2  and  C_3
REMARK    3  A    between atoms: C_3  and  C_4
REMARK    4  A    between atoms: C_4  and  C_5
REMARK    5  A    between atoms: C_8  and  C_9
REMARK    6  A    between atoms: C_9  and  C_10
REMARK    7  A    between atoms: N_18  and  C_19
REMARK    8  A    between atoms: C_19  and  C_20
REMARK    9  A    between atoms: C_20  and  C_21
REMARK                            x       y       z     vdW  Elec       q    Type
REMARK                         _______ _______ _______ _____ _____    ______ ____
ROOT
ATOM      1  C   UNL     1       2.386   3.191  18.608  0.00  0.00    +0.000 A 
ATOM      2  N   UNL     1       3.146   2.117  18.620  0.00  0.00    +0.000 NA
ATOM      3  N   UNL     1       4.414   2.490  18.301  0.00  0.00    +0.000 NA
ATOM      4  C   UNL     1       4.434   3.796  18.097  0.00  0.00    +0.000 A 
ATOM      5  N   UNL     1       3.143   4.275  18.189  0.00  0.00    +0.000 N 
ENDROOT
BRANCH   1   6
ATOM      6  C   UNL     1       0.961   3.209  19.053  0.00  0.00    +0.000 C 
BRANCH   6   7
ATOM      7  C   UNL     1       0.830   3.566  20.541  0.00  0.00    +0.000 C 
BRANCH   7   8
ATOM      8  C   UNL     1       2.166   3.738  21.266  0.00  0.00    +0.000 C 
BRANCH   8   9
ATOM      9  N   UNL     1       2.566   2.514  21.958  0.00  0.00    +0.000 NA
ATOM     10  H   UNL     1       1.727   1.973  22.172  0.00  0.00    +0.000 HD
ATOM     11  H   UNL     1       2.965   2.762  22.864  0.00  0.00    +0.000 HD
ENDBRANCH   8   9
ENDBRANCH   7   8
ENDBRANCH   6   7
ENDBRANCH   1   6
BRANCH   4  12
ATOM     12  C   UNL     1       5.699   4.560  17.887  0.00  0.00    +0.000 C 
BRANCH  12  13
ATOM     13  C   UNL     1       6.144   4.641  16.437  0.00  0.00    +0.000 A 
ATOM     14  C   UNL     1       7.379   5.201  16.079  0.00  0.00    +0.000 A 
ATOM     15  C   UNL     1       7.778   5.262  14.741  0.00  0.00    +0.000 A 
ATOM     16  C   UNL     1       6.958   4.741  13.739  0.00  0.00    +0.000 A 
ATOM     17 CL   UNL     1       7.493   4.886  12.103  0.00  0.00    +0.000 Cl
ATOM     18  C   UNL     1       5.748   4.129  14.085  0.00  0.00    +0.000 A 
ATOM     19 CL   UNL     1       4.696   3.427  12.907  0.00  0.00    +0.000 Cl
ATOM     20  C   UNL     1       5.349   4.075  15.427  0.00  0.00    +0.000 A 
ENDBRANCH  12  13
ENDBRANCH   4  12
BRANCH   5  21
ATOM     21  C   UNL     1       2.626   5.620  18.018  0.00  0.00    +0.000 C 
BRANCH  21  22
ATOM     22  C   UNL     1       2.767   6.639  19.159  0.00  0.00    +0.000 C 
BRANCH  22  23
ATOM     23  C   UNL     1       2.122   7.969  18.925  0.00  0.00    +0.000 A 
ATOM     24  C   UNL     1       2.104   8.683  17.738  0.00  0.00    +0.000 A 
ATOM     25  N   UNL     1       1.387   9.831  17.928  0.00  0.00    +0.000 N 
ATOM     26  C   UNL     1       0.849   9.850  19.192  0.00  0.00    +0.000 A 
ATOM     27  C   UNL     1      -0.027  10.772  19.773  0.00  0.00    +0.000 A 
ATOM     28  C   UNL     1      -0.433  10.538  21.089  0.00  0.00    +0.000 A 
ATOM     29  C   UNL     1       0.066   9.453  21.806  0.00  0.00    +0.000 A 
ATOM     30  C   UNL     1       0.956   8.545  21.211  0.00  0.00    +0.000 A 
ATOM     31  C   UNL     1       1.332   8.725  19.861  0.00  0.00    +0.000 A 
ATOM     32  H   UNL     1       1.236  10.546  17.232  0.00  0.00    +0.000 HD
ENDBRANCH  22  23
ENDBRANCH  21  22
ENDBRANCH   5  21
TORSDOF 9
ENDMDL
