MODEL 1
REMARK VINA RESULT:      -7.8      0.000      0.000
REMARK  Name = 
REMARK  3 active torsions:
REMARK  status: ('A' for Active; 'I' for Inactive)
REMARK    1  A    between atoms: C_1  and  N_2
REMARK    2  A    between atoms: C_3  and  C_5
REMARK    3  A    between atoms: N_18  and  C_19
REMARK                            x       y       z     vdW  Elec       q    Type
REMARK                         _______ _______ _______ _____ _____    ______ ____
ROOT
ATOM      1  C   UNL     1       1.117  12.206  20.237  0.00  0.00    +0.000 C 
ATOM      2  C   UNL     1      -0.299  12.769  20.013  0.00  0.00    +0.000 C 
ATOM      3  N   UNL     1      -1.104  11.952  19.125  0.00  0.00    +0.000 N 
ATOM      4  C   UNL     1      -2.459  11.813  19.134  0.00  0.00    +0.000 A 
ATOM      5  C   UNL     1      -2.717  10.830  18.205  0.00  0.00    +0.000 A 
ATOM      6  N   UNL     1      -1.551  10.356  17.664  0.00  0.00    +0.000 NA
ATOM      7  C   UNL     1      -0.579  10.958  18.331  0.00  0.00    +0.000 A 
ATOM      8  C   UNL     1       0.745  10.344  18.741  0.00  0.00    +0.000 C 
ATOM      9  C   UNL     1       0.325   9.443  19.900  0.00  0.00    +0.000 C 
ATOM     10  C   UNL     1       1.434   8.608  20.425  0.00  0.00    +0.000 C 
ATOM     11  N   UNL     1       2.052   7.775  19.420  0.00  0.00    +0.000 N 
ATOM     12  C   UNL     1       2.200   6.476  19.843  0.00  0.00    +0.000 C 
ATOM     13  O   UNL     1       1.694   6.051  20.874  0.00  0.00    +0.000 OA
ATOM     14  N   UNL     1       2.925   5.621  19.057  0.00  0.00    +0.000 N 
ATOM     15  C   UNL     1       2.467   8.432  18.170  0.00  0.00    +0.000 C 
ATOM     16  C   UNL     1       1.431   9.470  17.644  0.00  0.00    +0.000 C 
ATOM     17  O   UNL     1       1.623  11.427  19.138  0.00  0.00    +0.000 OA
ATOM     18  H   UNL     1       3.875   5.946  18.951  0.00  0.00    +0.000 HD
ENDROOT
BRANCH   1  21
ATOM     19  C   UNL     1       3.955  14.713  19.914  0.00  0.00    +0.000 C 
ATOM     20  N   UNL     1       2.869  13.805  19.648  0.00  0.00    +0.000 N 
ATOM     21  C   UNL     1       2.046  13.352  20.652  0.00  0.00    +0.000 C 
ATOM     22  O   UNL     1       2.130  13.747  21.818  0.00  0.00    +0.000 OA
ATOM     23  H   UNL     1       2.716  13.451  18.712  0.00  0.00    +0.000 HD
ENDBRANCH   1  21
BRANCH  14  24
ATOM     24  C   UNL     1       2.776   4.203  19.395  0.00  0.00    +0.000 C 
ATOM     25  C   UNL     1       1.626   3.566  18.607  0.00  0.00    +0.000 C 
ATOM     26  C   UNL     1       1.956   2.085  18.576  0.00  0.00    +0.000 C 
ATOM     27  C   UNL     1       3.474   1.994  18.670  0.00  0.00    +0.000 C 
ATOM     28  C   UNL     1       3.992   3.387  18.999  0.00  0.00    +0.000 C 
ENDBRANCH  14  24
TORSDOF 2
ENDMDL
MODEL 2
REMARK VINA RESULT:      -7.7      2.391      8.078
REMARK  Name = 
REMARK  3 active torsions:
REMARK  status: ('A' for Active; 'I' for Inactive)
REMARK    1  A    between atoms: C_1  and  N_2
REMARK    2  A    between atoms: C_3  and  C_5
REMARK    3  A    between atoms: N_18  and  C_19
REMARK                            x       y       z     vdW  Elec       q    Type
REMARK                         _______ _______ _______ _____ _____    ______ ____
ROOT
ATOM      1  C   UNL     1       4.764   4.813  18.394  0.00  0.00    +0.000 C 
ATOM      2  C   UNL     1       4.257   3.391  18.085  0.00  0.00    +0.000 C 
ATOM      3  N   UNL     1       2.896   3.161  18.531  0.00  0.00    +0.000 N 
ATOM      4  C   UNL     1       1.983   2.311  17.983  0.00  0.00    +0.000 A 
ATOM      5  C   UNL     1       0.814   2.565  18.668  0.00  0.00    +0.000 A 
ATOM      6  N   UNL     1       0.998   3.564  19.587  0.00  0.00    +0.000 NA
ATOM      7  C   UNL     1       2.233   4.001  19.395  0.00  0.00    +0.000 A 
ATOM      8  C   UNL     1       2.704   5.439  19.493  0.00  0.00    +0.000 C 
ATOM      9  C   UNL     1       2.148   6.037  18.202  0.00  0.00    +0.000 C 
ATOM     10  C   UNL     1       2.363   7.502  18.095  0.00  0.00    +0.000 C 
ATOM     11  N   UNL     1       1.808   8.247  19.201  0.00  0.00    +0.000 N 
ATOM     12  C   UNL     1       1.072   9.328  18.780  0.00  0.00    +0.000 C 
ATOM     13  O   UNL     1       0.775   9.514  17.606  0.00  0.00    +0.000 OA
ATOM     14  N   UNL     1       0.633  10.216  19.725  0.00  0.00    +0.000 N 
ATOM     15  C   UNL     1       2.152   7.787  20.556  0.00  0.00    +0.000 C 
ATOM     16  C   UNL     1       2.131   6.236  20.706  0.00  0.00    +0.000 C 
ATOM     17  O   UNL     1       4.152   5.420  19.546  0.00  0.00    +0.000 OA
ATOM     18  H   UNL     1       1.411  10.634  20.216  0.00  0.00    +0.000 HD
ENDROOT
BRANCH   1  21
ATOM     19  C   UNL     1       8.233   5.640  19.704  0.00  0.00    +0.000 C 
ATOM     20  N   UNL     1       6.824   5.369  19.584  0.00  0.00    +0.000 N 
ATOM     21  C   UNL     1       6.295   4.791  18.455  0.00  0.00    +0.000 C 
ATOM     22  O   UNL     1       6.989   4.399  17.513  0.00  0.00    +0.000 OA
ATOM     23  H   UNL     1       6.187   5.639  20.323  0.00  0.00    +0.000 HD
ENDBRANCH   1  21
BRANCH  14  24
ATOM     24  C   UNL     1      -0.395  11.149  19.258  0.00  0.00    +0.000 C 
ATOM     25  C   UNL     1      -1.376  11.497  20.382  0.00  0.00    +0.000 C 
ATOM     26  C   UNL     1      -1.960  12.839  19.982  0.00  0.00    +0.000 C 
ATOM     27  C   UNL     1      -0.892  13.522  19.137  0.00  0.00    +0.000 C 
ATOM     28  C   UNL     1       0.188  12.489  18.849  0.00  0.00    +0.000 C 
ENDBRANCH  14  24
TORSDOF 2
ENDMDL
MODEL 3
REMARK VINA RESULT:      -7.6      2.429      7.984
REMARK  Name = 
REMARK  3 active torsions:
REMARK  status: ('A' for Active; 'I' for Inactive)
REMARK    1  A    between atoms: C_1  and  N_2
REMARK    2  A    between atoms: C_3  and  C_5
REMARK    3  A    between atoms: N_18  and  C_19
REMARK                            x       y       z     vdW  Elec       q    Type
REMARK                         _______ _______ _______ _____ _____    ______ ____
ROOT
ATOM      1  C   UNL     1       4.658   4.968  18.705  0.00  0.00    +0.000 C 
ATOM      2  C   UNL     1       4.199   3.533  18.385  0.00  0.00    +0.000 C 
ATOM      3  N   UNL     1       2.810   3.289  18.726  0.00  0.00    +0.000 N 
ATOM      4  C   UNL     1       1.956   2.414  18.125  0.00  0.00    +0.000 A 
ATOM      5  C   UNL     1       0.733   2.661  18.709  0.00  0.00    +0.000 A 
ATOM      6  N   UNL     1       0.829   3.680  19.620  0.00  0.00    +0.000 NA
ATOM      7  C   UNL     1       2.068   4.134  19.518  0.00  0.00    +0.000 A 
ATOM      8  C   UNL     1       2.508   5.580  19.625  0.00  0.00    +0.000 C 
ATOM      9  C   UNL     1       2.048   6.146  18.283  0.00  0.00    +0.000 C 
ATOM     10  C   UNL     1       2.249   7.612  18.164  0.00  0.00    +0.000 C 
ATOM     11  N   UNL     1       1.597   8.367  19.208  0.00  0.00    +0.000 N 
ATOM     12  C   UNL     1       0.881   9.429  18.709  0.00  0.00    +0.000 C 
ATOM     13  O   UNL     1       0.676   9.588  17.512  0.00  0.00    +0.000 OA
ATOM     14  N   UNL     1       0.355  10.326  19.598  0.00  0.00    +0.000 N 
ATOM     15  C   UNL     1       1.839   7.938  20.595  0.00  0.00    +0.000 C 
ATOM     16  C   UNL     1       1.829   6.390  20.773  0.00  0.00    +0.000 C 
ATOM     17  O   UNL     1       3.947   5.587  19.793  0.00  0.00    +0.000 OA
ATOM     18  H   UNL     1       1.085  10.766  20.141  0.00  0.00    +0.000 HD
ENDROOT
BRANCH   1  21
ATOM     19  C   UNL     1       8.296   4.297  17.837  0.00  0.00    +0.000 C 
ATOM     20  N   UNL     1       6.884   4.570  17.777  0.00  0.00    +0.000 N 
ATOM     21  C   UNL     1       6.179   4.973  18.887  0.00  0.00    +0.000 C 
ATOM     22  O   UNL     1       6.715   5.201  19.975  0.00  0.00    +0.000 OA
ATOM     23  H   UNL     1       6.372   4.430  16.915  0.00  0.00    +0.000 HD
ENDBRANCH   1  21
BRANCH  14  24
ATOM     24  C   UNL     1      -0.646  11.234  19.033  0.00  0.00    +0.000 C 
ATOM     25  C   UNL     1      -1.882  10.463  18.554  0.00  0.00    +0.000 C 
ATOM     26  C   UNL     1      -3.003  11.484  18.574  0.00  0.00    +0.000 C 
ATOM     27  C   UNL     1      -2.626  12.497  19.648  0.00  0.00    +0.000 C 
ATOM     28  C   UNL     1      -1.193  12.202  20.066  0.00  0.00    +0.000 C 
ENDBRANCH  14  24
TORSDOF 2
ENDMDL
MODEL 4
REMARK VINA RESULT:      -7.4      2.113      4.171
REMARK  Name = 
REMARK  3 active torsions:
REMARK  status: ('A' for Active; 'I' for Inactive)
REMARK    1  A    between atoms: C_1  and  N_2
REMARK    2  A    between atoms: C_3  and  C_5
REMARK    3  A    between atoms: N_18  and  C_19
REMARK                            x       y       z     vdW  Elec       q    Type
REMARK                         _______ _______ _______ _____ _____    ______ ____
ROOT
ATOM      1  C   UNL     1      -1.528  12.247  19.451  0.00  0.00    +0.000 C 
ATOM      2  C   UNL     1      -1.057  13.690  19.718  0.00  0.00    +0.000 C 
ATOM      3  N   UNL     1       0.265  13.758  20.309  0.00  0.00    +0.000 N 
ATOM      4  C   UNL     1       1.177  14.761  20.173  0.00  0.00    +0.000 A 
ATOM      5  C   UNL     1       2.312  14.290  20.797  0.00  0.00    +0.000 A 
ATOM      6  N   UNL     1       2.111  13.021  21.274  0.00  0.00    +0.000 NA
ATOM      7  C   UNL     1       0.907  12.669  20.851  0.00  0.00    +0.000 A 
ATOM      8  C   UNL     1       0.485  11.289  20.386  0.00  0.00    +0.000 C 
ATOM      9  C   UNL     1       1.138  11.212  19.008  0.00  0.00    +0.000 C 
ATOM     10  C   UNL     1       0.985   9.885  18.360  0.00  0.00    +0.000 C 
ATOM     11  N   UNL     1       1.500   8.795  19.154  0.00  0.00    +0.000 N 
ATOM     12  C   UNL     1       2.300   7.952  18.419  0.00  0.00    +0.000 C 
ATOM     13  O   UNL     1       2.672   8.213  17.282  0.00  0.00    +0.000 OA
ATOM     14  N   UNL     1       2.714   6.786  19.004  0.00  0.00    +0.000 N 
ATOM     15  C   UNL     1       1.059   8.723  20.556  0.00  0.00    +0.000 C 
ATOM     16  C   UNL     1       1.014  10.110  21.262  0.00  0.00    +0.000 C 
ATOM     17  O   UNL     1      -0.963  11.268  20.343  0.00  0.00    +0.000 OA
ATOM     18  H   UNL     1       1.925   6.207  19.254  0.00  0.00    +0.000 HD
ENDROOT
BRANCH   1  21
ATOM     19  C   UNL     1      -4.992  12.018  17.906  0.00  0.00    +0.000 C 
ATOM     20  N   UNL     1      -3.588  11.872  18.191  0.00  0.00    +0.000 N 
ATOM     21  C   UNL     1      -3.059  12.225  19.410  0.00  0.00    +0.000 C 
ATOM     22  O   UNL     1      -3.753  12.609  20.356  0.00  0.00    +0.000 OA
ATOM     23  H   UNL     1      -2.952  11.541  17.476  0.00  0.00    +0.000 HD
ENDBRANCH   1  21
BRANCH  14  24
ATOM     24  C   UNL     1       3.803   6.102  18.301  0.00  0.00    +0.000 C 
ATOM     25  C   UNL     1       4.839   5.554  19.288  0.00  0.00    +0.000 C 
ATOM     26  C   UNL     1       5.519   4.422  18.543  0.00  0.00    +0.000 C 
ATOM     27  C   UNL     1       4.489   3.897  17.551  0.00  0.00    +0.000 C 
ATOM     28  C   UNL     1       3.320   4.873  17.553  0.00  0.00    +0.000 C 
ENDBRANCH  14  24
TORSDOF 2
ENDMDL
MODEL 5
REMARK VINA RESULT:      -7.0      5.674      9.511
REMARK  Name = 
REMARK  3 active torsions:
REMARK  status: ('A' for Active; 'I' for Inactive)
REMARK    1  A    between atoms: C_1  and  N_2
REMARK    2  A    between atoms: C_3  and  C_5
REMARK    3  A    between atoms: N_18  and  C_19
REMARK                            x       y       z     vdW  Elec       q    Type
REMARK                         _______ _______ _______ _____ _____    ______ ____
ROOT
ATOM      1  C   UNL     1       5.522   4.684  15.887  0.00  0.00    +0.000 C 
ATOM      2  C   UNL     1       4.072   4.339  16.277  0.00  0.00    +0.000 C 
ATOM      3  N   UNL     1       3.728   4.760  17.622  0.00  0.00    +0.000 N 
ATOM      4  C   UNL     1       2.497   5.120  18.082  0.00  0.00    +0.000 A 
ATOM      5  C   UNL     1       2.720   5.571  19.365  0.00  0.00    +0.000 A 
ATOM      6  N   UNL     1       4.055   5.519  19.670  0.00  0.00    +0.000 NA
ATOM      7  C   UNL     1       4.662   5.149  18.553  0.00  0.00    +0.000 A 
ATOM      8  C   UNL     1       6.005   5.644  18.053  0.00  0.00    +0.000 C 
ATOM      9  C   UNL     1       5.655   7.045  17.557  0.00  0.00    +0.000 C 
ATOM     10  C   UNL     1       6.840   7.822  17.113  0.00  0.00    +0.000 C 
ATOM     11  N   UNL     1       7.854   7.955  18.132  0.00  0.00    +0.000 N 
ATOM     12  C   UNL     1       8.294   9.251  18.259  0.00  0.00    +0.000 C 
ATOM     13  O   UNL     1       7.748  10.196  17.703  0.00  0.00    +0.000 OA
ATOM     14  N   UNL     1       9.373   9.489  19.067  0.00  0.00    +0.000 N 
ATOM     15  C   UNL     1       8.288   6.722  18.809  0.00  0.00    +0.000 C 
ATOM     16  C   UNL     1       7.112   5.757  19.147  0.00  0.00    +0.000 C 
ATOM     17  O   UNL     1       6.434   4.746  16.999  0.00  0.00    +0.000 OA
ATOM     18  H   UNL     1      10.188   8.993  18.735  0.00  0.00    +0.000 HD
ENDROOT
BRANCH   1  21
ATOM     19  C   UNL     1       6.760   3.645  12.448  0.00  0.00    +0.000 C 
ATOM     20  N   UNL     1       6.496   4.361  13.669  0.00  0.00    +0.000 N 
ATOM     21  C   UNL     1       5.976   3.732  14.776  0.00  0.00    +0.000 C 
ATOM     22  O   UNL     1       5.778   2.515  14.825  0.00  0.00    +0.000 OA
ATOM     23  H   UNL     1       6.653   5.360  13.720  0.00  0.00    +0.000 HD
ENDBRANCH   1  21
BRANCH  14  24
ATOM     24  C   UNL     1       9.585  10.898  19.406  0.00  0.00    +0.000 C 
ATOM     25  C   UNL     1       9.368  11.144  20.904  0.00  0.00    +0.000 C 
ATOM     26  C   UNL     1      10.167  12.397  21.207  0.00  0.00    +0.000 C 
ATOM     27  C   UNL     1      11.302  12.424  20.191  0.00  0.00    +0.000 C 
ATOM     28  C   UNL     1      11.017  11.338  19.164  0.00  0.00    +0.000 C 
ENDBRANCH  14  24
TORSDOF 2
ENDMDL
MODEL 6
REMARK VINA RESULT:      -6.8      1.144      1.166
REMARK  Name = 
REMARK  3 active torsions:
REMARK  status: ('A' for Active; 'I' for Inactive)
REMARK    1  A    between atoms: C_1  and  N_2
REMARK    2  A    between atoms: C_3  and  C_5
REMARK    3  A    between atoms: N_18  and  C_19
REMARK                            x       y       z     vdW  Elec       q    Type
REMARK                         _______ _______ _______ _____ _____    ______ ____
ROOT
ATOM      1  C   UNL     1       0.476  12.780  19.559  0.00  0.00    +0.000 C 
ATOM      2  C   UNL     1      -0.975  13.212  19.272  0.00  0.00    +0.000 C 
ATOM      3  N   UNL     1      -1.762  12.177  18.629  0.00  0.00    +0.000 N 
ATOM      4  C   UNL     1      -3.107  11.985  18.728  0.00  0.00    +0.000 A 
ATOM      5  C   UNL     1      -3.342  10.802  18.061  0.00  0.00    +0.000 A 
ATOM      6  N   UNL     1      -2.169  10.268  17.595  0.00  0.00    +0.000 NA
ATOM      7  C   UNL     1      -1.210  11.051  18.065  0.00  0.00    +0.000 A 
ATOM      8  C   UNL     1       0.156  10.607  18.549  0.00  0.00    +0.000 C 
ATOM      9  C   UNL     1      -0.180   9.982  19.900  0.00  0.00    +0.000 C 
ATOM     10  C   UNL     1       0.987   9.341  20.557  0.00  0.00    +0.000 C 
ATOM     11  N   UNL     1       1.617   8.325  19.745  0.00  0.00    +0.000 N 
ATOM     12  C   UNL     1       1.845   7.168  20.450  0.00  0.00    +0.000 C 
ATOM     13  O   UNL     1       1.394   6.972  21.571  0.00  0.00    +0.000 OA
ATOM     14  N   UNL     1       2.589   6.187  19.852  0.00  0.00    +0.000 N 
ATOM     15  C   UNL     1       1.957   8.692  18.362  0.00  0.00    +0.000 C 
ATOM     16  C   UNL     1       0.853   9.533  17.655  0.00  0.00    +0.000 C 
ATOM     17  O   UNL     1       0.988  11.790  18.648  0.00  0.00    +0.000 OA
ATOM     18  H   UNL     1       3.518   6.519  19.634  0.00  0.00    +0.000 HD
ENDROOT
BRANCH   1  21
ATOM     19  C   UNL     1       3.282  15.176  18.652  0.00  0.00    +0.000 C 
ATOM     20  N   UNL     1       2.231  14.192  18.612  0.00  0.00    +0.000 N 
ATOM     21  C   UNL     1       1.355  14.030  19.659  0.00  0.00    +0.000 C 
ATOM     22  O   UNL     1       1.358  14.759  20.655  0.00  0.00    +0.000 OA
ATOM     23  H   UNL     1       2.144  13.568  17.820  0.00  0.00    +0.000 HD
ENDBRANCH   1  21
BRANCH  14  24
ATOM     24  C   UNL     1       2.525   4.881  20.513  0.00  0.00    +0.000 C 
ATOM     25  C   UNL     1       1.132   4.258  20.371  0.00  0.00    +0.000 C 
ATOM     26  C   UNL     1       1.360   2.767  20.533  0.00  0.00    +0.000 C 
ATOM     27  C   UNL     1       2.786   2.509  20.064  0.00  0.00    +0.000 C 
ATOM     28  C   UNL     1       3.451   3.865  19.870  0.00  0.00    +0.000 C 
ENDBRANCH  14  24
TORSDOF 2
ENDMDL
MODEL 7
REMARK VINA RESULT:      -6.7      1.209      1.262
REMARK  Name = 
REMARK  3 active torsions:
REMARK  status: ('A' for Active; 'I' for Inactive)
REMARK    1  A    between atoms: C_1  and  N_2
REMARK    2  A    between atoms: C_3  and  C_5
REMARK    3  A    between atoms: N_18  and  C_19
REMARK                            x       y       z     vdW  Elec       q    Type
REMARK                         _______ _______ _______ _____ _____    ______ ____
ROOT
ATOM      1  C   UNL     1       0.007  12.739  20.725  0.00  0.00    +0.000 C 
ATOM      2  C   UNL     1      -1.454  13.124  20.424  0.00  0.00    +0.000 C 
ATOM      3  N   UNL     1      -2.052  12.317  19.378  0.00  0.00    +0.000 N 
ATOM      4  C   UNL     1      -3.368  11.993  19.239  0.00  0.00    +0.000 A 
ATOM      5  C   UNL     1      -3.401  11.102  18.189  0.00  0.00    +0.000 A 
ATOM      6  N   UNL     1      -2.136  10.861  17.719  0.00  0.00    +0.000 NA
ATOM      7  C   UNL     1      -1.322  11.507  18.539  0.00  0.00    +0.000 A 
ATOM      8  C   UNL     1       0.039  11.035  19.010  0.00  0.00    +0.000 C 
ATOM      9  C   UNL     1      -0.337   9.953  20.019  0.00  0.00    +0.000 C 
ATOM     10  C   UNL     1       0.836   9.222  20.559  0.00  0.00    +0.000 C 
ATOM     11  N   UNL     1       1.651   8.608  19.537  0.00  0.00    +0.000 N 
ATOM     12  C   UNL     1       1.953   7.300  19.833  0.00  0.00    +0.000 C 
ATOM     13  O   UNL     1       1.432   6.689  20.757  0.00  0.00    +0.000 OA
ATOM     14  N   UNL     1       2.859   6.653  19.035  0.00  0.00    +0.000 N 
ATOM     15  C   UNL     1       2.065   9.460  18.412  0.00  0.00    +0.000 C 
ATOM     16  C   UNL     1       0.935  10.401  17.900  0.00  0.00    +0.000 C 
ATOM     17  O   UNL     1       0.712  12.173  19.605  0.00  0.00    +0.000 OA
ATOM     18  H   UNL     1       3.756   7.115  19.059  0.00  0.00    +0.000 HD
ENDROOT
BRANCH   1  21
ATOM     19  C   UNL     1       2.932  14.897  21.833  0.00  0.00    +0.000 C 
ATOM     20  N   UNL     1       2.077  13.972  21.136  0.00  0.00    +0.000 N 
ATOM     21  C   UNL     1       0.719  13.943  21.350  0.00  0.00    +0.000 C 
ATOM     22  O   UNL     1       0.138  14.748  22.083  0.00  0.00    +0.000 OA
ATOM     23  H   UNL     1       2.471  13.292  20.498  0.00  0.00    +0.000 HD
ENDBRANCH   1  21
BRANCH  14  24
ATOM     24  C   UNL     1       2.893   5.198  19.204  0.00  0.00    +0.000 C 
ATOM     25  C   UNL     1       2.287   4.487  17.989  0.00  0.00    +0.000 C 
ATOM     26  C   UNL     1       2.906   3.102  18.006  0.00  0.00    +0.000 C 
ATOM     27  C   UNL     1       4.259   3.258  18.689  0.00  0.00    +0.000 C 
ATOM     28  C   UNL     1       4.311   4.662  19.276  0.00  0.00    +0.000 C 
ENDBRANCH  14  24
TORSDOF 2
ENDMDL
MODEL 8
REMARK VINA RESULT:      -6.6      0.793      1.115
REMARK  Name = 
REMARK  3 active torsions:
REMARK  status: ('A' for Active; 'I' for Inactive)
REMARK    1  A    between atoms: C_1  and  N_2
REMARK    2  A    between atoms: C_3  and  C_5
REMARK    3  A    between atoms: N_18  and  C_19
REMARK                            x       y       z     vdW  Elec       q    Type
REMARK                         _______ _______ _______ _____ _____    ______ ____
ROOT
ATOM      1  C   UNL     1       0.993  12.424  20.410  0.00  0.00    +0.000 C 
ATOM      2  C   UNL     1      -0.411  13.003  20.151  0.00  0.00    +0.000 C 
ATOM      3  N   UNL     1      -1.198  12.201  19.234  0.00  0.00    +0.000 N 
ATOM      4  C   UNL     1      -2.554  12.076  19.204  0.00  0.00    +0.000 A 
ATOM      5  C   UNL     1      -2.796  11.102  18.260  0.00  0.00    +0.000 A 
ATOM      6  N   UNL     1      -1.619  10.621  17.749  0.00  0.00    +0.000 NA
ATOM      7  C   UNL     1      -0.660  11.208  18.448  0.00  0.00    +0.000 A 
ATOM      8  C   UNL     1       0.645  10.577  18.890  0.00  0.00    +0.000 C 
ATOM      9  C   UNL     1       0.184   9.672  20.030  0.00  0.00    +0.000 C 
ATOM     10  C   UNL     1       1.269   8.821  20.579  0.00  0.00    +0.000 C 
ATOM     11  N   UNL     1       1.907   7.990  19.586  0.00  0.00    +0.000 N 
ATOM     12  C   UNL     1       2.030   6.686  20.003  0.00  0.00    +0.000 C 
ATOM     13  O   UNL     1       1.490   6.258  21.016  0.00  0.00    +0.000 OA
ATOM     14  N   UNL     1       2.767   5.829  19.231  0.00  0.00    +0.000 N 
ATOM     15  C   UNL     1       2.363   8.652  18.353  0.00  0.00    +0.000 C 
ATOM     16  C   UNL     1       1.353   9.704  17.806  0.00  0.00    +0.000 C 
ATOM     17  O   UNL     1       1.523  11.648  19.320  0.00  0.00    +0.000 OA
ATOM     18  H   UNL     1       3.724   6.145  19.154  0.00  0.00    +0.000 HD
ENDROOT
BRANCH   1  21
ATOM     19  C   UNL     1       4.038  14.697  20.349  0.00  0.00    +0.000 C 
ATOM     20  N   UNL     1       2.948  13.828  19.986  0.00  0.00    +0.000 N 
ATOM     21  C   UNL     1       1.921  13.557  20.860  0.00  0.00    +0.000 C 
ATOM     22  O   UNL     1       1.823  14.093  21.967  0.00  0.00    +0.000 OA
ATOM     23  H   UNL     1       2.940  13.366  19.086  0.00  0.00    +0.000 HD
ENDBRANCH   1  21
BRANCH  14  24
ATOM     24  C   UNL     1       2.595   4.411  19.554  0.00  0.00    +0.000 C 
ATOM     25  C   UNL     1       2.347   4.212  21.054  0.00  0.00    +0.000 C 
ATOM     26  C   UNL     1       1.618   2.886  21.150  0.00  0.00    +0.000 C 
ATOM     27  C   UNL     1       0.872   2.722  19.832  0.00  0.00    +0.000 C 
ATOM     28  C   UNL     1       1.363   3.817  18.895  0.00  0.00    +0.000 C 
ENDBRANCH  14  24
TORSDOF 2
ENDMDL
MODEL 9
REMARK VINA RESULT:      -6.6      1.796      1.991
REMARK  Name = 
REMARK  3 active torsions:
REMARK  status: ('A' for Active; 'I' for Inactive)
REMARK    1  A    between atoms: C_1  and  N_2
REMARK    2  A    between atoms: C_3  and  C_5
REMARK    3  A    between atoms: N_18  and  C_19
REMARK                            x       y       z     vdW  Elec       q    Type
REMARK                         _______ _______ _______ _____ _____    ______ ____
ROOT
ATOM      1  C   UNL     1      -0.497  12.659  21.126  0.00  0.00    +0.000 C 
ATOM      2  C   UNL     1      -1.939  12.999  20.703  0.00  0.00    +0.000 C 
ATOM      3  N   UNL     1      -2.381  12.256  19.538  0.00  0.00    +0.000 N 
ATOM      4  C   UNL     1      -3.656  11.884  19.234  0.00  0.00    +0.000 A 
ATOM      5  C   UNL     1      -3.531  11.085  18.118  0.00  0.00    +0.000 A 
ATOM      6  N   UNL     1      -2.214  10.945  17.768  0.00  0.00    +0.000 NA
ATOM      7  C   UNL     1      -1.525  11.556  18.719  0.00  0.00    +0.000 A 
ATOM      8  C   UNL     1      -0.195  11.111  19.293  0.00  0.00    +0.000 C 
ATOM      9  C   UNL     1      -0.611   9.930  20.167  0.00  0.00    +0.000 C 
ATOM     10  C   UNL     1       0.540   9.212  20.769  0.00  0.00    +0.000 C 
ATOM     11  N   UNL     1       1.488   8.726  19.793  0.00  0.00    +0.000 N 
ATOM     12  C   UNL     1       1.832   7.414  20.014  0.00  0.00    +0.000 C 
ATOM     13  O   UNL     1       1.253   6.703  20.826  0.00  0.00    +0.000 OA
ATOM     14  N   UNL     1       2.848   6.881  19.268  0.00  0.00    +0.000 N 
ATOM     15  C   UNL     1       1.967   9.691  18.790  0.00  0.00    +0.000 C 
ATOM     16  C   UNL     1       0.844  10.617  18.238  0.00  0.00    +0.000 C 
ATOM     17  O   UNL     1       0.349  12.225  20.045  0.00  0.00    +0.000 OA
ATOM     18  H   UNL     1       3.712   7.382  19.424  0.00  0.00    +0.000 HD
ENDROOT
BRANCH   1  21
ATOM     19  C   UNL     1      -0.519  15.937  23.048  0.00  0.00    +0.000 C 
ATOM     20  N   UNL     1      -0.871  14.666  22.470  0.00  0.00    +0.000 N 
ATOM     21  C   UNL     1       0.078  13.838  21.917  0.00  0.00    +0.000 C 
ATOM     22  O   UNL     1       1.286  14.087  21.949  0.00  0.00    +0.000 OA
ATOM     23  H   UNL     1      -1.839  14.374  22.424  0.00  0.00    +0.000 HD
ENDBRANCH   1  21
BRANCH  14  24
ATOM     24  C   UNL     1       2.947   5.420  19.323  0.00  0.00    +0.000 C 
ATOM     25  C   UNL     1       2.348   4.779  18.066  0.00  0.00    +0.000 C 
ATOM     26  C   UNL     1       3.025   3.425  17.966  0.00  0.00    +0.000 C 
ATOM     27  C   UNL     1       4.383   3.587  18.638  0.00  0.00    +0.000 C 
ATOM     28  C   UNL     1       4.387   4.942  19.332  0.00  0.00    +0.000 C 
ENDBRANCH  14  24
TORSDOF 2
ENDMDL
