MODEL 1
REMARK VINA RESULT:      -9.9      0.000      0.000
REMARK  Name = 
REMARK  11 active torsions:
REMARK  status: ('A' for Active; 'I' for Inactive)
REMARK    1  A    between atoms: C_1  and  N_2
REMARK    2  A    between atoms: N_2  and  C_3
REMARK    3  A    between atoms: C_3  and  C_4
REMARK    4  A    between atoms: C_10  and  C_11
REMARK    5  A    between atoms: C_14  and  O_15
REMARK    6  A    between atoms: O_15  and  C_16
REMARK    7  A    between atoms: C_16  and  C_17
REMARK    8  A    between atoms: C_17  and  O_18
REMARK    9  A    between atoms: C_17  and  C_19
REMARK   10  A    between atoms: C_17  and  C_25
REMARK   11  A    between atoms: C_19  and  N_20
REMARK                            x       y       z     vdW  Elec       q    Type
REMARK                         _______ _______ _______ _____ _____    ______ ____
ROOT
ATOM      1  C   UNL     1       0.972   8.935  20.404  0.00  0.00    +0.000 A 
ATOM      2  C   UNL     1       1.352   9.229  19.091  0.00  0.00    +0.000 A 
ATOM      3  C   UNL     1       2.108   8.338  18.393  0.00  0.00    +0.000 A 
ATOM      4  C   UNL     1       2.540   7.133  18.930  0.00  0.00    +0.000 A 
ATOM      5  C   UNL     1       2.161   6.809  20.250  0.00  0.00    +0.000 A 
ATOM      6  C   UNL     1       1.376   7.718  20.965  0.00  0.00    +0.000 A 
ENDROOT
BRANCH   1  13
ATOM      7  C   UNL     1      -3.560  12.606  23.072  0.00  0.00    +0.000 C 
ATOM      8  O   UNL     1      -4.120  12.198  22.076  0.00  0.00    +0.000 OA
ATOM      9  N   UNL     1      -2.241  12.379  23.430  0.00  0.00    +0.000 N 
ATOM     10  C   UNL     1      -1.422  11.568  22.659  0.00  0.00    +0.000 A 
ATOM     11  C   UNL     1      -1.126  11.910  21.345  0.00  0.00    +0.000 A 
ATOM     12  C   UNL     1      -0.337  11.050  20.594  0.00  0.00    +0.000 A 
ATOM     13  C   UNL     1       0.146   9.874  21.168  0.00  0.00    +0.000 A 
ATOM     14  C   UNL     1      -0.177   9.654  22.507  0.00  0.00    +0.000 A 
ATOM     15  N   UNL     1      -0.908  10.487  23.276  0.00  0.00    +0.000 NA
ATOM     16  H   UNL     1      -1.993  12.442  24.408  0.00  0.00    +0.000 HD
BRANCH   7  17
ATOM     17  C   UNL     1      -4.300  13.522  24.066  0.00  0.00    +0.000 C 
BRANCH  17  19
ATOM     18  C   UNL     1      -6.624  12.828  24.153  0.00  0.00    +0.000 C 
ATOM     19  N   UNL     1      -5.311  12.733  24.799  0.00  0.00    +0.000 NA
ATOM     20  H   UNL     1      -5.015  11.767  24.837  0.00  0.00    +0.000 HD
ENDBRANCH  17  19
ENDBRANCH   7  17
ENDBRANCH   1  13
BRANCH   4  21
ATOM     21  O   UNL     1       3.328   6.260  18.207  0.00  0.00    +0.000 OA
BRANCH  21  22
ATOM     22  C   UNL     1       4.277   5.550  19.046  0.00  0.00    +0.000 C 
BRANCH  22  23
ATOM     23  C   UNL     1       4.713   4.200  18.422  0.00  0.00    +0.000 C 
BRANCH  23  24
ATOM     24  C   UNL     1       5.442   4.409  17.084  0.00  0.00    +0.000 A 
ATOM     25  C   UNL     1       4.878   4.041  15.842  0.00  0.00    +0.000 A 
ATOM     26  C   UNL     1       5.574   4.238  14.646  0.00  0.00    +0.000 A 
ATOM     27  C   UNL     1       6.826   4.824  14.662  0.00  0.00    +0.000 A 
ATOM     28  F   UNL     1       7.486   5.011  13.513  0.00  0.00    +0.000 F 
ATOM     29  C   UNL     1       7.414   5.203  15.859  0.00  0.00    +0.000 A 
ATOM     30  C   UNL     1       6.720   4.987  17.046  0.00  0.00    +0.000 A 
ATOM     31  F   UNL     1       7.355   5.314  18.185  0.00  0.00    +0.000 F 
ENDBRANCH  23  24
BRANCH  23  32
ATOM     32  O   UNL     1       5.696   3.620  19.317  0.00  0.00    +0.000 OA
ATOM     33  H   UNL     1       5.659   4.110  20.150  0.00  0.00    +0.000 HD
ENDBRANCH  23  32
BRANCH  23  34
ATOM     34  C   UNL     1       3.511   3.214  18.346  0.00  0.00    +0.000 C 
BRANCH  34  35
ATOM     35  N   UNL     1       2.691   3.067  19.528  0.00  0.00    +0.000 N 
ATOM     36  C   UNL     1       1.355   3.268  19.641  0.00  0.00    +0.000 A 
ATOM     37  N   UNL     1       1.001   3.160  20.901  0.00  0.00    +0.000 NA
ATOM     38  C   UNL     1       2.158   2.770  21.508  0.00  0.00    +0.000 A 
ATOM     39  N   UNL     1       3.197   2.601  20.683  0.00  0.00    +0.000 NA
ENDBRANCH  34  35
ENDBRANCH  23  34
ENDBRANCH  22  23
ENDBRANCH  21  22
ENDBRANCH   4  21
TORSDOF 10
ENDMDL
MODEL 2
REMARK VINA RESULT:      -9.4      2.503      4.469
REMARK  Name = 
REMARK  11 active torsions:
REMARK  status: ('A' for Active; 'I' for Inactive)
REMARK    1  A    between atoms: C_1  and  N_2
REMARK    2  A    between atoms: N_2  and  C_3
REMARK    3  A    between atoms: C_3  and  C_4
REMARK    4  A    between atoms: C_10  and  C_11
REMARK    5  A    between atoms: C_14  and  O_15
REMARK    6  A    between atoms: O_15  and  C_16
REMARK    7  A    between atoms: C_16  and  C_17
REMARK    8  A    between atoms: C_17  and  O_18
REMARK    9  A    between atoms: C_17  and  C_19
REMARK   10  A    between atoms: C_17  and  C_25
REMARK   11  A    between atoms: C_19  and  N_20
REMARK                            x       y       z     vdW  Elec       q    Type
REMARK                         _______ _______ _______ _____ _____    ______ ____
ROOT
ATOM      1  C   UNL     1       0.852   9.396  20.076  0.00  0.00    +0.000 A 
ATOM      2  C   UNL     1       1.442   8.236  20.587  0.00  0.00    +0.000 A 
ATOM      3  C   UNL     1       2.198   7.449  19.773  0.00  0.00    +0.000 A 
ATOM      4  C   UNL     1       2.410   7.738  18.432  0.00  0.00    +0.000 A 
ATOM      5  C   UNL     1       1.834   8.909  17.895  0.00  0.00    +0.000 A 
ATOM      6  C   UNL     1       1.066   9.724  18.731  0.00  0.00    +0.000 A 
ENDROOT
BRANCH   1  13
ATOM      7  C   UNL     1      -3.623  12.692  23.275  0.00  0.00    +0.000 C 
ATOM      8  O   UNL     1      -4.258  12.242  22.345  0.00  0.00    +0.000 OA
ATOM      9  N   UNL     1      -2.259  12.570  23.480  0.00  0.00    +0.000 N 
ATOM     10  C   UNL     1      -1.470  11.828  22.614  0.00  0.00    +0.000 A 
ATOM     11  C   UNL     1      -1.354  12.194  21.278  0.00  0.00    +0.000 A 
ATOM     12  C   UNL     1      -0.589  11.400  20.434  0.00  0.00    +0.000 A 
ATOM     13  C   UNL     1       0.046  10.265  20.938  0.00  0.00    +0.000 A 
ATOM     14  C   UNL     1      -0.104  10.019  22.303  0.00  0.00    +0.000 A 
ATOM     15  N   UNL     1      -0.807  10.791  23.158  0.00  0.00    +0.000 NA
ATOM     16  H   UNL     1      -1.907  12.651  24.424  0.00  0.00    +0.000 HD
BRANCH   7  17
ATOM     17  C   UNL     1      -4.316  13.545  24.357  0.00  0.00    +0.000 C 
BRANCH  17  19
ATOM     18  C   UNL     1      -6.668  12.969  24.205  0.00  0.00    +0.000 C 
ATOM     19  N   UNL     1      -5.645  13.966  23.870  0.00  0.00    +0.000 NA
ATOM     20  H   UNL     1      -5.885  14.856  24.284  0.00  0.00    +0.000 HD
ENDBRANCH  17  19
ENDBRANCH   7  17
ENDBRANCH   1  13
BRANCH   4  21
ATOM     21  O   UNL     1       3.160   6.907  17.624  0.00  0.00    +0.000 OA
BRANCH  21  22
ATOM     22  C   UNL     1       4.159   6.165  18.373  0.00  0.00    +0.000 C 
BRANCH  22  23
ATOM     23  C   UNL     1       4.029   4.635  18.164  0.00  0.00    +0.000 C 
BRANCH  23  24
ATOM     24  C   UNL     1       3.169   3.989  19.264  0.00  0.00    +0.000 A 
ATOM     25  C   UNL     1       3.728   3.288  20.356  0.00  0.00    +0.000 A 
ATOM     26  C   UNL     1       2.914   2.705  21.333  0.00  0.00    +0.000 A 
ATOM     27  C   UNL     1       1.540   2.831  21.253  0.00  0.00    +0.000 A 
ATOM     28  F   UNL     1       0.768   2.272  22.192  0.00  0.00    +0.000 F 
ATOM     29  C   UNL     1       0.952   3.513  20.199  0.00  0.00    +0.000 A 
ATOM     30  C   UNL     1       1.769   4.075  19.223  0.00  0.00    +0.000 A 
ATOM     31  F   UNL     1       1.152   4.673  18.190  0.00  0.00    +0.000 F 
ENDBRANCH  23  24
BRANCH  23  32
ATOM     32  O   UNL     1       3.296   4.439  16.928  0.00  0.00    +0.000 OA
ATOM     33  H   UNL     1       2.352   4.438  17.144  0.00  0.00    +0.000 HD
ENDBRANCH  23  32
BRANCH  23  34
ATOM     34  C   UNL     1       5.431   3.982  17.984  0.00  0.00    +0.000 C 
BRANCH  34  35
ATOM     35  N   UNL     1       6.158   4.284  16.772  0.00  0.00    +0.000 N 
ATOM     36  C   UNL     1       7.251   5.074  16.635  0.00  0.00    +0.000 A 
ATOM     37  N   UNL     1       7.542   5.204  15.362  0.00  0.00    +0.000 NA
ATOM     38  C   UNL     1       6.651   4.364  14.761  0.00  0.00    +0.000 A 
ATOM     39  N   UNL     1       5.850   3.700  15.601  0.00  0.00    +0.000 NA
ENDBRANCH  34  35
ENDBRANCH  23  34
ENDBRANCH  22  23
ENDBRANCH  21  22
ENDBRANCH   4  21
TORSDOF 10
ENDMDL
MODEL 3
REMARK VINA RESULT:      -9.2      1.201      1.380
REMARK  Name = 
REMARK  11 active torsions:
REMARK  status: ('A' for Active; 'I' for Inactive)
REMARK    1  A    between atoms: C_1  and  N_2
REMARK    2  A    between atoms: N_2  and  C_3
REMARK    3  A    between atoms: C_3  and  C_4
REMARK    4  A    between atoms: C_10  and  C_11
REMARK    5  A    between atoms: C_14  and  O_15
REMARK    6  A    between atoms: O_15  and  C_16
REMARK    7  A    between atoms: C_16  and  C_17
REMARK    8  A    between atoms: C_17  and  O_18
REMARK    9  A    between atoms: C_17  and  C_19
REMARK   10  A    between atoms: C_17  and  C_25
REMARK   11  A    between atoms: C_19  and  N_20
REMARK                            x       y       z     vdW  Elec       q    Type
REMARK                         _______ _______ _______ _____ _____    ______ ____
ROOT
ATOM      1  C   UNL     1       1.010   9.131  19.959  0.00  0.00    +0.000 A 
ATOM      2  C   UNL     1       1.427   9.336  18.641  0.00  0.00    +0.000 A 
ATOM      3  C   UNL     1       2.237   8.422  18.040  0.00  0.00    +0.000 A 
ATOM      4  C   UNL     1       2.690   7.279  18.684  0.00  0.00    +0.000 A 
ATOM      5  C   UNL     1       2.274   7.044  20.012  0.00  0.00    +0.000 A 
ATOM      6  C   UNL     1       1.434   7.976  20.628  0.00  0.00    +0.000 A 
ENDROOT
BRANCH   1  13
ATOM      7  C   UNL     1      -1.821  13.901  23.178  0.00  0.00    +0.000 C 
ATOM      8  O   UNL     1      -0.672  13.989  23.557  0.00  0.00    +0.000 OA
ATOM      9  N   UNL     1      -2.343  12.930  22.340  0.00  0.00    +0.000 N 
ATOM     10  C   UNL     1      -1.530  11.953  21.785  0.00  0.00    +0.000 A 
ATOM     11  C   UNL     1      -0.855  11.051  22.600  0.00  0.00    +0.000 A 
ATOM     12  C   UNL     1      -0.017  10.116  22.007  0.00  0.00    +0.000 A 
ATOM     13  C   UNL     1       0.126  10.095  20.620  0.00  0.00    +0.000 A 
ATOM     14  C   UNL     1      -0.633  11.018  19.900  0.00  0.00    +0.000 A 
ATOM     15  N   UNL     1      -1.485  11.913  20.441  0.00  0.00    +0.000 NA
ATOM     16  H   UNL     1      -3.177  13.150  21.813  0.00  0.00    +0.000 HD
BRANCH   7  17
ATOM     17  C   UNL     1      -2.888  14.897  23.676  0.00  0.00    +0.000 C 
BRANCH  17  19
ATOM     18  C   UNL     1      -5.284  14.519  23.736  0.00  0.00    +0.000 C 
ATOM     19  N   UNL     1      -4.118  14.736  22.874  0.00  0.00    +0.000 NA
ATOM     20  H   UNL     1      -4.257  15.563  22.310  0.00  0.00    +0.000 HD
ENDBRANCH  17  19
ENDBRANCH   7  17
ENDBRANCH   1  13
BRANCH   4  21
ATOM     21  O   UNL     1       3.533   6.382  18.058  0.00  0.00    +0.000 OA
BRANCH  21  22
ATOM     22  C   UNL     1       4.283   5.577  19.006  0.00  0.00    +0.000 C 
BRANCH  22  23
ATOM     23  C   UNL     1       4.736   4.227  18.396  0.00  0.00    +0.000 C 
BRANCH  23  24
ATOM     24  C   UNL     1       5.459   4.431  17.053  0.00  0.00    +0.000 A 
ATOM     25  C   UNL     1       4.885   4.066  15.815  0.00  0.00    +0.000 A 
ATOM     26  C   UNL     1       5.576   4.257  14.614  0.00  0.00    +0.000 A 
ATOM     27  C   UNL     1       6.831   4.836  14.624  0.00  0.00    +0.000 A 
ATOM     28  F   UNL     1       7.485   5.018  13.471  0.00  0.00    +0.000 F 
ATOM     29  C   UNL     1       7.428   5.211  15.817  0.00  0.00    +0.000 A 
ATOM     30  C   UNL     1       6.740   5.001  17.008  0.00  0.00    +0.000 A 
ATOM     31  F   UNL     1       7.383   5.324  18.143  0.00  0.00    +0.000 F 
ENDBRANCH  23  24
BRANCH  23  32
ATOM     32  O   UNL     1       5.729   3.670  19.295  0.00  0.00    +0.000 OA
ATOM     33  H   UNL     1       6.498   4.258  19.282  0.00  0.00    +0.000 HD
ENDBRANCH  23  32
BRANCH  23  34
ATOM     34  C   UNL     1       3.547   3.223  18.334  0.00  0.00    +0.000 C 
BRANCH  34  35
ATOM     35  N   UNL     1       2.719   3.096  19.511  0.00  0.00    +0.000 N 
ATOM     36  C   UNL     1       1.385   3.320  19.616  0.00  0.00    +0.000 A 
ATOM     37  N   UNL     1       1.021   3.225  20.874  0.00  0.00    +0.000 NA
ATOM     38  C   UNL     1       2.169   2.819  21.490  0.00  0.00    +0.000 A 
ATOM     39  N   UNL     1       3.209   2.628  20.672  0.00  0.00    +0.000 NA
ENDBRANCH  34  35
ENDBRANCH  23  34
ENDBRANCH  22  23
ENDBRANCH  21  22
ENDBRANCH   4  21
TORSDOF 10
ENDMDL
MODEL 4
REMARK VINA RESULT:      -9.2      2.431      4.405
REMARK  Name = 
REMARK  11 active torsions:
REMARK  status: ('A' for Active; 'I' for Inactive)
REMARK    1  A    between atoms: C_1  and  N_2
REMARK    2  A    between atoms: N_2  and  C_3
REMARK    3  A    between atoms: C_3  and  C_4
REMARK    4  A    between atoms: C_10  and  C_11
REMARK    5  A    between atoms: C_14  and  O_15
REMARK    6  A    between atoms: O_15  and  C_16
REMARK    7  A    between atoms: C_16  and  C_17
REMARK    8  A    between atoms: C_17  and  O_18
REMARK    9  A    between atoms: C_17  and  C_19
REMARK   10  A    between atoms: C_17  and  C_25
REMARK   11  A    between atoms: C_19  and  N_20
REMARK                            x       y       z     vdW  Elec       q    Type
REMARK                         _______ _______ _______ _____ _____    ______ ____
ROOT
ATOM      1  C   UNL     1       0.657   9.633  20.192  0.00  0.00    +0.000 A 
ATOM      2  C   UNL     1       1.267   8.486  20.710  0.00  0.00    +0.000 A 
ATOM      3  C   UNL     1       2.075   7.735  19.912  0.00  0.00    +0.000 A 
ATOM      4  C   UNL     1       2.321   8.047  18.583  0.00  0.00    +0.000 A 
ATOM      5  C   UNL     1       1.725   9.205  18.040  0.00  0.00    +0.000 A 
ATOM      6  C   UNL     1       0.904   9.984  18.860  0.00  0.00    +0.000 A 
ENDROOT
BRANCH   1  13
ATOM      7  C   UNL     1      -4.026  12.749  23.273  0.00  0.00    +0.000 C 
ATOM      8  O   UNL     1      -4.613  12.297  22.312  0.00  0.00    +0.000 OA
ATOM      9  N   UNL     1      -2.668  12.661  23.527  0.00  0.00    +0.000 N 
ATOM     10  C   UNL     1      -1.826  11.956  22.679  0.00  0.00    +0.000 A 
ATOM     11  C   UNL     1      -1.671  12.348  21.355  0.00  0.00    +0.000 A 
ATOM     12  C   UNL     1      -0.853  11.590  20.528  0.00  0.00    +0.000 A 
ATOM     13  C   UNL     1      -0.204  10.465  21.037  0.00  0.00    +0.000 A 
ATOM     14  C   UNL     1      -0.399  10.192  22.391  0.00  0.00    +0.000 A 
ATOM     15  N   UNL     1      -1.155  10.929  23.231  0.00  0.00    +0.000 NA
ATOM     16  H   UNL     1      -2.354  12.736  24.485  0.00  0.00    +0.000 HD
BRANCH   7  17
ATOM     17  C   UNL     1      -4.783  13.564  24.340  0.00  0.00    +0.000 C 
BRANCH  17  19
ATOM     18  C   UNL     1      -4.008  15.862  24.452  0.00  0.00    +0.000 C 
ATOM     19  N   UNL     1      -3.848  14.506  24.988  0.00  0.00    +0.000 NA
ATOM     20  H   UNL     1      -4.016  14.509  25.985  0.00  0.00    +0.000 HD
ENDBRANCH  17  19
ENDBRANCH   7  17
ENDBRANCH   1  13
BRANCH   4  21
ATOM     21  O   UNL     1       3.125   7.251  17.790  0.00  0.00    +0.000 OA
BRANCH  21  22
ATOM     22  C   UNL     1       2.597   5.906  17.645  0.00  0.00    +0.000 C 
BRANCH  22  23
ATOM     23  C   UNL     1       3.536   4.839  18.261  0.00  0.00    +0.000 C 
BRANCH  23  24
ATOM     24  C   UNL     1       2.846   4.077  19.406  0.00  0.00    +0.000 A 
ATOM     25  C   UNL     1       1.493   4.284  19.754  0.00  0.00    +0.000 A 
ATOM     26  C   UNL     1       0.902   3.580  20.807  0.00  0.00    +0.000 A 
ATOM     27  C   UNL     1       1.636   2.643  21.511  0.00  0.00    +0.000 A 
ATOM     28  F   UNL     1       1.063   1.972  22.516  0.00  0.00    +0.000 F 
ATOM     29  C   UNL     1       2.965   2.407  21.199  0.00  0.00    +0.000 A 
ATOM     30  C   UNL     1       3.550   3.126  20.160  0.00  0.00    +0.000 A 
ATOM     31  F   UNL     1       4.857   2.907  19.935  0.00  0.00    +0.000 F 
ENDBRANCH  23  24
BRANCH  23  32
ATOM     32  O   UNL     1       3.787   3.852  17.229  0.00  0.00    +0.000 OA
ATOM     33  H   UNL     1       3.605   2.980  17.607  0.00  0.00    +0.000 HD
ENDBRANCH  23  32
BRANCH  23  34
ATOM     34  C   UNL     1       4.906   5.469  18.649  0.00  0.00    +0.000 C 
BRANCH  34  35
ATOM     35  N   UNL     1       5.961   5.434  17.662  0.00  0.00    +0.000 N 
ATOM     36  C   UNL     1       6.507   6.480  16.993  0.00  0.00    +0.000 A 
ATOM     37  N   UNL     1       7.346   6.032  16.088  0.00  0.00    +0.000 NA
ATOM     38  C   UNL     1       7.363   4.689  16.330  0.00  0.00    +0.000 A 
ATOM     39  N   UNL     1       6.604   4.293  17.357  0.00  0.00    +0.000 NA
ENDBRANCH  34  35
ENDBRANCH  23  34
ENDBRANCH  22  23
ENDBRANCH  21  22
ENDBRANCH   4  21
TORSDOF 10
ENDMDL
MODEL 5
REMARK VINA RESULT:      -9.1      0.732      1.326
REMARK  Name = 
REMARK  11 active torsions:
REMARK  status: ('A' for Active; 'I' for Inactive)
REMARK    1  A    between atoms: C_1  and  N_2
REMARK    2  A    between atoms: N_2  and  C_3
REMARK    3  A    between atoms: C_3  and  C_4
REMARK    4  A    between atoms: C_10  and  C_11
REMARK    5  A    between atoms: C_14  and  O_15
REMARK    6  A    between atoms: O_15  and  C_16
REMARK    7  A    between atoms: C_16  and  C_17
REMARK    8  A    between atoms: C_17  and  O_18
REMARK    9  A    between atoms: C_17  and  C_19
REMARK   10  A    between atoms: C_17  and  C_25
REMARK   11  A    between atoms: C_19  and  N_20
REMARK                            x       y       z     vdW  Elec       q    Type
REMARK                         _______ _______ _______ _____ _____    ______ ____
ROOT
ATOM      1  C   UNL     1       1.024   8.946  20.390  0.00  0.00    +0.000 A 
ATOM      2  C   UNL     1       1.415   7.729  20.957  0.00  0.00    +0.000 A 
ATOM      3  C   UNL     1       2.165   6.857  20.229  0.00  0.00    +0.000 A 
ATOM      4  C   UNL     1       2.560   7.112  18.923  0.00  0.00    +0.000 A 
ATOM      5  C   UNL     1       2.186   8.337  18.332  0.00  0.00    +0.000 A 
ATOM      6  C   UNL     1       1.425   9.240  19.081  0.00  0.00    +0.000 A 
ENDROOT
BRANCH   1  13
ATOM      7  C   UNL     1      -3.403  12.646  23.190  0.00  0.00    +0.000 C 
ATOM      8  O   UNL     1      -4.025  12.164  22.267  0.00  0.00    +0.000 OA
ATOM      9  N   UNL     1      -2.055  12.477  23.455  0.00  0.00    +0.000 N 
ATOM     10  C   UNL     1      -1.271  11.644  22.671  0.00  0.00    +0.000 A 
ATOM     11  C   UNL     1      -1.089  11.914  21.320  0.00  0.00    +0.000 A 
ATOM     12  C   UNL     1      -0.333  11.032  20.560  0.00  0.00    +0.000 A 
ATOM     13  C   UNL     1       0.230   9.906  21.162  0.00  0.00    +0.000 A 
ATOM     14  C   UNL     1       0.018   9.759  22.533  0.00  0.00    +0.000 A 
ATOM     15  N   UNL     1      -0.678  10.617  23.307  0.00  0.00    +0.000 NA
ATOM     16  H   UNL     1      -1.734  12.606  24.405  0.00  0.00    +0.000 HD
BRANCH   7  17
ATOM     17  C   UNL     1      -4.093  13.600  24.185  0.00  0.00    +0.000 C 
BRANCH  17  19
ATOM     18  C   UNL     1      -3.484  15.429  22.711  0.00  0.00    +0.000 C 
ATOM     19  N   UNL     1      -4.572  14.796  23.463  0.00  0.00    +0.000 NA
ATOM     20  H   UNL     1      -5.316  14.530  22.833  0.00  0.00    +0.000 HD
ENDBRANCH  17  19
ENDBRANCH   7  17
ENDBRANCH   1  13
BRANCH   4  21
ATOM     21  O   UNL     1       3.298   6.196  18.199  0.00  0.00    +0.000 OA
BRANCH  21  22
ATOM     22  C   UNL     1       4.260   5.488  19.025  0.00  0.00    +0.000 C 
BRANCH  22  23
ATOM     23  C   UNL     1       4.722   4.159  18.376  0.00  0.00    +0.000 C 
BRANCH  23  24
ATOM     24  C   UNL     1       5.465   4.408  17.052  0.00  0.00    +0.000 A 
ATOM     25  C   UNL     1       4.949   4.004  15.800  0.00  0.00    +0.000 A 
ATOM     26  C   UNL     1       5.657   4.239  14.617  0.00  0.00    +0.000 A 
ATOM     27  C   UNL     1       6.871   4.900  14.658  0.00  0.00    +0.000 A 
ATOM     28  F   UNL     1       7.542   5.123  13.522  0.00  0.00    +0.000 F 
ATOM     29  C   UNL     1       7.410   5.316  15.865  0.00  0.00    +0.000 A 
ATOM     30  C   UNL     1       6.706   5.062  17.038  0.00  0.00    +0.000 A 
ATOM     31  F   UNL     1       7.296   5.429  18.188  0.00  0.00    +0.000 F 
ENDBRANCH  23  24
BRANCH  23  32
ATOM     32  O   UNL     1       5.701   3.571  19.269  0.00  0.00    +0.000 OA
ATOM     33  H   UNL     1       5.910   2.688  18.934  0.00  0.00    +0.000 HD
ENDBRANCH  23  32
BRANCH  23  34
ATOM     34  C   UNL     1       3.533   3.159  18.261  0.00  0.00    +0.000 C 
BRANCH  34  35
ATOM     35  N   UNL     1       2.569   3.143  19.337  0.00  0.00    +0.000 N 
ATOM     36  C   UNL     1       2.787   2.852  20.644  0.00  0.00    +0.000 A 
ATOM     37  N   UNL     1       1.641   2.818  21.283  0.00  0.00    +0.000 NA
ATOM     38  C   UNL     1       0.751   3.218  20.330  0.00  0.00    +0.000 A 
ATOM     39  N   UNL     1       1.294   3.528  19.148  0.00  0.00    +0.000 NA
ENDBRANCH  34  35
ENDBRANCH  23  34
ENDBRANCH  22  23
ENDBRANCH  21  22
ENDBRANCH   4  21
TORSDOF 10
ENDMDL
MODEL 6
REMARK VINA RESULT:      -9.1      2.844      4.718
REMARK  Name = 
REMARK  11 active torsions:
REMARK  status: ('A' for Active; 'I' for Inactive)
REMARK    1  A    between atoms: C_1  and  N_2
REMARK    2  A    between atoms: N_2  and  C_3
REMARK    3  A    between atoms: C_3  and  C_4
REMARK    4  A    between atoms: C_10  and  C_11
REMARK    5  A    between atoms: C_14  and  O_15
REMARK    6  A    between atoms: O_15  and  C_16
REMARK    7  A    between atoms: C_16  and  C_17
REMARK    8  A    between atoms: C_17  and  O_18
REMARK    9  A    between atoms: C_17  and  C_19
REMARK   10  A    between atoms: C_17  and  C_25
REMARK   11  A    between atoms: C_19  and  N_20
REMARK                            x       y       z     vdW  Elec       q    Type
REMARK                         _______ _______ _______ _____ _____    ______ ____
ROOT
ATOM      1  C   UNL     1       0.825   9.408  19.898  0.00  0.00    +0.000 A 
ATOM      2  C   UNL     1       1.016   9.644  18.533  0.00  0.00    +0.000 A 
ATOM      3  C   UNL     1       1.805   8.804  17.808  0.00  0.00    +0.000 A 
ATOM      4  C   UNL     1       2.452   7.711  18.365  0.00  0.00    +0.000 A 
ATOM      5  C   UNL     1       2.268   7.446  19.739  0.00  0.00    +0.000 A 
ATOM      6  C   UNL     1       1.449   8.300  20.483  0.00  0.00    +0.000 A 
ENDROOT
BRANCH   1  13
ATOM      7  C   UNL     1      -1.890  13.869  23.620  0.00  0.00    +0.000 C 
ATOM      8  O   UNL     1      -0.713  14.010  23.876  0.00  0.00    +0.000 OA
ATOM      9  N   UNL     1      -2.448  12.902  22.800  0.00  0.00    +0.000 N 
ATOM     10  C   UNL     1      -1.648  11.998  22.116  0.00  0.00    +0.000 A 
ATOM     11  C   UNL     1      -0.839  11.107  22.810  0.00  0.00    +0.000 A 
ATOM     12  C   UNL     1      -0.022  10.248  22.088  0.00  0.00    +0.000 A 
ATOM     13  C   UNL     1      -0.032  10.290  20.694  0.00  0.00    +0.000 A 
ATOM     14  C   UNL     1      -0.916  11.194  20.103  0.00  0.00    +0.000 A 
ATOM     15  N   UNL     1      -1.751  12.014  20.774  0.00  0.00    +0.000 NA
ATOM     16  H   UNL     1      -3.346  13.093  22.377  0.00  0.00    +0.000 HD
BRANCH   7  17
ATOM     17  C   UNL     1      -2.949  14.779  24.275  0.00  0.00    +0.000 C 
BRANCH  17  19
ATOM     18  C   UNL     1      -2.595  16.967  25.263  0.00  0.00    +0.000 C 
ATOM     19  N   UNL     1      -2.328  15.530  25.385  0.00  0.00    +0.000 NA
ATOM     20  H   UNL     1      -2.690  15.186  26.263  0.00  0.00    +0.000 HD
ENDBRANCH  17  19
ENDBRANCH   7  17
ENDBRANCH   1  13
BRANCH   4  21
ATOM     21  O   UNL     1       3.268   6.891  17.610  0.00  0.00    +0.000 OA
BRANCH  21  22
ATOM     22  C   UNL     1       4.160   6.093  18.432  0.00  0.00    +0.000 C 
BRANCH  22  23
ATOM     23  C   UNL     1       3.969   4.573  18.196  0.00  0.00    +0.000 C 
BRANCH  23  24
ATOM     24  C   UNL     1       3.120   3.934  19.308  0.00  0.00    +0.000 A 
ATOM     25  C   UNL     1       3.689   3.221  20.387  0.00  0.00    +0.000 A 
ATOM     26  C   UNL     1       2.886   2.644  21.375  0.00  0.00    +0.000 A 
ATOM     27  C   UNL     1       1.512   2.789  21.321  0.00  0.00    +0.000 A 
ATOM     28  F   UNL     1       0.749   2.236  22.271  0.00  0.00    +0.000 F 
ATOM     29  C   UNL     1       0.915   3.484  20.281  0.00  0.00    +0.000 A 
ATOM     30  C   UNL     1       1.722   4.039  19.293  0.00  0.00    +0.000 A 
ATOM     31  F   UNL     1       1.094   4.650  18.273  0.00  0.00    +0.000 F 
ENDBRANCH  23  24
BRANCH  23  32
ATOM     32  O   UNL     1       3.192   4.430  16.979  0.00  0.00    +0.000 OA
ATOM     33  H   UNL     1       2.940   3.499  16.900  0.00  0.00    +0.000 HD
ENDBRANCH  23  32
BRANCH  23  34
ATOM     34  C   UNL     1       5.341   3.875  17.959  0.00  0.00    +0.000 C 
BRANCH  34  35
ATOM     35  N   UNL     1       6.108   4.285  16.804  0.00  0.00    +0.000 N 
ATOM     36  C   UNL     1       7.253   5.010  16.783  0.00  0.00    +0.000 A 
ATOM     37  N   UNL     1       7.575   5.287  15.541  0.00  0.00    +0.000 NA
ATOM     38  C   UNL     1       6.641   4.595  14.826  0.00  0.00    +0.000 A 
ATOM     39  N   UNL     1       5.783   3.882  15.563  0.00  0.00    +0.000 NA
ENDBRANCH  34  35
ENDBRANCH  23  34
ENDBRANCH  22  23
ENDBRANCH  21  22
ENDBRANCH   4  21
TORSDOF 10
ENDMDL
MODEL 7
REMARK VINA RESULT:      -9.0      2.836      4.752
REMARK  Name = 
REMARK  11 active torsions:
REMARK  status: ('A' for Active; 'I' for Inactive)
REMARK    1  A    between atoms: C_1  and  N_2
REMARK    2  A    between atoms: N_2  and  C_3
REMARK    3  A    between atoms: C_3  and  C_4
REMARK    4  A    between atoms: C_10  and  C_11
REMARK    5  A    between atoms: C_14  and  O_15
REMARK    6  A    between atoms: O_15  and  C_16
REMARK    7  A    between atoms: C_16  and  C_17
REMARK    8  A    between atoms: C_17  and  O_18
REMARK    9  A    between atoms: C_17  and  C_19
REMARK   10  A    between atoms: C_17  and  C_25
REMARK   11  A    between atoms: C_19  and  N_20
REMARK                            x       y       z     vdW  Elec       q    Type
REMARK                         _______ _______ _______ _____ _____    ______ ____
ROOT
ATOM      1  C   UNL     1       0.790   9.422  19.890  0.00  0.00    +0.000 A 
ATOM      2  C   UNL     1       1.417   8.320  20.480  0.00  0.00    +0.000 A 
ATOM      3  C   UNL     1       2.223   7.522  19.728  0.00  0.00    +0.000 A 
ATOM      4  C   UNL     1       2.451   7.742  18.377  0.00  0.00    +0.000 A 
ATOM      5  C   UNL     1       1.838   8.853  17.761  0.00  0.00    +0.000 A 
ATOM      6  C   UNL     1       1.018   9.681  18.534  0.00  0.00    +0.000 A 
ENDROOT
BRANCH   1  13
ATOM      7  C   UNL     1      -1.936  13.863  23.630  0.00  0.00    +0.000 C 
ATOM      8  O   UNL     1      -0.761  13.987  23.906  0.00  0.00    +0.000 OA
ATOM      9  N   UNL     1      -2.490  12.914  22.787  0.00  0.00    +0.000 N 
ATOM     10  C   UNL     1      -1.690  12.011  22.104  0.00  0.00    +0.000 A 
ATOM     11  C   UNL     1      -0.903  11.100  22.799  0.00  0.00    +0.000 A 
ATOM     12  C   UNL     1      -0.083  10.242  22.078  0.00  0.00    +0.000 A 
ATOM     13  C   UNL     1      -0.071  10.304  20.685  0.00  0.00    +0.000 A 
ATOM     14  C   UNL     1      -0.934  11.225  20.093  0.00  0.00    +0.000 A 
ATOM     15  N   UNL     1      -1.771  12.046  20.761  0.00  0.00    +0.000 NA
ATOM     16  H   UNL     1      -3.379  13.121  22.353  0.00  0.00    +0.000 HD
BRANCH   7  17
ATOM     17  C   UNL     1      -2.994  14.776  24.281  0.00  0.00    +0.000 C 
BRANCH  17  19
ATOM     18  C   UNL     1      -3.039  16.537  22.612  0.00  0.00    +0.000 C 
ATOM     19  N   UNL     1      -3.788  15.434  23.224  0.00  0.00    +0.000 NA
ATOM     20  H   UNL     1      -4.034  14.753  22.519  0.00  0.00    +0.000 HD
ENDBRANCH  17  19
ENDBRANCH   7  17
ENDBRANCH   1  13
BRANCH   4  21
ATOM     21  O   UNL     1       3.254   6.899  17.633  0.00  0.00    +0.000 OA
BRANCH  21  22
ATOM     22  C   UNL     1       4.151   6.116  18.465  0.00  0.00    +0.000 C 
BRANCH  22  23
ATOM     23  C   UNL     1       3.985   4.594  18.232  0.00  0.00    +0.000 C 
BRANCH  23  24
ATOM     24  C   UNL     1       3.133   3.946  19.339  0.00  0.00    +0.000 A 
ATOM     25  C   UNL     1       3.699   3.216  20.407  0.00  0.00    +0.000 A 
ATOM     26  C   UNL     1       2.893   2.633  21.390  0.00  0.00    +0.000 A 
ATOM     27  C   UNL     1       1.521   2.788  21.340  0.00  0.00    +0.000 A 
ATOM     28  F   UNL     1       0.756   2.229  22.286  0.00  0.00    +0.000 F 
ATOM     29  C   UNL     1       0.926   3.500  20.311  0.00  0.00    +0.000 A 
ATOM     30  C   UNL     1       1.735   4.062  19.328  0.00  0.00    +0.000 A 
ATOM     31  F   UNL     1       1.111   4.690  18.317  0.00  0.00    +0.000 F 
ENDBRANCH  23  24
BRANCH  23  32
ATOM     32  O   UNL     1       3.223   4.435  17.009  0.00  0.00    +0.000 OA
ATOM     33  H   UNL     1       3.139   5.308  16.600  0.00  0.00    +0.000 HD
ENDBRANCH  23  32
BRANCH  23  34
ATOM     34  C   UNL     1       5.368   3.915  18.013  0.00  0.00    +0.000 C 
BRANCH  34  35
ATOM     35  N   UNL     1       6.109   4.277  16.826  0.00  0.00    +0.000 N 
ATOM     36  C   UNL     1       7.282   4.954  16.754  0.00  0.00    +0.000 A 
ATOM     37  N   UNL     1       7.570   5.201  15.497  0.00  0.00    +0.000 NA
ATOM     38  C   UNL     1       6.583   4.540  14.826  0.00  0.00    +0.000 A 
ATOM     39  N   UNL     1       5.724   3.872  15.603  0.00  0.00    +0.000 NA
ENDBRANCH  34  35
ENDBRANCH  23  34
ENDBRANCH  22  23
ENDBRANCH  21  22
ENDBRANCH   4  21
TORSDOF 10
ENDMDL
MODEL 8
REMARK VINA RESULT:      -9.0      1.548      1.872
REMARK  Name = 
REMARK  11 active torsions:
REMARK  status: ('A' for Active; 'I' for Inactive)
REMARK    1  A    between atoms: C_1  and  N_2
REMARK    2  A    between atoms: N_2  and  C_3
REMARK    3  A    between atoms: C_3  and  C_4
REMARK    4  A    between atoms: C_10  and  C_11
REMARK    5  A    between atoms: C_14  and  O_15
REMARK    6  A    between atoms: O_15  and  C_16
REMARK    7  A    between atoms: C_16  and  C_17
REMARK    8  A    between atoms: C_17  and  O_18
REMARK    9  A    between atoms: C_17  and  C_19
REMARK   10  A    between atoms: C_17  and  C_25
REMARK   11  A    between atoms: C_19  and  N_20
REMARK                            x       y       z     vdW  Elec       q    Type
REMARK                         _______ _______ _______ _____ _____    ______ ____
ROOT
ATOM      1  C   UNL     1       1.052   9.297  19.773  0.00  0.00    +0.000 A 
ATOM      2  C   UNL     1       1.473   8.191  20.518  0.00  0.00    +0.000 A 
ATOM      3  C   UNL     1       2.233   7.230  19.924  0.00  0.00    +0.000 A 
ATOM      4  C   UNL     1       2.610   7.286  18.590  0.00  0.00    +0.000 A 
ATOM      5  C   UNL     1       2.206   8.397  17.821  0.00  0.00    +0.000 A 
ATOM      6  C   UNL     1       1.434   9.391  18.430  0.00  0.00    +0.000 A 
ENDROOT
BRANCH   1  13
ATOM      7  C   UNL     1      -1.398  14.415  22.763  0.00  0.00    +0.000 C 
ATOM      8  O   UNL     1      -0.235  14.457  23.105  0.00  0.00    +0.000 OA
ATOM      9  N   UNL     1      -2.000  13.428  22.001  0.00  0.00    +0.000 N 
ATOM     10  C   UNL     1      -1.263  12.373  21.487  0.00  0.00    +0.000 A 
ATOM     11  C   UNL     1      -0.618  11.483  22.338  0.00  0.00    +0.000 A 
ATOM     12  C   UNL     1       0.146  10.465  21.783  0.00  0.00    +0.000 A 
ATOM     13  C   UNL     1       0.245  10.351  20.396  0.00  0.00    +0.000 A 
ATOM     14  C   UNL     1      -0.479  11.273  19.640  0.00  0.00    +0.000 A 
ATOM     15  N   UNL     1      -1.261  12.248  20.147  0.00  0.00    +0.000 NA
ATOM     16  H   UNL     1      -2.836  13.666  21.483  0.00  0.00    +0.000 HD
BRANCH   7  17
ATOM     17  C   UNL     1      -2.389  15.502  23.226  0.00  0.00    +0.000 C 
BRANCH  17  19
ATOM     18  C   UNL     1      -2.817  14.928  25.544  0.00  0.00    +0.000 C 
ATOM     19  N   UNL     1      -3.351  14.912  24.178  0.00  0.00    +0.000 NA
ATOM     20  H   UNL     1      -4.217  15.432  24.141  0.00  0.00    +0.000 HD
ENDBRANCH  17  19
ENDBRANCH   7  17
ENDBRANCH   1  13
BRANCH   4  21
ATOM     21  O   UNL     1       3.360   6.282  18.008  0.00  0.00    +0.000 OA
BRANCH  21  22
ATOM     22  C   UNL     1       4.203   5.596  18.971  0.00  0.00    +0.000 C 
BRANCH  22  23
ATOM     23  C   UNL     1       4.742   4.251  18.421  0.00  0.00    +0.000 C 
BRANCH  23  24
ATOM     24  C   UNL     1       5.468   4.443  17.079  0.00  0.00    +0.000 A 
ATOM     25  C   UNL     1       4.943   3.976  15.853  0.00  0.00    +0.000 A 
ATOM     26  C   UNL     1       5.635   4.160  14.653  0.00  0.00    +0.000 A 
ATOM     27  C   UNL     1       6.844   4.831  14.649  0.00  0.00    +0.000 A 
ATOM     28  F   UNL     1       7.500   5.005  13.495  0.00  0.00    +0.000 F 
ATOM     29  C   UNL     1       7.392   5.308  15.828  0.00  0.00    +0.000 A 
ATOM     30  C   UNL     1       6.704   5.105  17.020  0.00  0.00    +0.000 A 
ATOM     31  F   UNL     1       7.304   5.531  18.145  0.00  0.00    +0.000 F 
ENDBRANCH  23  24
BRANCH  23  32
ATOM     32  O   UNL     1       5.755   3.791  19.352  0.00  0.00    +0.000 OA
ATOM     33  H   UNL     1       6.286   4.557  19.610  0.00  0.00    +0.000 HD
ENDBRANCH  23  32
BRANCH  23  34
ATOM     34  C   UNL     1       3.615   3.177  18.389  0.00  0.00    +0.000 C 
BRANCH  34  35
ATOM     35  N   UNL     1       2.758   3.073  19.548  0.00  0.00    +0.000 N 
ATOM     36  C   UNL     1       1.431   3.339  19.627  0.00  0.00    +0.000 A 
ATOM     37  N   UNL     1       1.039   3.250  20.877  0.00  0.00    +0.000 NA
ATOM     38  C   UNL     1       2.160   2.804  21.514  0.00  0.00    +0.000 A 
ATOM     39  N   UNL     1       3.210   2.583  20.716  0.00  0.00    +0.000 NA
ENDBRANCH  34  35
ENDBRANCH  23  34
ENDBRANCH  22  23
ENDBRANCH  21  22
ENDBRANCH   4  21
TORSDOF 10
ENDMDL
MODEL 9
REMARK VINA RESULT:      -9.0      1.196      1.313
REMARK  Name = 
REMARK  11 active torsions:
REMARK  status: ('A' for Active; 'I' for Inactive)
REMARK    1  A    between atoms: C_1  and  N_2
REMARK    2  A    between atoms: N_2  and  C_3
REMARK    3  A    between atoms: C_3  and  C_4
REMARK    4  A    between atoms: C_10  and  C_11
REMARK    5  A    between atoms: C_14  and  O_15
REMARK    6  A    between atoms: O_15  and  C_16
REMARK    7  A    between atoms: C_16  and  C_17
REMARK    8  A    between atoms: C_17  and  O_18
REMARK    9  A    between atoms: C_17  and  C_19
REMARK   10  A    between atoms: C_17  and  C_25
REMARK   11  A    between atoms: C_19  and  N_20
REMARK                            x       y       z     vdW  Elec       q    Type
REMARK                         _______ _______ _______ _____ _____    ______ ____
ROOT
ATOM      1  C   UNL     1       1.139   9.403  19.555  0.00  0.00    +0.000 A 
ATOM      2  C   UNL     1       1.603   9.471  18.238  0.00  0.00    +0.000 A 
ATOM      3  C   UNL     1       2.327   8.439  17.724  0.00  0.00    +0.000 A 
ATOM      4  C   UNL     1       2.646   7.305  18.457  0.00  0.00    +0.000 A 
ATOM      5  C   UNL     1       2.181   7.208  19.786  0.00  0.00    +0.000 A 
ATOM      6  C   UNL     1       1.428   8.261  20.313  0.00  0.00    +0.000 A 
ENDROOT
BRANCH   1  13
ATOM      7  C   UNL     1      -2.999  13.289  22.540  0.00  0.00    +0.000 C 
ATOM      8  O   UNL     1      -3.568  12.220  22.602  0.00  0.00    +0.000 OA
ATOM      9  N   UNL     1      -1.806  13.554  21.887  0.00  0.00    +0.000 N 
ATOM     10  C   UNL     1      -1.094  12.541  21.262  0.00  0.00    +0.000 A 
ATOM     11  C   UNL     1      -1.652  11.838  20.201  0.00  0.00    +0.000 A 
ATOM     12  C   UNL     1      -0.924  10.803  19.631  0.00  0.00    +0.000 A 
ATOM     13  C   UNL     1       0.345  10.496  20.123  0.00  0.00    +0.000 A 
ATOM     14  C   UNL     1       0.822  11.296  21.162  0.00  0.00    +0.000 A 
ATOM     15  N   UNL     1       0.157  12.332  21.712  0.00  0.00    +0.000 NA
ATOM     16  H   UNL     1      -1.256  14.343  22.197  0.00  0.00    +0.000 HD
BRANCH   7  17
ATOM     17  C   UNL     1      -3.623  14.546  23.178  0.00  0.00    +0.000 C 
BRANCH  17  19
ATOM     18  C   UNL     1      -3.461  16.025  25.096  0.00  0.00    +0.000 C 
ATOM     19  N   UNL     1      -3.085  14.720  24.543  0.00  0.00    +0.000 NA
ATOM     20  H   UNL     1      -3.438  13.981  25.136  0.00  0.00    +0.000 HD
ENDBRANCH  17  19
ENDBRANCH   7  17
ENDBRANCH   1  13
BRANCH   4  21
ATOM     21  O   UNL     1       3.405   6.285  17.918  0.00  0.00    +0.000 OA
BRANCH  21  22
ATOM     22  C   UNL     1       4.204   5.603  18.921  0.00  0.00    +0.000 C 
BRANCH  22  23
ATOM     23  C   UNL     1       4.780   4.264  18.397  0.00  0.00    +0.000 C 
BRANCH  23  24
ATOM     24  C   UNL     1       5.496   4.449  17.048  0.00  0.00    +0.000 A 
ATOM     25  C   UNL     1       4.976   3.951  15.833  0.00  0.00    +0.000 A 
ATOM     26  C   UNL     1       5.659   4.130  14.627  0.00  0.00    +0.000 A 
ATOM     27  C   UNL     1       6.853   4.826  14.606  0.00  0.00    +0.000 A 
ATOM     28  F   UNL     1       7.501   4.995  13.447  0.00  0.00    +0.000 F 
ATOM     29  C   UNL     1       7.397   5.334  15.775  0.00  0.00    +0.000 A 
ATOM     30  C   UNL     1       6.717   5.136  16.973  0.00  0.00    +0.000 A 
ATOM     31  F   UNL     1       7.313   5.592  18.088  0.00  0.00    +0.000 F 
ENDBRANCH  23  24
BRANCH  23  32
ATOM     32  O   UNL     1       5.808   3.852  19.333  0.00  0.00    +0.000 OA
ATOM     33  H   UNL     1       6.566   4.442  19.215  0.00  0.00    +0.000 HD
ENDBRANCH  23  32
BRANCH  23  34
ATOM     34  C   UNL     1       3.684   3.158  18.390  0.00  0.00    +0.000 C 
BRANCH  34  35
ATOM     35  N   UNL     1       2.831   3.056  19.553  0.00  0.00    +0.000 N 
ATOM     36  C   UNL     1       1.491   3.255  19.619  0.00  0.00    +0.000 A 
ATOM     37  N   UNL     1       1.100   3.198  20.870  0.00  0.00    +0.000 NA
ATOM     38  C   UNL     1       2.240   2.838  21.527  0.00  0.00    +0.000 A 
ATOM     39  N   UNL     1       3.303   2.640  20.740  0.00  0.00    +0.000 NA
ENDBRANCH  34  35
ENDBRANCH  23  34
ENDBRANCH  22  23
ENDBRANCH  21  22
ENDBRANCH   4  21
TORSDOF 10
ENDMDL
