MODEL 1
REMARK VINA RESULT:      -7.5      0.000      0.000
REMARK  Name = 
REMARK  6 active torsions:
REMARK  status: ('A' for Active; 'I' for Inactive)
REMARK    1  A    between atoms: C_2  and  C_12
REMARK    2  A    between atoms: N_3  and  C_4
REMARK    3  A    between atoms: C_8  and  C_9
REMARK    4  A    between atoms: C_9  and  O_11
REMARK    5  A    between atoms: C_16  and  O_17
REMARK    6  A    between atoms: O_17  and  C_18
REMARK                            x       y       z     vdW  Elec       q    Type
REMARK                         _______ _______ _______ _____ _____    ______ ____
ROOT
ATOM      1  O   UNL     1       3.386   5.890  20.103  0.00  0.00    +0.000 OA
ATOM      2  C   UNL     1       2.766   6.602  19.324  0.00  0.00    +0.000 C 
ATOM      3  N   UNL     1       2.798   6.476  17.940  0.00  0.00    +0.000 N 
ATOM      4  H   UNL     1       2.742   7.347  17.424  0.00  0.00    +0.000 HD
ENDROOT
BRANCH   2   5
ATOM      5  C   UNL     1       1.925   7.694  19.856  0.00  0.00    +0.000 A 
ATOM      6  C   UNL     1       1.476   7.716  21.179  0.00  0.00    +0.000 A 
ATOM      7  C   UNL     1       0.696   8.788  21.621  0.00  0.00    +0.000 A 
ATOM      8  C   UNL     1       0.318   9.794  20.729  0.00  0.00    +0.000 A 
ATOM      9  C   UNL     1       0.738   9.746  19.399  0.00  0.00    +0.000 A 
ATOM     10  C   UNL     1       1.611   8.740  18.987  0.00  0.00    +0.000 A 
BRANCH   9  11
ATOM     11  O   UNL     1       0.270  10.723  18.548  0.00  0.00    +0.000 OA
BRANCH  11  12
ATOM     12  C   UNL     1      -1.061  10.688  18.177  0.00  0.00    +0.000 A 
ATOM     13  C   UNL     1      -1.590   9.799  17.232  0.00  0.00    +0.000 A 
ATOM     14  C   UNL     1      -2.931   9.883  16.860  0.00  0.00    +0.000 A 
ATOM     15  C   UNL     1      -3.767  10.805  17.483  0.00  0.00    +0.000 A 
ATOM     16  C   UNL     1      -3.263  11.643  18.478  0.00  0.00    +0.000 A 
ATOM     17  C   UNL     1      -1.911  11.588  18.823  0.00  0.00    +0.000 A 
ENDBRANCH  11  12
ENDBRANCH   9  11
ENDBRANCH   2   5
BRANCH   3  18
ATOM     18  C   UNL     1       3.635   5.513  17.404  0.00  0.00    +0.000 A 
ATOM     19  S   UNL     1       5.099   6.136  16.817  0.00  0.00    +0.000 S 
ATOM     20  C   UNL     1       5.738   4.565  16.595  0.00  0.00    +0.000 A 
ATOM     21  C   UNL     1       4.787   3.599  16.837  0.00  0.00    +0.000 A 
ATOM     22  C   UNL     1       3.518   4.139  17.263  0.00  0.00    +0.000 A 
BRANCH  22  23
ATOM     23  C   UNL     1       2.334   3.307  17.477  0.00  0.00    +0.000 C 
ATOM     24  O   UNL     1       1.215   3.782  17.636  0.00  0.00    +0.000 OA
BRANCH  23  25
ATOM     25  O   UNL     1       2.549   1.973  17.637  0.00  0.00    +0.000 OA
ATOM     26  H   UNL     1       1.722   1.512  17.853  0.00  0.00    +0.000 HD
ENDBRANCH  23  25
ENDBRANCH  22  23
ENDBRANCH   3  18
TORSDOF 6
ENDMDL
MODEL 2
REMARK VINA RESULT:      -7.5      2.034      2.733
REMARK  Name = 
REMARK  6 active torsions:
REMARK  status: ('A' for Active; 'I' for Inactive)
REMARK    1  A    between atoms: C_2  and  C_12
REMARK    2  A    between atoms: N_3  and  C_4
REMARK    3  A    between atoms: C_8  and  C_9
REMARK    4  A    between atoms: C_9  and  O_11
REMARK    5  A    between atoms: C_16  and  O_17
REMARK    6  A    between atoms: O_17  and  C_18
REMARK                            x       y       z     vdW  Elec       q    Type
REMARK                         _______ _______ _______ _____ _____    ______ ____
ROOT
ATOM      1  O   UNL     1       2.477   6.661  18.218  0.00  0.00    +0.000 OA
ATOM      2  C   UNL     1       2.366   6.812  19.428  0.00  0.00    +0.000 C 
ATOM      3  N   UNL     1       2.800   5.899  20.383  0.00  0.00    +0.000 N 
ATOM      4  H   UNL     1       2.219   5.829  21.211  0.00  0.00    +0.000 HD
ENDROOT
BRANCH   2   5
ATOM      5  C   UNL     1       1.713   8.031  19.947  0.00  0.00    +0.000 A 
ATOM      6  C   UNL     1       1.491   8.238  21.312  0.00  0.00    +0.000 A 
ATOM      7  C   UNL     1       0.883   9.421  21.736  0.00  0.00    +0.000 A 
ATOM      8  C   UNL     1       0.443  10.359  20.797  0.00  0.00    +0.000 A 
ATOM      9  C   UNL     1       0.634  10.128  19.434  0.00  0.00    +0.000 A 
ATOM     10  C   UNL     1       1.344   9.004  19.017  0.00  0.00    +0.000 A 
BRANCH   9  11
ATOM     11  O   UNL     1       0.110  11.051  18.555  0.00  0.00    +0.000 OA
BRANCH  11  12
ATOM     12  C   UNL     1      -1.238  10.984  18.259  0.00  0.00    +0.000 A 
ATOM     13  C   UNL     1      -2.202  11.852  18.786  0.00  0.00    +0.000 A 
ATOM     14  C   UNL     1      -3.553  11.666  18.495  0.00  0.00    +0.000 A 
ATOM     15  C   UNL     1      -3.940  10.657  17.618  0.00  0.00    +0.000 A 
ATOM     16  C   UNL     1      -2.977   9.835  17.031  0.00  0.00    +0.000 A 
ATOM     17  C   UNL     1      -1.628   9.995  17.354  0.00  0.00    +0.000 A 
ENDBRANCH  11  12
ENDBRANCH   9  11
ENDBRANCH   2   5
BRANCH   3  18
ATOM     18  C   UNL     1       3.347   4.711  19.931  0.00  0.00    +0.000 A 
ATOM     19  S   UNL     1       2.361   3.359  20.211  0.00  0.00    +0.000 S 
ATOM     20  C   UNL     1       3.362   2.364  19.246  0.00  0.00    +0.000 A 
ATOM     21  C   UNL     1       4.496   3.035  18.843  0.00  0.00    +0.000 A 
ATOM     22  C   UNL     1       4.534   4.409  19.282  0.00  0.00    +0.000 A 
BRANCH  22  23
ATOM     23  C   UNL     1       5.687   5.281  19.059  0.00  0.00    +0.000 C 
ATOM     24  O   UNL     1       6.666   5.283  19.798  0.00  0.00    +0.000 OA
BRANCH  23  25
ATOM     25  O   UNL     1       5.568   6.204  18.066  0.00  0.00    +0.000 OA
ATOM     26  H   UNL     1       6.294   6.120  17.426  0.00  0.00    +0.000 HD
ENDBRANCH  23  25
ENDBRANCH  22  23
ENDBRANCH   3  18
TORSDOF 6
ENDMDL
MODEL 3
REMARK VINA RESULT:      -7.4      1.578      2.010
REMARK  Name = 
REMARK  6 active torsions:
REMARK  status: ('A' for Active; 'I' for Inactive)
REMARK    1  A    between atoms: C_2  and  C_12
REMARK    2  A    between atoms: N_3  and  C_4
REMARK    3  A    between atoms: C_8  and  C_9
REMARK    4  A    between atoms: C_9  and  O_11
REMARK    5  A    between atoms: C_16  and  O_17
REMARK    6  A    between atoms: O_17  and  C_18
REMARK                            x       y       z     vdW  Elec       q    Type
REMARK                         _______ _______ _______ _____ _____    ______ ____
ROOT
ATOM      1  O   UNL     1       2.279   6.979  18.167  0.00  0.00    +0.000 OA
ATOM      2  C   UNL     1       2.225   7.060  19.387  0.00  0.00    +0.000 C 
ATOM      3  N   UNL     1       2.718   6.103  20.268  0.00  0.00    +0.000 N 
ATOM      4  H   UNL     1       2.179   5.978  21.117  0.00  0.00    +0.000 HD
ENDROOT
BRANCH   2   5
ATOM      5  C   UNL     1       1.582   8.238  20.005  0.00  0.00    +0.000 A 
ATOM      6  C   UNL     1       1.413   8.359  21.388  0.00  0.00    +0.000 A 
ATOM      7  C   UNL     1       0.810   9.507  21.907  0.00  0.00    +0.000 A 
ATOM      8  C   UNL     1       0.327  10.496  21.046  0.00  0.00    +0.000 A 
ATOM      9  C   UNL     1       0.466  10.351  19.665  0.00  0.00    +0.000 A 
ATOM     10  C   UNL     1       1.169   9.262  19.152  0.00  0.00    +0.000 A 
BRANCH   9  11
ATOM     11  O   UNL     1      -0.100  11.319  18.864  0.00  0.00    +0.000 OA
BRANCH  11  12
ATOM     12  C   UNL     1      -1.408  11.149  18.453  0.00  0.00    +0.000 A 
ATOM     13  C   UNL     1      -2.484  11.916  18.919  0.00  0.00    +0.000 A 
ATOM     14  C   UNL     1      -3.785  11.627  18.510  0.00  0.00    +0.000 A 
ATOM     15  C   UNL     1      -4.010  10.619  17.578  0.00  0.00    +0.000 A 
ATOM     16  C   UNL     1      -2.935   9.900  17.054  0.00  0.00    +0.000 A 
ATOM     17  C   UNL     1      -1.636  10.161  17.494  0.00  0.00    +0.000 A 
ENDBRANCH  11  12
ENDBRANCH   9  11
ENDBRANCH   2   5
BRANCH   3  18
ATOM     18  C   UNL     1       3.257   4.951  19.724  0.00  0.00    +0.000 A 
ATOM     19  S   UNL     1       4.896   5.096  19.312  0.00  0.00    +0.000 S 
ATOM     20  C   UNL     1       5.024   3.417  19.013  0.00  0.00    +0.000 A 
ATOM     21  C   UNL     1       3.795   2.799  19.095  0.00  0.00    +0.000 A 
ATOM     22  C   UNL     1       2.726   3.697  19.461  0.00  0.00    +0.000 A 
BRANCH  22  23
ATOM     23  C   UNL     1       1.325   3.283  19.508  0.00  0.00    +0.000 C 
ATOM     24  O   UNL     1       0.841   2.498  18.699  0.00  0.00    +0.000 OA
BRANCH  23  25
ATOM     25  O   UNL     1       0.532   3.921  20.412  0.00  0.00    +0.000 OA
ATOM     26  H   UNL     1      -0.398   3.662  20.302  0.00  0.00    +0.000 HD
ENDBRANCH  23  25
ENDBRANCH  22  23
ENDBRANCH   3  18
TORSDOF 6
ENDMDL
MODEL 4
REMARK VINA RESULT:      -7.4      1.853      2.240
REMARK  Name = 
REMARK  6 active torsions:
REMARK  status: ('A' for Active; 'I' for Inactive)
REMARK    1  A    between atoms: C_2  and  C_12
REMARK    2  A    between atoms: N_3  and  C_4
REMARK    3  A    between atoms: C_8  and  C_9
REMARK    4  A    between atoms: C_9  and  O_11
REMARK    5  A    between atoms: C_16  and  O_17
REMARK    6  A    between atoms: O_17  and  C_18
REMARK                            x       y       z     vdW  Elec       q    Type
REMARK                         _______ _______ _______ _____ _____    ______ ____
ROOT
ATOM      1  O   UNL     1       2.797   6.706  17.821  0.00  0.00    +0.000 OA
ATOM      2  C   UNL     1       2.379   6.592  18.966  0.00  0.00    +0.000 C 
ATOM      3  N   UNL     1       2.376   5.406  19.692  0.00  0.00    +0.000 N 
ATOM      4  H   UNL     1       1.584   5.281  20.313  0.00  0.00    +0.000 HD
ENDROOT
BRANCH   2   5
ATOM      5  C   UNL     1       1.816   7.773  19.651  0.00  0.00    +0.000 A 
ATOM      6  C   UNL     1       1.706   7.849  21.043  0.00  0.00    +0.000 A 
ATOM      7  C   UNL     1       1.178   9.002  21.627  0.00  0.00    +0.000 A 
ATOM      8  C   UNL     1       0.708  10.044  20.822  0.00  0.00    +0.000 A 
ATOM      9  C   UNL     1       0.786   9.945  19.433  0.00  0.00    +0.000 A 
ATOM     10  C   UNL     1       1.418   8.846  18.853  0.00  0.00    +0.000 A 
BRANCH   9  11
ATOM     11  O   UNL     1       0.235  10.967  18.691  0.00  0.00    +0.000 OA
BRANCH  11  12
ATOM     12  C   UNL     1      -1.087  10.859  18.304  0.00  0.00    +0.000 A 
ATOM     13  C   UNL     1      -1.553   9.948  17.347  0.00  0.00    +0.000 A 
ATOM     14  C   UNL     1      -2.892   9.958  16.959  0.00  0.00    +0.000 A 
ATOM     15  C   UNL     1      -3.787  10.827  17.578  0.00  0.00    +0.000 A 
ATOM     16  C   UNL     1      -3.343  11.685  18.584  0.00  0.00    +0.000 A 
ATOM     17  C   UNL     1      -1.994  11.705  18.945  0.00  0.00    +0.000 A 
ENDBRANCH  11  12
ENDBRANCH   9  11
ENDBRANCH   2   5
BRANCH   3  18
ATOM     18  C   UNL     1       2.825   4.263  19.054  0.00  0.00    +0.000 A 
ATOM     19  S   UNL     1       1.589   3.161  18.685  0.00  0.00    +0.000 S 
ATOM     20  C   UNL     1       2.649   2.212  17.736  0.00  0.00    +0.000 A 
ATOM     21  C   UNL     1       3.946   2.667  17.826  0.00  0.00    +0.000 A 
ATOM     22  C   UNL     1       4.083   3.847  18.645  0.00  0.00    +0.000 A 
BRANCH  22  23
ATOM     23  C   UNL     1       5.379   4.445  18.965  0.00  0.00    +0.000 C 
ATOM     24  O   UNL     1       5.494   5.405  19.719  0.00  0.00    +0.000 OA
BRANCH  23  25
ATOM     25  O   UNL     1       6.452   3.975  18.273  0.00  0.00    +0.000 OA
ATOM     26  H   UNL     1       6.547   4.438  17.424  0.00  0.00    +0.000 HD
ENDBRANCH  23  25
ENDBRANCH  22  23
ENDBRANCH   3  18
TORSDOF 6
ENDMDL
MODEL 5
REMARK VINA RESULT:      -7.4      1.544      2.122
REMARK  Name = 
REMARK  6 active torsions:
REMARK  status: ('A' for Active; 'I' for Inactive)
REMARK    1  A    between atoms: C_2  and  C_12
REMARK    2  A    between atoms: N_3  and  C_4
REMARK    3  A    between atoms: C_8  and  C_9
REMARK    4  A    between atoms: C_9  and  O_11
REMARK    5  A    between atoms: C_16  and  O_17
REMARK    6  A    between atoms: O_17  and  C_18
REMARK                            x       y       z     vdW  Elec       q    Type
REMARK                         _______ _______ _______ _____ _____    ______ ____
ROOT
ATOM      1  O   UNL     1       2.915   5.277  18.358  0.00  0.00    +0.000 OA
ATOM      2  C   UNL     1       3.228   6.461  18.369  0.00  0.00    +0.000 C 
ATOM      3  N   UNL     1       4.367   6.984  17.765  0.00  0.00    +0.000 N 
ATOM      4  H   UNL     1       4.801   7.756  18.257  0.00  0.00    +0.000 HD
ENDROOT
BRANCH   2   5
ATOM      5  C   UNL     1       2.368   7.430  19.078  0.00  0.00    +0.000 A 
ATOM      6  C   UNL     1       1.965   7.243  20.403  0.00  0.00    +0.000 A 
ATOM      7  C   UNL     1       1.164   8.207  21.019  0.00  0.00    +0.000 A 
ATOM      8  C   UNL     1       0.719   9.316  20.294  0.00  0.00    +0.000 A 
ATOM      9  C   UNL     1       1.095   9.477  18.959  0.00  0.00    +0.000 A 
ATOM     10  C   UNL     1       1.987   8.577  18.380  0.00  0.00    +0.000 A 
BRANCH   9  11
ATOM     11  O   UNL     1       0.562  10.547  18.274  0.00  0.00    +0.000 OA
BRANCH  11  12
ATOM     12  C   UNL     1      -0.810  10.613  18.124  0.00  0.00    +0.000 A 
ATOM     13  C   UNL     1      -1.555   9.745  17.315  0.00  0.00    +0.000 A 
ATOM     14  C   UNL     1      -2.928   9.931  17.161  0.00  0.00    +0.000 A 
ATOM     15  C   UNL     1      -3.575  10.939  17.869  0.00  0.00    +0.000 A 
ATOM     16  C   UNL     1      -2.851  11.761  18.734  0.00  0.00    +0.000 A 
ATOM     17  C   UNL     1      -1.469  11.601  18.858  0.00  0.00    +0.000 A 
ENDBRANCH  11  12
ENDBRANCH   9  11
ENDBRANCH   2   5
BRANCH   3  18
ATOM     18  C   UNL     1       5.236   6.094  17.158  0.00  0.00    +0.000 A 
ATOM     19  S   UNL     1       5.238   6.195  15.465  0.00  0.00    +0.000 S 
ATOM     20  C   UNL     1       6.598   5.164  15.353  0.00  0.00    +0.000 A 
ATOM     21  C   UNL     1       6.941   4.652  16.585  0.00  0.00    +0.000 A 
ATOM     22  C   UNL     1       6.114   5.146  17.660  0.00  0.00    +0.000 A 
BRANCH  22  23
ATOM     23  C   UNL     1       6.229   4.662  19.036  0.00  0.00    +0.000 C 
ATOM     24  O   UNL     1       7.008   5.156  19.845  0.00  0.00    +0.000 OA
BRANCH  23  25
ATOM     25  O   UNL     1       5.532   3.535  19.345  0.00  0.00    +0.000 OA
ATOM     26  H   UNL     1       5.325   3.025  18.545  0.00  0.00    +0.000 HD
ENDBRANCH  23  25
ENDBRANCH  22  23
ENDBRANCH   3  18
TORSDOF 6
ENDMDL
MODEL 6
REMARK VINA RESULT:      -7.2      1.475      1.563
REMARK  Name = 
REMARK  6 active torsions:
REMARK  status: ('A' for Active; 'I' for Inactive)
REMARK    1  A    between atoms: C_2  and  C_12
REMARK    2  A    between atoms: N_3  and  C_4
REMARK    3  A    between atoms: C_8  and  C_9
REMARK    4  A    between atoms: C_9  and  O_11
REMARK    5  A    between atoms: C_16  and  O_17
REMARK    6  A    between atoms: O_17  and  C_18
REMARK                            x       y       z     vdW  Elec       q    Type
REMARK                         _______ _______ _______ _____ _____    ______ ____
ROOT
ATOM      1  O   UNL     1       2.439   7.367  18.188  0.00  0.00    +0.000 OA
ATOM      2  C   UNL     1       2.265   7.304  19.398  0.00  0.00    +0.000 C 
ATOM      3  N   UNL     1       2.692   6.256  20.206  0.00  0.00    +0.000 N 
ATOM      4  H   UNL     1       2.077   6.026  20.978  0.00  0.00    +0.000 HD
ENDROOT
BRANCH   2   5
ATOM      5  C   UNL     1       1.539   8.394  20.082  0.00  0.00    +0.000 A 
ATOM      6  C   UNL     1       1.352   8.414  21.467  0.00  0.00    +0.000 A 
ATOM      7  C   UNL     1       0.669   9.484  22.052  0.00  0.00    +0.000 A 
ATOM      8  C   UNL     1       0.125  10.490  21.249  0.00  0.00    +0.000 A 
ATOM      9  C   UNL     1       0.283  10.443  19.863  0.00  0.00    +0.000 A 
ATOM     10  C   UNL     1       1.062   9.439  19.291  0.00  0.00    +0.000 A 
BRANCH   9  11
ATOM     11  O   UNL     1      -0.342  11.420  19.119  0.00  0.00    +0.000 OA
BRANCH  11  12
ATOM     12  C   UNL     1      -1.565  11.126  18.545  0.00  0.00    +0.000 A 
ATOM     13  C   UNL     1      -1.758  10.141  17.568  0.00  0.00    +0.000 A 
ATOM     14  C   UNL     1      -3.012   9.962  16.986  0.00  0.00    +0.000 A 
ATOM     15  C   UNL     1      -4.095  10.715  17.428  0.00  0.00    +0.000 A 
ATOM     16  C   UNL     1      -3.925  11.647  18.453  0.00  0.00    +0.000 A 
ATOM     17  C   UNL     1      -2.661  11.856  19.008  0.00  0.00    +0.000 A 
ENDBRANCH  11  12
ENDBRANCH   9  11
ENDBRANCH   2   5
BRANCH   3  18
ATOM     18  C   UNL     1       3.308   5.182  19.588  0.00  0.00    +0.000 A 
ATOM     19  S   UNL     1       4.957   5.430  19.278  0.00  0.00    +0.000 S 
ATOM     20  C   UNL     1       5.173   3.792  18.834  0.00  0.00    +0.000 A 
ATOM     21  C   UNL     1       3.971   3.121  18.794  0.00  0.00    +0.000 A 
ATOM     22  C   UNL     1       2.847   3.938  19.184  0.00  0.00    +0.000 A 
BRANCH  22  23
ATOM     23  C   UNL     1       1.464   3.466  19.120  0.00  0.00    +0.000 C 
ATOM     24  O   UNL     1       0.627   3.760  19.967  0.00  0.00    +0.000 OA
BRANCH  23  25
ATOM     25  O   UNL     1       1.175   2.561  18.145  0.00  0.00    +0.000 OA
ATOM     26  H   UNL     1       1.855   2.569  17.452  0.00  0.00    +0.000 HD
ENDBRANCH  23  25
ENDBRANCH  22  23
ENDBRANCH   3  18
TORSDOF 6
ENDMDL
MODEL 7
REMARK VINA RESULT:      -7.2      1.785      2.757
REMARK  Name = 
REMARK  6 active torsions:
REMARK  status: ('A' for Active; 'I' for Inactive)
REMARK    1  A    between atoms: C_2  and  C_12
REMARK    2  A    between atoms: N_3  and  C_4
REMARK    3  A    between atoms: C_8  and  C_9
REMARK    4  A    between atoms: C_9  and  O_11
REMARK    5  A    between atoms: C_16  and  O_17
REMARK    6  A    between atoms: O_17  and  C_18
REMARK                            x       y       z     vdW  Elec       q    Type
REMARK                         _______ _______ _______ _____ _____    ______ ____
ROOT
ATOM      1  O   UNL     1       3.484   4.924  19.030  0.00  0.00    +0.000 OA
ATOM      2  C   UNL     1       3.563   6.101  18.701  0.00  0.00    +0.000 C 
ATOM      3  N   UNL     1       4.510   6.615  17.822  0.00  0.00    +0.000 N 
ATOM      4  H   UNL     1       4.836   7.550  18.036  0.00  0.00    +0.000 HD
ENDROOT
BRANCH   2   5
ATOM      5  C   UNL     1       2.612   7.076  19.271  0.00  0.00    +0.000 A 
ATOM      6  C   UNL     1       2.012   6.894  20.521  0.00  0.00    +0.000 A 
ATOM      7  C   UNL     1       1.133   7.864  21.008  0.00  0.00    +0.000 A 
ATOM      8  C   UNL     1       0.810   8.975  20.223  0.00  0.00    +0.000 A 
ATOM      9  C   UNL     1       1.383   9.130  18.960  0.00  0.00    +0.000 A 
ATOM     10  C   UNL     1       2.347   8.224  18.523  0.00  0.00    +0.000 A 
BRANCH   9  11
ATOM     11  O   UNL     1       0.966  10.202  18.202  0.00  0.00    +0.000 OA
BRANCH  11  12
ATOM     12  C   UNL     1      -0.387  10.479  18.143  0.00  0.00    +0.000 A 
ATOM     13  C   UNL     1      -1.318   9.700  17.445  0.00  0.00    +0.000 A 
ATOM     14  C   UNL     1      -2.653  10.094  17.374  0.00  0.00    +0.000 A 
ATOM     15  C   UNL     1      -3.080  11.227  18.060  0.00  0.00    +0.000 A 
ATOM     16  C   UNL     1      -2.171  11.967  18.818  0.00  0.00    +0.000 A 
ATOM     17  C   UNL     1      -0.825  11.596  18.856  0.00  0.00    +0.000 A 
ENDBRANCH  11  12
ENDBRANCH   9  11
ENDBRANCH   2   5
BRANCH   3  18
ATOM     18  C   UNL     1       5.464   5.744  17.328  0.00  0.00    +0.000 A 
ATOM     19  S   UNL     1       4.966   4.906  15.939  0.00  0.00    +0.000 S 
ATOM     20  C   UNL     1       6.542   4.292  15.682  0.00  0.00    +0.000 A 
ATOM     21  C   UNL     1       7.383   4.618  16.723  0.00  0.00    +0.000 A 
ATOM     22  C   UNL     1       6.752   5.431  17.735  0.00  0.00    +0.000 A 
BRANCH  22  23
ATOM     23  C   UNL     1       7.422   5.810  18.978  0.00  0.00    +0.000 C 
ATOM     24  O   UNL     1       7.127   5.319  20.063  0.00  0.00    +0.000 OA
BRANCH  23  25
ATOM     25  O   UNL     1       8.302   6.846  18.904  0.00  0.00    +0.000 OA
ATOM     26  H   UNL     1       9.097   6.590  18.408  0.00  0.00    +0.000 HD
ENDBRANCH  23  25
ENDBRANCH  22  23
ENDBRANCH   3  18
TORSDOF 6
ENDMDL
MODEL 8
REMARK VINA RESULT:      -7.2      1.687      2.651
REMARK  Name = 
REMARK  6 active torsions:
REMARK  status: ('A' for Active; 'I' for Inactive)
REMARK    1  A    between atoms: C_2  and  C_12
REMARK    2  A    between atoms: N_3  and  C_4
REMARK    3  A    between atoms: C_8  and  C_9
REMARK    4  A    between atoms: C_9  and  O_11
REMARK    5  A    between atoms: C_16  and  O_17
REMARK    6  A    between atoms: O_17  and  C_18
REMARK                            x       y       z     vdW  Elec       q    Type
REMARK                         _______ _______ _______ _____ _____    ______ ____
ROOT
ATOM      1  O   UNL     1       2.995   5.294  17.963  0.00  0.00    +0.000 OA
ATOM      2  C   UNL     1       3.368   6.448  18.133  0.00  0.00    +0.000 C 
ATOM      3  N   UNL     1       4.581   6.961  17.689  0.00  0.00    +0.000 N 
ATOM      4  H   UNL     1       5.010   7.648  18.299  0.00  0.00    +0.000 HD
ENDROOT
BRANCH   2   5
ATOM      5  C   UNL     1       2.500   7.386  18.874  0.00  0.00    +0.000 A 
ATOM      6  C   UNL     1       2.076   7.140  20.183  0.00  0.00    +0.000 A 
ATOM      7  C   UNL     1       1.268   8.078  20.831  0.00  0.00    +0.000 A 
ATOM      8  C   UNL     1       0.838   9.221  20.150  0.00  0.00    +0.000 A 
ATOM      9  C   UNL     1       1.234   9.441  18.831  0.00  0.00    +0.000 A 
ATOM     10  C   UNL     1       2.132   8.565  18.224  0.00  0.00    +0.000 A 
BRANCH   9  11
ATOM     11  O   UNL     1       0.715  10.544  18.188  0.00  0.00    +0.000 OA
BRANCH  11  12
ATOM     12  C   UNL     1      -0.658  10.697  18.153  0.00  0.00    +0.000 A 
ATOM     13  C   UNL     1      -1.354  11.701  18.838  0.00  0.00    +0.000 A 
ATOM     14  C   UNL     1      -2.748  11.737  18.810  0.00  0.00    +0.000 A 
ATOM     15  C   UNL     1      -3.450  10.815  18.038  0.00  0.00    +0.000 A 
ATOM     16  C   UNL     1      -2.759   9.858  17.294  0.00  0.00    +0.000 A 
ATOM     17  C   UNL     1      -1.365   9.796  17.354  0.00  0.00    +0.000 A 
ENDBRANCH  11  12
ENDBRANCH   9  11
ENDBRANCH   2   5
BRANCH   3  18
ATOM     18  C   UNL     1       5.453   6.090  17.059  0.00  0.00    +0.000 A 
ATOM     19  S   UNL     1       5.182   5.946  15.391  0.00  0.00    +0.000 S 
ATOM     20  C   UNL     1       6.629   5.059  15.180  0.00  0.00    +0.000 A 
ATOM     21  C   UNL     1       7.219   4.769  16.391  0.00  0.00    +0.000 A 
ATOM     22  C   UNL     1       6.512   5.322  17.520  0.00  0.00    +0.000 A 
BRANCH  22  23
ATOM     23  C   UNL     1       6.898   5.057  18.905  0.00  0.00    +0.000 C 
ATOM     24  O   UNL     1       6.090   5.068  19.829  0.00  0.00    +0.000 OA
BRANCH  23  25
ATOM     25  O   UNL     1       8.231   4.936  19.153  0.00  0.00    +0.000 OA
ATOM     26  H   UNL     1       8.654   4.358  18.497  0.00  0.00    +0.000 HD
ENDBRANCH  23  25
ENDBRANCH  22  23
ENDBRANCH   3  18
TORSDOF 6
ENDMDL
MODEL 9
REMARK VINA RESULT:      -7.2      0.325      1.162
REMARK  Name = 
REMARK  6 active torsions:
REMARK  status: ('A' for Active; 'I' for Inactive)
REMARK    1  A    between atoms: C_2  and  C_12
REMARK    2  A    between atoms: N_3  and  C_4
REMARK    3  A    between atoms: C_8  and  C_9
REMARK    4  A    between atoms: C_9  and  O_11
REMARK    5  A    between atoms: C_16  and  O_17
REMARK    6  A    between atoms: O_17  and  C_18
REMARK                            x       y       z     vdW  Elec       q    Type
REMARK                         _______ _______ _______ _____ _____    ______ ____
ROOT
ATOM      1  O   UNL     1       3.365   6.029  20.105  0.00  0.00    +0.000 OA
ATOM      2  C   UNL     1       2.726   6.721  19.324  0.00  0.00    +0.000 C 
ATOM      3  N   UNL     1       2.751   6.582  17.940  0.00  0.00    +0.000 N 
ATOM      4  H   UNL     1       2.676   7.447  17.417  0.00  0.00    +0.000 HD
ENDROOT
BRANCH   2   5
ATOM      5  C   UNL     1       1.867   7.802  19.850  0.00  0.00    +0.000 A 
ATOM      6  C   UNL     1       1.403   7.815  21.168  0.00  0.00    +0.000 A 
ATOM      7  C   UNL     1       0.608   8.876  21.606  0.00  0.00    +0.000 A 
ATOM      8  C   UNL     1       0.229   9.883  20.712  0.00  0.00    +0.000 A 
ATOM      9  C   UNL     1       0.665   9.844  19.387  0.00  0.00    +0.000 A 
ATOM     10  C   UNL     1       1.552   8.848  18.982  0.00  0.00    +0.000 A 
BRANCH   9  11
ATOM     11  O   UNL     1       0.196  10.819  18.535  0.00  0.00    +0.000 OA
BRANCH  11  12
ATOM     12  C   UNL     1      -1.150  10.824  18.221  0.00  0.00    +0.000 A 
ATOM     13  C   UNL     1      -2.071  11.751  18.724  0.00  0.00    +0.000 A 
ATOM     14  C   UNL     1      -3.426  11.637  18.415  0.00  0.00    +0.000 A 
ATOM     15  C   UNL     1      -3.857  10.641  17.544  0.00  0.00    +0.000 A 
ATOM     16  C   UNL     1      -2.934   9.759  16.981  0.00  0.00    +0.000 A 
ATOM     17  C   UNL     1      -1.582   9.847  17.322  0.00  0.00    +0.000 A 
ENDBRANCH  11  12
ENDBRANCH   9  11
ENDBRANCH   2   5
BRANCH   3  18
ATOM     18  C   UNL     1       3.603   5.630  17.408  0.00  0.00    +0.000 A 
ATOM     19  S   UNL     1       4.983   6.287  16.673  0.00  0.00    +0.000 S 
ATOM     20  C   UNL     1       5.695   4.741  16.509  0.00  0.00    +0.000 A 
ATOM     21  C   UNL     1       4.822   3.745  16.885  0.00  0.00    +0.000 A 
ATOM     22  C   UNL     1       3.558   4.245  17.369  0.00  0.00    +0.000 A 
BRANCH  22  23
ATOM     23  C   UNL     1       2.443   3.368  17.727  0.00  0.00    +0.000 C 
ATOM     24  O   UNL     1       2.169   2.357  17.089  0.00  0.00    +0.000 OA
BRANCH  23  25
ATOM     25  O   UNL     1       1.624   3.801  18.724  0.00  0.00    +0.000 OA
ATOM     26  H   UNL     1       1.004   3.103  18.991  0.00  0.00    +0.000 HD
ENDBRANCH  23  25
ENDBRANCH  22  23
ENDBRANCH   3  18
TORSDOF 6
ENDMDL
