MODEL 1
REMARK VINA RESULT:      -6.8      0.000      0.000
REMARK  Name = 
REMARK  5 active torsions:
REMARK  status: ('A' for Active; 'I' for Inactive)
REMARK    1  A    between atoms: O_1  and  C_2
REMARK    2  A    between atoms: C_2  and  C_3
REMARK    3  A    between atoms: C_6  and  O_7
REMARK    4  A    between atoms: O_7  and  C_8
REMARK    5  A    between atoms: C_8  and  C_9
REMARK                            x       y       z     vdW  Elec       q    Type
REMARK                         _______ _______ _______ _____ _____    ______ ____
ROOT
ATOM      1  C   UNL     1       6.462   5.093  15.291  0.00  0.00    +0.000 A 
ATOM      2  C   UNL     1       6.977   4.480  16.440  0.00  0.00    +0.000 A 
ATOM      3  C   UNL     1       6.384   4.687  17.683  0.00  0.00    +0.000 A 
ATOM      4  C   UNL     1       5.282   5.534  17.800  0.00  0.00    +0.000 A 
ATOM      5  C   UNL     1       4.747   6.131  16.658  0.00  0.00    +0.000 A 
ATOM      6  C   UNL     1       5.336   5.918  15.409  0.00  0.00    +0.000 A 
ENDROOT
BRANCH   1   7
ATOM      7  C   UNL     1       7.119   4.847  13.964  0.00  0.00    +0.000 C 
BRANCH   7   8
ATOM      8  O   UNL     1       8.244   5.705  13.850  0.00  0.00    +0.000 OA
ATOM      9  H   UNL     1       9.025   5.137  13.791  0.00  0.00    +0.000 HD
ENDBRANCH   7   8
ENDBRANCH   1   7
BRANCH   4  10
ATOM     10  O   UNL     1       4.652   5.835  18.977  0.00  0.00    +0.000 OA
BRANCH  10  11
ATOM     11  C   UNL     1       3.275   6.195  18.849  0.00  0.00    +0.000 C 
BRANCH  11  12
ATOM     12  C   UNL     1       2.420   5.000  19.186  0.00  0.00    +0.000 A 
ATOM     13  C   UNL     1       2.028   4.750  20.506  0.00  0.00    +0.000 A 
ATOM     14  C   UNL     1       1.211   3.658  20.799  0.00  0.00    +0.000 A 
ATOM     15  C   UNL     1       0.775   2.817  19.776  0.00  0.00    +0.000 A 
ATOM     16  C   UNL     1       1.151   3.066  18.457  0.00  0.00    +0.000 A 
ATOM     17  C   UNL     1       1.967   4.156  18.163  0.00  0.00    +0.000 A 
ENDBRANCH  11  12
ENDBRANCH  10  11
ENDBRANCH   4  10
TORSDOF 5
ENDMDL
MODEL 2
REMARK VINA RESULT:      -6.7      0.346      1.224
REMARK  Name = 
REMARK  5 active torsions:
REMARK  status: ('A' for Active; 'I' for Inactive)
REMARK    1  A    between atoms: O_1  and  C_2
REMARK    2  A    between atoms: C_2  and  C_3
REMARK    3  A    between atoms: C_6  and  O_7
REMARK    4  A    between atoms: O_7  and  C_8
REMARK    5  A    between atoms: C_8  and  C_9
REMARK                            x       y       z     vdW  Elec       q    Type
REMARK                         _______ _______ _______ _____ _____    ______ ____
ROOT
ATOM      1  C   UNL     1       6.449   4.996  15.282  0.00  0.00    +0.000 A 
ATOM      2  C   UNL     1       6.990   4.422  16.438  0.00  0.00    +0.000 A 
ATOM      3  C   UNL     1       6.407   4.646  17.684  0.00  0.00    +0.000 A 
ATOM      4  C   UNL     1       5.290   5.474  17.794  0.00  0.00    +0.000 A 
ATOM      5  C   UNL     1       4.731   6.034  16.645  0.00  0.00    +0.000 A 
ATOM      6  C   UNL     1       5.309   5.802  15.394  0.00  0.00    +0.000 A 
ENDROOT
BRANCH   1   7
ATOM      7  C   UNL     1       7.095   4.732  13.953  0.00  0.00    +0.000 C 
BRANCH   7   8
ATOM      8  O   UNL     1       8.125   5.688  13.752  0.00  0.00    +0.000 OA
ATOM      9  H   UNL     1       7.693   6.515  13.494  0.00  0.00    +0.000 HD
ENDBRANCH   7   8
ENDBRANCH   1   7
BRANCH   4  10
ATOM     10  O   UNL     1       4.670   5.791  18.971  0.00  0.00    +0.000 OA
BRANCH  10  11
ATOM     11  C   UNL     1       3.281   6.108  18.854  0.00  0.00    +0.000 C 
BRANCH  11  12
ATOM     12  C   UNL     1       2.466   4.952  19.373  0.00  0.00    +0.000 A 
ATOM     13  C   UNL     1       1.682   4.182  18.506  0.00  0.00    +0.000 A 
ATOM     14  C   UNL     1       0.957   3.096  18.994  0.00  0.00    +0.000 A 
ATOM     15  C   UNL     1       1.017   2.768  20.348  0.00  0.00    +0.000 A 
ATOM     16  C   UNL     1       1.805   3.521  21.217  0.00  0.00    +0.000 A 
ATOM     17  C   UNL     1       2.530   4.607  20.730  0.00  0.00    +0.000 A 
ENDBRANCH  11  12
ENDBRANCH  10  11
ENDBRANCH   4  10
TORSDOF 5
ENDMDL
MODEL 3
REMARK VINA RESULT:      -6.7      0.973      1.551
REMARK  Name = 
REMARK  5 active torsions:
REMARK  status: ('A' for Active; 'I' for Inactive)
REMARK    1  A    between atoms: O_1  and  C_2
REMARK    2  A    between atoms: C_2  and  C_3
REMARK    3  A    between atoms: C_6  and  O_7
REMARK    4  A    between atoms: O_7  and  C_8
REMARK    5  A    between atoms: C_8  and  C_9
REMARK                            x       y       z     vdW  Elec       q    Type
REMARK                         _______ _______ _______ _____ _____    ______ ____
ROOT
ATOM      1  C   UNL     1       5.987   4.894  15.103  0.00  0.00    +0.000 A 
ATOM      2  C   UNL     1       5.939   3.970  16.154  0.00  0.00    +0.000 A 
ATOM      3  C   UNL     1       5.350   4.306  17.371  0.00  0.00    +0.000 A 
ATOM      4  C   UNL     1       4.824   5.584  17.564  0.00  0.00    +0.000 A 
ATOM      5  C   UNL     1       4.847   6.504  16.516  0.00  0.00    +0.000 A 
ATOM      6  C   UNL     1       5.430   6.166  15.292  0.00  0.00    +0.000 A 
ENDROOT
BRANCH   1   7
ATOM      7  C   UNL     1       6.623   4.502  13.802  0.00  0.00    +0.000 C 
BRANCH   7   8
ATOM      8  O   UNL     1       6.284   3.153  13.520  0.00  0.00    +0.000 OA
ATOM      9  H   UNL     1       6.928   2.599  13.983  0.00  0.00    +0.000 HD
ENDBRANCH   7   8
ENDBRANCH   1   7
BRANCH   4  10
ATOM     10  O   UNL     1       4.263   6.026  18.731  0.00  0.00    +0.000 OA
BRANCH  10  11
ATOM     11  C   UNL     1       2.857   6.275  18.667  0.00  0.00    +0.000 C 
BRANCH  11  12
ATOM     12  C   UNL     1       2.116   5.030  19.079  0.00  0.00    +0.000 A 
ATOM     13  C   UNL     1       1.681   4.106  18.122  0.00  0.00    +0.000 A 
ATOM     14  C   UNL     1       1.024   2.942  18.519  0.00  0.00    +0.000 A 
ATOM     15  C   UNL     1       0.806   2.690  19.873  0.00  0.00    +0.000 A 
ATOM     16  C   UNL     1       1.247   3.598  20.834  0.00  0.00    +0.000 A 
ATOM     17  C   UNL     1       1.903   4.762  20.439  0.00  0.00    +0.000 A 
ENDBRANCH  11  12
ENDBRANCH  10  11
ENDBRANCH   4  10
TORSDOF 5
ENDMDL
MODEL 4
REMARK VINA RESULT:      -6.7      0.400      1.256
REMARK  Name = 
REMARK  5 active torsions:
REMARK  status: ('A' for Active; 'I' for Inactive)
REMARK    1  A    between atoms: O_1  and  C_2
REMARK    2  A    between atoms: C_2  and  C_3
REMARK    3  A    between atoms: C_6  and  O_7
REMARK    4  A    between atoms: O_7  and  C_8
REMARK    5  A    between atoms: C_8  and  C_9
REMARK                            x       y       z     vdW  Elec       q    Type
REMARK                         _______ _______ _______ _____ _____    ______ ____
ROOT
ATOM      1  C   UNL     1       6.373   5.022  15.703  0.00  0.00    +0.000 A 
ATOM      2  C   UNL     1       5.414   6.038  15.614  0.00  0.00    +0.000 A 
ATOM      3  C   UNL     1       4.728   6.471  16.747  0.00  0.00    +0.000 A 
ATOM      4  C   UNL     1       4.971   5.871  17.983  0.00  0.00    +0.000 A 
ATOM      5  C   UNL     1       5.941   4.873  18.086  0.00  0.00    +0.000 A 
ATOM      6  C   UNL     1       6.636   4.444  16.952  0.00  0.00    +0.000 A 
ENDROOT
BRANCH   1   7
ATOM      7  C   UNL     1       7.100   4.580  14.466  0.00  0.00    +0.000 C 
BRANCH   7   8
ATOM      8  O   UNL     1       7.963   5.628  14.051  0.00  0.00    +0.000 OA
ATOM      9  H   UNL     1       8.493   5.281  13.319  0.00  0.00    +0.000 HD
ENDBRANCH   7   8
ENDBRANCH   1   7
BRANCH   4  10
ATOM     10  O   UNL     1       4.324   6.193  19.144  0.00  0.00    +0.000 OA
BRANCH  10  11
ATOM     11  C   UNL     1       2.915   6.392  19.015  0.00  0.00    +0.000 C 
BRANCH  11  12
ATOM     12  C   UNL     1       2.209   5.079  19.233  0.00  0.00    +0.000 A 
ATOM     13  C   UNL     1       1.778   4.701  20.510  0.00  0.00    +0.000 A 
ATOM     14  C   UNL     1       1.098   3.497  20.692  0.00  0.00    +0.000 A 
ATOM     15  C   UNL     1       0.839   2.669  19.601  0.00  0.00    +0.000 A 
ATOM     16  C   UNL     1       1.253   3.043  18.324  0.00  0.00    +0.000 A 
ATOM     17  C   UNL     1       1.932   4.245  18.140  0.00  0.00    +0.000 A 
ENDBRANCH  11  12
ENDBRANCH  10  11
ENDBRANCH   4  10
TORSDOF 5
ENDMDL
MODEL 5
REMARK VINA RESULT:      -6.7      0.761      1.865
REMARK  Name = 
REMARK  5 active torsions:
REMARK  status: ('A' for Active; 'I' for Inactive)
REMARK    1  A    between atoms: O_1  and  C_2
REMARK    2  A    between atoms: C_2  and  C_3
REMARK    3  A    between atoms: C_6  and  O_7
REMARK    4  A    between atoms: O_7  and  C_8
REMARK    5  A    between atoms: C_8  and  C_9
REMARK                            x       y       z     vdW  Elec       q    Type
REMARK                         _______ _______ _______ _____ _____    ______ ____
ROOT
ATOM      1  C   UNL     1       6.301   5.067  15.549  0.00  0.00    +0.000 A 
ATOM      2  C   UNL     1       5.238   5.972  15.659  0.00  0.00    +0.000 A 
ATOM      3  C   UNL     1       4.659   6.243  16.897  0.00  0.00    +0.000 A 
ATOM      4  C   UNL     1       5.118   5.591  18.041  0.00  0.00    +0.000 A 
ATOM      5  C   UNL     1       6.191   4.704  17.946  0.00  0.00    +0.000 A 
ATOM      6  C   UNL     1       6.778   4.438  16.706  0.00  0.00    +0.000 A 
ENDROOT
BRANCH   1   7
ATOM      7  C   UNL     1       6.908   4.799  14.203  0.00  0.00    +0.000 C 
BRANCH   7   8
ATOM      8  O   UNL     1       6.453   3.534  13.745  0.00  0.00    +0.000 OA
ATOM      9  H   UNL     1       7.211   3.096  13.333  0.00  0.00    +0.000 HD
ENDBRANCH   7   8
ENDBRANCH   1   7
BRANCH   4  10
ATOM     10  O   UNL     1       4.593   5.755  19.294  0.00  0.00    +0.000 OA
BRANCH  10  11
ATOM     11  C   UNL     1       3.230   6.185  19.326  0.00  0.00    +0.000 C 
BRANCH  11  12
ATOM     12  C   UNL     1       2.335   4.980  19.456  0.00  0.00    +0.000 A 
ATOM     13  C   UNL     1       1.916   4.274  18.322  0.00  0.00    +0.000 A 
ATOM     14  C   UNL     1       1.113   3.142  18.459  0.00  0.00    +0.000 A 
ATOM     15  C   UNL     1       0.732   2.705  19.728  0.00  0.00    +0.000 A 
ATOM     16  C   UNL     1       1.155   3.395  20.862  0.00  0.00    +0.000 A 
ATOM     17  C   UNL     1       1.957   4.526  20.727  0.00  0.00    +0.000 A 
ENDBRANCH  11  12
ENDBRANCH  10  11
ENDBRANCH   4  10
TORSDOF 5
ENDMDL
MODEL 6
REMARK VINA RESULT:      -6.7      1.127      1.127
REMARK  Name = 
REMARK  5 active torsions:
REMARK  status: ('A' for Active; 'I' for Inactive)
REMARK    1  A    between atoms: O_1  and  C_2
REMARK    2  A    between atoms: C_2  and  C_3
REMARK    3  A    between atoms: C_6  and  O_7
REMARK    4  A    between atoms: O_7  and  C_8
REMARK    5  A    between atoms: C_8  and  C_9
REMARK                            x       y       z     vdW  Elec       q    Type
REMARK                         _______ _______ _______ _____ _____    ______ ____
ROOT
ATOM      1  C   UNL     1       6.055   4.712  14.878  0.00  0.00    +0.000 A 
ATOM      2  C   UNL     1       5.830   3.803  15.919  0.00  0.00    +0.000 A 
ATOM      3  C   UNL     1       5.178   4.202  17.084  0.00  0.00    +0.000 A 
ATOM      4  C   UNL     1       4.766   5.526  17.236  0.00  0.00    +0.000 A 
ATOM      5  C   UNL     1       4.965   6.434  16.195  0.00  0.00    +0.000 A 
ATOM      6  C   UNL     1       5.611   6.033  15.023  0.00  0.00    +0.000 A 
ENDROOT
BRANCH   1   7
ATOM      7  C   UNL     1       6.755   4.252  13.632  0.00  0.00    +0.000 C 
BRANCH   7   8
ATOM      8  O   UNL     1       6.047   3.144  13.098  0.00  0.00    +0.000 OA
ATOM      9  H   UNL     1       6.174   3.166  12.139  0.00  0.00    +0.000 HD
ENDBRANCH   7   8
ENDBRANCH   1   7
BRANCH   4  10
ATOM     10  O   UNL     1       4.157   6.028  18.353  0.00  0.00    +0.000 OA
BRANCH  10  11
ATOM     11  C   UNL     1       2.736   6.159  18.257  0.00  0.00    +0.000 C 
BRANCH  11  12
ATOM     12  C   UNL     1       2.087   4.952  18.884  0.00  0.00    +0.000 A 
ATOM     13  C   UNL     1       1.928   4.865  20.272  0.00  0.00    +0.000 A 
ATOM     14  C   UNL     1       1.297   3.757  20.837  0.00  0.00    +0.000 A 
ATOM     15  C   UNL     1       0.814   2.736  20.019  0.00  0.00    +0.000 A 
ATOM     16  C   UNL     1       0.957   2.820  18.636  0.00  0.00    +0.000 A 
ATOM     17  C   UNL     1       1.587   3.926  18.070  0.00  0.00    +0.000 A 
ENDBRANCH  11  12
ENDBRANCH  10  11
ENDBRANCH   4  10
TORSDOF 5
ENDMDL
MODEL 7
REMARK VINA RESULT:      -6.6      0.905      1.812
REMARK  Name = 
REMARK  5 active torsions:
REMARK  status: ('A' for Active; 'I' for Inactive)
REMARK    1  A    between atoms: O_1  and  C_2
REMARK    2  A    between atoms: C_2  and  C_3
REMARK    3  A    between atoms: C_6  and  O_7
REMARK    4  A    between atoms: O_7  and  C_8
REMARK    5  A    between atoms: C_8  and  C_9
REMARK                            x       y       z     vdW  Elec       q    Type
REMARK                         _______ _______ _______ _____ _____    ______ ____
ROOT
ATOM      1  C   UNL     1       5.818   4.729  15.149  0.00  0.00    +0.000 A 
ATOM      2  C   UNL     1       5.521   6.091  15.266  0.00  0.00    +0.000 A 
ATOM      3  C   UNL     1       4.919   6.592  16.419  0.00  0.00    +0.000 A 
ATOM      4  C   UNL     1       4.580   5.730  17.461  0.00  0.00    +0.000 A 
ATOM      5  C   UNL     1       4.893   4.374  17.364  0.00  0.00    +0.000 A 
ATOM      6  C   UNL     1       5.504   3.872  16.212  0.00  0.00    +0.000 A 
ENDROOT
BRANCH   1   7
ATOM      7  C   UNL     1       6.472   4.218  13.897  0.00  0.00    +0.000 C 
BRANCH   7   8
ATOM      8  O   UNL     1       7.406   5.188  13.447  0.00  0.00    +0.000 OA
ATOM      9  H   UNL     1       7.820   4.828  12.650  0.00  0.00    +0.000 HD
ENDBRANCH   7   8
ENDBRANCH   1   7
BRANCH   4  10
ATOM     10  O   UNL     1       3.952   6.113  18.614  0.00  0.00    +0.000 OA
BRANCH  10  11
ATOM     11  C   UNL     1       2.524   6.049  18.573  0.00  0.00    +0.000 C 
BRANCH  11  12
ATOM     12  C   UNL     1       2.059   4.874  19.393  0.00  0.00    +0.000 A 
ATOM     13  C   UNL     1       1.309   3.846  18.809  0.00  0.00    +0.000 A 
ATOM     14  C   UNL     1       0.912   2.748  19.572  0.00  0.00    +0.000 A 
ATOM     15  C   UNL     1       1.267   2.668  20.918  0.00  0.00    +0.000 A 
ATOM     16  C   UNL     1       2.023   3.680  21.504  0.00  0.00    +0.000 A 
ATOM     17  C   UNL     1       2.422   4.778  20.744  0.00  0.00    +0.000 A 
ENDBRANCH  11  12
ENDBRANCH  10  11
ENDBRANCH   4  10
TORSDOF 5
ENDMDL
MODEL 8
REMARK VINA RESULT:      -6.5      1.945      6.102
REMARK  Name = 
REMARK  5 active torsions:
REMARK  status: ('A' for Active; 'I' for Inactive)
REMARK    1  A    between atoms: O_1  and  C_2
REMARK    2  A    between atoms: C_2  and  C_3
REMARK    3  A    between atoms: C_6  and  O_7
REMARK    4  A    between atoms: O_7  and  C_8
REMARK    5  A    between atoms: C_8  and  C_9
REMARK                            x       y       z     vdW  Elec       q    Type
REMARK                         _______ _______ _______ _____ _____    ______ ____
ROOT
ATOM      1  C   UNL     1       1.711   3.832  20.270  0.00  0.00    +0.000 A 
ATOM      2  C   UNL     1       2.128   5.098  20.696  0.00  0.00    +0.000 A 
ATOM      3  C   UNL     1       2.481   6.080  19.772  0.00  0.00    +0.000 A 
ATOM      4  C   UNL     1       2.448   5.798  18.406  0.00  0.00    +0.000 A 
ATOM      5  C   UNL     1       2.012   4.546  17.971  0.00  0.00    +0.000 A 
ATOM      6  C   UNL     1       1.650   3.564  18.896  0.00  0.00    +0.000 A 
ENDROOT
BRANCH   1   7
ATOM      7  C   UNL     1       1.332   2.796  21.288  0.00  0.00    +0.000 C 
BRANCH   7   8
ATOM      8  O   UNL     1       2.390   2.676  22.227  0.00  0.00    +0.000 OA
ATOM      9  H   UNL     1       3.214   2.646  21.720  0.00  0.00    +0.000 HD
ENDBRANCH   7   8
ENDBRANCH   1   7
BRANCH   4  10
ATOM     10  O   UNL     1       2.812   6.675  17.422  0.00  0.00    +0.000 OA
BRANCH  10  11
ATOM     11  C   UNL     1       4.114   7.246  17.574  0.00  0.00    +0.000 C 
BRANCH  11  12
ATOM     12  C   UNL     1       5.146   6.250  17.113  0.00  0.00    +0.000 A 
ATOM     13  C   UNL     1       5.202   5.844  15.775  0.00  0.00    +0.000 A 
ATOM     14  C   UNL     1       6.182   4.944  15.356  0.00  0.00    +0.000 A 
ATOM     15  C   UNL     1       7.115   4.453  16.268  0.00  0.00    +0.000 A 
ATOM     16  C   UNL     1       7.074   4.861  17.600  0.00  0.00    +0.000 A 
ATOM     17  C   UNL     1       6.096   5.760  18.020  0.00  0.00    +0.000 A 
ENDBRANCH  11  12
ENDBRANCH  10  11
ENDBRANCH   4  10
TORSDOF 5
ENDMDL
MODEL 9
REMARK VINA RESULT:      -6.5      2.254      3.029
REMARK  Name = 
REMARK  5 active torsions:
REMARK  status: ('A' for Active; 'I' for Inactive)
REMARK    1  A    between atoms: O_1  and  C_2
REMARK    2  A    between atoms: C_2  and  C_3
REMARK    3  A    between atoms: C_6  and  O_7
REMARK    4  A    between atoms: O_7  and  C_8
REMARK    5  A    between atoms: C_8  and  C_9
REMARK                            x       y       z     vdW  Elec       q    Type
REMARK                         _______ _______ _______ _____ _____    ______ ____
ROOT
ATOM      1  C   UNL     1       6.724   6.663  17.525  0.00  0.00    +0.000 A 
ATOM      2  C   UNL     1       5.459   7.065  17.080  0.00  0.00    +0.000 A 
ATOM      3  C   UNL     1       4.439   6.133  16.899  0.00  0.00    +0.000 A 
ATOM      4  C   UNL     1       4.679   4.779  17.133  0.00  0.00    +0.000 A 
ATOM      5  C   UNL     1       5.930   4.372  17.598  0.00  0.00    +0.000 A 
ATOM      6  C   UNL     1       6.951   5.306  17.789  0.00  0.00    +0.000 A 
ENDROOT
BRANCH   1   7
ATOM      7  C   UNL     1       7.802   7.691  17.717  0.00  0.00    +0.000 C 
BRANCH   7   8
ATOM      8  O   UNL     1       8.522   7.375  18.898  0.00  0.00    +0.000 OA
ATOM      9  H   UNL     1       9.369   6.999  18.618  0.00  0.00    +0.000 HD
ENDBRANCH   7   8
ENDBRANCH   1   7
BRANCH   4  10
ATOM     10  O   UNL     1       3.762   3.782  16.947  0.00  0.00    +0.000 OA
BRANCH  10  11
ATOM     11  C   UNL     1       3.900   2.663  17.825  0.00  0.00    +0.000 C 
BRANCH  11  12
ATOM     12  C   UNL     1       2.983   2.846  19.006  0.00  0.00    +0.000 A 
ATOM     13  C   UNL     1       1.641   3.199  18.822  0.00  0.00    +0.000 A 
ATOM     14  C   UNL     1       0.795   3.335  19.922  0.00  0.00    +0.000 A 
ATOM     15  C   UNL     1       1.281   3.111  21.209  0.00  0.00    +0.000 A 
ATOM     16  C   UNL     1       2.612   2.746  21.401  0.00  0.00    +0.000 A 
ATOM     17  C   UNL     1       3.459   2.610  20.303  0.00  0.00    +0.000 A 
ENDBRANCH  11  12
ENDBRANCH  10  11
ENDBRANCH   4  10
TORSDOF 5
ENDMDL
