MODEL 1
REMARK VINA RESULT:      -7.4      0.000      0.000
REMARK  Name = 
REMARK  4 active torsions:
REMARK  status: ('A' for Active; 'I' for Inactive)
REMARK    1  A    between atoms: C_1  and  S_2
REMARK    2  A    between atoms: S_2  and  N_5
REMARK    3  A    between atoms: N_5  and  C_6
REMARK    4  A    between atoms: N_16  and  C_17
REMARK                            x       y       z     vdW  Elec       q    Type
REMARK                         _______ _______ _______ _____ _____    ______ ____
ROOT
ATOM      1  C   UNL     1       0.057  15.064  19.440  0.00  0.00    +0.000 A 
ATOM      2  C   UNL     1       0.057  14.861  20.819  0.00  0.00    +0.000 A 
ATOM      3  C   UNL     1      -0.218  13.595  21.335  0.00  0.00    +0.000 A 
ATOM      4  C   UNL     1      -0.475  12.538  20.463  0.00  0.00    +0.000 A 
ATOM      5  C   UNL     1      -0.510  12.736  19.081  0.00  0.00    +0.000 A 
ATOM      6  C   UNL     1      -0.212  14.004  18.568  0.00  0.00    +0.000 A 
ATOM      7  C   UNL     1      -0.820  11.566  18.200  0.00  0.00    +0.000 C 
ATOM      8  N   UNL     1       0.290  10.628  18.236  0.00  0.00    +0.000 N 
ATOM      9  C   UNL     1       0.550   9.946  19.447  0.00  0.00    +0.000 A 
ATOM     10  C   UNL     1       1.428   8.850  19.432  0.00  0.00    +0.000 A 
ATOM     11  N   UNL     1       2.010   8.474  18.178  0.00  0.00    +0.000 N 
ATOM     12  N   UNL     1       1.725   8.127  20.529  0.00  0.00    +0.000 NA
ATOM     13  C   UNL     1       1.181   8.520  21.679  0.00  0.00    +0.000 A 
ATOM     14  N   UNL     1       0.380   9.568  21.839  0.00  0.00    +0.000 NA
ATOM     15  C   UNL     1       0.100  10.284  20.732  0.00  0.00    +0.000 A 
ATOM     16  O   UNL     1      -0.779  11.314  20.999  0.00  0.00    +0.000 OA
ATOM     17  H   UNL     1       0.262   9.951  17.472  0.00  0.00    +0.000 HD
ATOM     18  H   UNL     1       2.506   9.283  17.814  0.00  0.00    +0.000 HD
ENDROOT
BRANCH  11  19
ATOM     19  C   UNL     1       2.686   7.248  17.989  0.00  0.00    +0.000 A 
ATOM     20  C   UNL     1       3.993   7.248  17.475  0.00  0.00    +0.000 A 
ATOM     21  C   UNL     1       4.650   6.058  17.165  0.00  0.00    +0.000 A 
ATOM     22  C   UNL     1       4.007   4.843  17.377  0.00  0.00    +0.000 A 
ATOM     23  C   UNL     1       2.723   4.830  17.923  0.00  0.00    +0.000 A 
ATOM     24 BR   UNL     1       1.854   3.172  18.198  0.00  0.00    +0.000 Br
ATOM     25  C   UNL     1       2.063   6.022  18.241  0.00  0.00    +0.000 A 
ENDBRANCH  11  19
BRANCH   1  26
ATOM     26  N   UNL     1       0.401  16.344  18.916  0.00  0.00    +0.000 N 
ATOM     27  H   UNL     1      -0.082  16.602  18.054  0.00  0.00    +0.000 HD
BRANCH  26  29
ATOM     28  C   UNL     1       2.383  17.678  20.162  0.00  0.00    +0.000 C 
ATOM     29  S   UNL     1       2.051  16.681  18.725  0.00  0.00    +0.000 S 
ATOM     30  O   UNL     1       2.130  17.544  17.566  0.00  0.00    +0.000 OA
ATOM     31  O   UNL     1       2.820  15.459  18.801  0.00  0.00    +0.000 OA
ENDBRANCH  26  29
ENDBRANCH   1  26
TORSDOF 3
ENDMDL
MODEL 2
REMARK VINA RESULT:      -7.3      1.070      1.402
REMARK  Name = 
REMARK  4 active torsions:
REMARK  status: ('A' for Active; 'I' for Inactive)
REMARK    1  A    between atoms: C_1  and  S_2
REMARK    2  A    between atoms: S_2  and  N_5
REMARK    3  A    between atoms: N_5  and  C_6
REMARK    4  A    between atoms: N_16  and  C_17
REMARK                            x       y       z     vdW  Elec       q    Type
REMARK                         _______ _______ _______ _____ _____    ______ ____
ROOT
ATOM      1  C   UNL     1       0.007  14.971  19.320  0.00  0.00    +0.000 A 
ATOM      2  C   UNL     1       0.053  14.780  20.700  0.00  0.00    +0.000 A 
ATOM      3  C   UNL     1      -0.185  13.515  21.235  0.00  0.00    +0.000 A 
ATOM      4  C   UNL     1      -0.451  12.447  20.380  0.00  0.00    +0.000 A 
ATOM      5  C   UNL     1      -0.532  12.632  18.999  0.00  0.00    +0.000 A 
ATOM      6  C   UNL     1      -0.272  13.900  18.466  0.00  0.00    +0.000 A 
ATOM      7  C   UNL     1      -0.851  11.448  18.138  0.00  0.00    +0.000 C 
ATOM      8  N   UNL     1       0.274  10.529  18.146  0.00  0.00    +0.000 N 
ATOM      9  C   UNL     1       0.584   9.862  19.354  0.00  0.00    +0.000 A 
ATOM     10  C   UNL     1       1.479   8.780  19.321  0.00  0.00    +0.000 A 
ATOM     11  N   UNL     1       2.026   8.402  18.052  0.00  0.00    +0.000 N 
ATOM     12  N   UNL     1       1.822   8.072  20.413  0.00  0.00    +0.000 NA
ATOM     13  C   UNL     1       1.307   8.466  21.577  0.00  0.00    +0.000 A 
ATOM     14  N   UNL     1       0.495   9.503  21.754  0.00  0.00    +0.000 NA
ATOM     15  C   UNL     1       0.168  10.204  20.649  0.00  0.00    +0.000 A 
ATOM     16  O   UNL     1      -0.718  11.222  20.935  0.00  0.00    +0.000 OA
ATOM     17  H   UNL     1       0.233   9.845  17.389  0.00  0.00    +0.000 HD
ATOM     18  H   UNL     1       2.498   9.216  17.665  0.00  0.00    +0.000 HD
ENDROOT
BRANCH  11  19
ATOM     19  C   UNL     1       2.717   7.186  17.852  0.00  0.00    +0.000 A 
ATOM     20  C   UNL     1       2.038   5.967  18.014  0.00  0.00    +0.000 A 
ATOM     21  C   UNL     1       2.710   4.748  17.941  0.00  0.00    +0.000 A 
ATOM     22  C   UNL     1       4.079   4.732  17.692  0.00  0.00    +0.000 A 
ATOM     23  C   UNL     1       4.756   5.935  17.491  0.00  0.00    +0.000 A 
ATOM     24 BR   UNL     1       6.619   5.902  17.162  0.00  0.00    +0.000 Br
ATOM     25  C   UNL     1       4.083   7.160  17.558  0.00  0.00    +0.000 A 
ENDBRANCH  11  19
BRANCH   1  26
ATOM     26  N   UNL     1       0.313  16.252  18.775  0.00  0.00    +0.000 N 
ATOM     27  H   UNL     1      -0.140  16.463  17.885  0.00  0.00    +0.000 HD
BRANCH  26  29
ATOM     28  C   UNL     1       2.212  17.572  20.158  0.00  0.00    +0.000 C 
ATOM     29  S   UNL     1       1.953  16.664  18.649  0.00  0.00    +0.000 S 
ATOM     30  O   UNL     1       2.023  17.607  17.553  0.00  0.00    +0.000 OA
ATOM     31  O   UNL     1       2.768  15.470  18.661  0.00  0.00    +0.000 OA
ENDBRANCH  26  29
ENDBRANCH   1  26
TORSDOF 3
ENDMDL
MODEL 3
REMARK VINA RESULT:      -7.1      1.010      1.189
REMARK  Name = 
REMARK  4 active torsions:
REMARK  status: ('A' for Active; 'I' for Inactive)
REMARK    1  A    between atoms: C_1  and  S_2
REMARK    2  A    between atoms: S_2  and  N_5
REMARK    3  A    between atoms: N_5  and  C_6
REMARK    4  A    between atoms: N_16  and  C_17
REMARK                            x       y       z     vdW  Elec       q    Type
REMARK                         _______ _______ _______ _____ _____    ______ ____
ROOT
ATOM      1  C   UNL     1       0.957  14.882  19.565  0.00  0.00    +0.000 A 
ATOM      2  C   UNL     1       0.837  14.624  20.931  0.00  0.00    +0.000 A 
ATOM      3  C   UNL     1       0.408  13.371  21.365  0.00  0.00    +0.000 A 
ATOM      4  C   UNL     1       0.119  12.380  20.428  0.00  0.00    +0.000 A 
ATOM      5  C   UNL     1       0.203  12.637  19.058  0.00  0.00    +0.000 A 
ATOM      6  C   UNL     1       0.655  13.890  18.628  0.00  0.00    +0.000 A 
ATOM      7  C   UNL     1      -0.150  11.539  18.103  0.00  0.00    +0.000 C 
ATOM      8  N   UNL     1       0.862  10.498  18.170  0.00  0.00    +0.000 N 
ATOM      9  C   UNL     1       0.969   9.745  19.363  0.00  0.00    +0.000 A 
ATOM     10  C   UNL     1       1.739   8.571  19.356  0.00  0.00    +0.000 A 
ATOM     11  N   UNL     1       2.373   8.192  18.128  0.00  0.00    +0.000 N 
ATOM     12  N   UNL     1       1.887   7.778  20.434  0.00  0.00    +0.000 NA
ATOM     13  C   UNL     1       1.299   8.175  21.562  0.00  0.00    +0.000 A 
ATOM     14  N   UNL     1       0.590   9.288  21.717  0.00  0.00    +0.000 NA
ATOM     15  C   UNL     1       0.460  10.072  20.628  0.00  0.00    +0.000 A 
ATOM     16  O   UNL     1      -0.336  11.170  20.883  0.00  0.00    +0.000 OA
ATOM     17  H   UNL     1       0.827   9.858  17.375  0.00  0.00    +0.000 HD
ATOM     18  H   UNL     1       2.968   8.963  17.837  0.00  0.00    +0.000 HD
ENDROOT
BRANCH  11  19
ATOM     19  C   UNL     1       2.944   6.915  17.928  0.00  0.00    +0.000 A 
ATOM     20  C   UNL     1       4.229   6.809  17.371  0.00  0.00    +0.000 A 
ATOM     21  C   UNL     1       4.779   5.569  17.049  0.00  0.00    +0.000 A 
ATOM     22  C   UNL     1       4.050   4.410  17.294  0.00  0.00    +0.000 A 
ATOM     23  C   UNL     1       2.789   4.501  17.883  0.00  0.00    +0.000 A 
ATOM     24 BR   UNL     1       1.802   2.919  18.202  0.00  0.00    +0.000 Br
ATOM     25  C   UNL     1       2.236   5.744  18.212  0.00  0.00    +0.000 A 
ENDBRANCH  11  19
BRANCH   1  26
ATOM     26  N   UNL     1       1.456  16.144  19.129  0.00  0.00    +0.000 N 
ATOM     27  H   UNL     1       1.008  16.520  18.291  0.00  0.00    +0.000 HD
BRANCH  26  29
ATOM     28  C   UNL     1       3.315  16.154  17.178  0.00  0.00    +0.000 C 
ATOM     29  S   UNL     1       3.135  16.287  18.944  0.00  0.00    +0.000 S 
ATOM     30  O   UNL     1       3.684  15.084  19.532  0.00  0.00    +0.000 OA
ATOM     31  O   UNL     1       3.573  17.596  19.373  0.00  0.00    +0.000 OA
ENDBRANCH  26  29
ENDBRANCH   1  26
TORSDOF 3
ENDMDL
MODEL 4
REMARK VINA RESULT:      -7.1      2.534      3.499
REMARK  Name = 
REMARK  4 active torsions:
REMARK  status: ('A' for Active; 'I' for Inactive)
REMARK    1  A    between atoms: C_1  and  S_2
REMARK    2  A    between atoms: S_2  and  N_5
REMARK    3  A    between atoms: N_5  and  C_6
REMARK    4  A    between atoms: N_16  and  C_17
REMARK                            x       y       z     vdW  Elec       q    Type
REMARK                         _______ _______ _______ _____ _____    ______ ____
ROOT
ATOM      1  C   UNL     1       0.811  12.129  20.646  0.00  0.00    +0.000 A 
ATOM      2  C   UNL     1       0.565  11.348  21.775  0.00  0.00    +0.000 A 
ATOM      3  C   UNL     1       0.464   9.963  21.652  0.00  0.00    +0.000 A 
ATOM      4  C   UNL     1       0.628   9.370  20.401  0.00  0.00    +0.000 A 
ATOM      5  C   UNL     1       0.841  10.144  19.259  0.00  0.00    +0.000 A 
ATOM      6  C   UNL     1       0.962  11.532  19.391  0.00  0.00    +0.000 A 
ATOM      7  C   UNL     1       0.979   9.447  17.940  0.00  0.00    +0.000 C 
ATOM      8  N   UNL     1       2.230   8.709  17.913  0.00  0.00    +0.000 N 
ATOM      9  C   UNL     1       2.371   7.600  18.780  0.00  0.00    +0.000 A 
ATOM     10  C   UNL     1       3.446   6.718  18.581  0.00  0.00    +0.000 A 
ATOM     11  N   UNL     1       4.343   6.987  17.497  0.00  0.00    +0.000 N 
ATOM     12  N   UNL     1       3.654   5.626  19.340  0.00  0.00    +0.000 NA
ATOM     13  C   UNL     1       2.810   5.420  20.350  0.00  0.00    +0.000 A 
ATOM     14  N   UNL     1       1.789   6.204  20.679  0.00  0.00    +0.000 NA
ATOM     15  C   UNL     1       1.600   7.297  19.912  0.00  0.00    +0.000 A 
ATOM     16  O   UNL     1       0.486   8.010  20.304  0.00  0.00    +0.000 OA
ATOM     17  H   UNL     1       2.508   8.433  16.970  0.00  0.00    +0.000 HD
ATOM     18  H   UNL     1       4.721   7.921  17.635  0.00  0.00    +0.000 HD
ENDROOT
BRANCH  11  19
ATOM     19  C   UNL     1       5.290   6.044  17.039  0.00  0.00    +0.000 A 
ATOM     20  C   UNL     1       6.407   5.739  17.834  0.00  0.00    +0.000 A 
ATOM     21  C   UNL     1       7.421   4.904  17.368  0.00  0.00    +0.000 A 
ATOM     22  C   UNL     1       7.324   4.350  16.096  0.00  0.00    +0.000 A 
ATOM     23  C   UNL     1       6.201   4.615  15.313  0.00  0.00    +0.000 A 
ATOM     24 BR   UNL     1       6.085   3.863  13.580  0.00  0.00    +0.000 Br
ATOM     25  C   UNL     1       5.178   5.448  15.779  0.00  0.00    +0.000 A 
ENDBRANCH  11  19
BRANCH   1  26
ATOM     26  N   UNL     1       0.975  13.538  20.787  0.00  0.00    +0.000 N 
ATOM     27  H   UNL     1       0.405  14.105  20.157  0.00  0.00    +0.000 HD
BRANCH  26  29
ATOM     28  C   UNL     1       2.310  15.844  21.189  0.00  0.00    +0.000 C 
ATOM     29  S   UNL     1       2.561  14.136  20.754  0.00  0.00    +0.000 S 
ATOM     30  O   UNL     1       2.953  14.092  19.361  0.00  0.00    +0.000 OA
ATOM     31  O   UNL     1       3.356  13.493  21.775  0.00  0.00    +0.000 OA
ENDBRANCH  26  29
ENDBRANCH   1  26
TORSDOF 3
ENDMDL
MODEL 5
REMARK VINA RESULT:      -6.9      3.333      4.846
REMARK  Name = 
REMARK  4 active torsions:
REMARK  status: ('A' for Active; 'I' for Inactive)
REMARK    1  A    between atoms: C_1  and  S_2
REMARK    2  A    between atoms: S_2  and  N_5
REMARK    3  A    between atoms: N_5  and  C_6
REMARK    4  A    between atoms: N_16  and  C_17
REMARK                            x       y       z     vdW  Elec       q    Type
REMARK                         _______ _______ _______ _____ _____    ______ ____
ROOT
ATOM      1  C   UNL     1      -3.114  12.365  21.512  0.00  0.00    +0.000 A 
ATOM      2  C   UNL     1      -2.855  12.870  20.238  0.00  0.00    +0.000 A 
ATOM      3  C   UNL     1      -1.603  12.680  19.657  0.00  0.00    +0.000 A 
ATOM      4  C   UNL     1      -0.623  11.971  20.350  0.00  0.00    +0.000 A 
ATOM      5  C   UNL     1      -0.859  11.489  21.639  0.00  0.00    +0.000 A 
ATOM      6  C   UNL     1      -2.126  11.664  22.210  0.00  0.00    +0.000 A 
ATOM      7  C   UNL     1       0.245  10.760  22.342  0.00  0.00    +0.000 C 
ATOM      8  N   UNL     1       0.467   9.480  21.693  0.00  0.00    +0.000 N 
ATOM      9  C   UNL     1       0.987   9.480  20.377  0.00  0.00    +0.000 A 
ATOM     10  C   UNL     1       1.463   8.273  19.837  0.00  0.00    +0.000 A 
ATOM     11  N   UNL     1       1.402   7.101  20.659  0.00  0.00    +0.000 N 
ATOM     12  N   UNL     1       1.992   8.174  18.603  0.00  0.00    +0.000 NA
ATOM     13  C   UNL     1       2.012   9.281  17.862  0.00  0.00    +0.000 A 
ATOM     14  N   UNL     1       1.546  10.469  18.232  0.00  0.00    +0.000 NA
ATOM     15  C   UNL     1       1.013  10.547  19.468  0.00  0.00    +0.000 A 
ATOM     16  O   UNL     1       0.611  11.832  19.770  0.00  0.00    +0.000 OA
ATOM     17  H   UNL     1       1.011   8.833  22.266  0.00  0.00    +0.000 HD
ATOM     18  H   UNL     1       0.433   6.965  20.932  0.00  0.00    +0.000 HD
ENDROOT
BRANCH  11  19
ATOM     19  C   UNL     1       2.082   5.906  20.333  0.00  0.00    +0.000 A 
ATOM     20  C   UNL     1       1.536   4.670  20.714  0.00  0.00    +0.000 A 
ATOM     21  C   UNL     1       2.230   3.478  20.515  0.00  0.00    +0.000 A 
ATOM     22  C   UNL     1       3.486   3.507  19.917  0.00  0.00    +0.000 A 
ATOM     23  C   UNL     1       4.022   4.725  19.500  0.00  0.00    +0.000 A 
ATOM     24 BR   UNL     1       5.736   4.753  18.697  0.00  0.00    +0.000 Br
ATOM     25  C   UNL     1       3.325   5.923  19.693  0.00  0.00    +0.000 A 
ENDBRANCH  11  19
BRANCH   1  26
ATOM     26  N   UNL     1      -4.416  12.507  22.075  0.00  0.00    +0.000 N 
ATOM     27  H   UNL     1      -5.061  13.084  21.532  0.00  0.00    +0.000 HD
BRANCH  26  29
ATOM     28  C   UNL     1      -6.212  13.474  23.835  0.00  0.00    +0.000 C 
ATOM     29  S   UNL     1      -4.505  12.991  23.697  0.00  0.00    +0.000 S 
ATOM     30  O   UNL     1      -3.702  14.193  23.779  0.00  0.00    +0.000 OA
ATOM     31  O   UNL     1      -4.253  11.864  24.567  0.00  0.00    +0.000 OA
ENDBRANCH  26  29
ENDBRANCH   1  26
TORSDOF 3
ENDMDL
MODEL 6
REMARK VINA RESULT:      -6.9      1.149      1.308
REMARK  Name = 
REMARK  4 active torsions:
REMARK  status: ('A' for Active; 'I' for Inactive)
REMARK    1  A    between atoms: C_1  and  S_2
REMARK    2  A    between atoms: S_2  and  N_5
REMARK    3  A    between atoms: N_5  and  C_6
REMARK    4  A    between atoms: N_16  and  C_17
REMARK                            x       y       z     vdW  Elec       q    Type
REMARK                         _______ _______ _______ _____ _____    ______ ____
ROOT
ATOM      1  C   UNL     1       0.587  14.884  19.494  0.00  0.00    +0.000 A 
ATOM      2  C   UNL     1       0.630  14.682  20.874  0.00  0.00    +0.000 A 
ATOM      3  C   UNL     1       0.305  13.434  21.403  0.00  0.00    +0.000 A 
ATOM      4  C   UNL     1      -0.044  12.393  20.544  0.00  0.00    +0.000 A 
ATOM      5  C   UNL     1      -0.123  12.592  19.164  0.00  0.00    +0.000 A 
ATOM      6  C   UNL     1       0.225  13.842  18.637  0.00  0.00    +0.000 A 
ATOM      7  C   UNL     1      -0.533  11.441  18.299  0.00  0.00    +0.000 C 
ATOM      8  N   UNL     1       0.523  10.443  18.292  0.00  0.00    +0.000 N 
ATOM      9  C   UNL     1       0.792   9.747  19.494  0.00  0.00    +0.000 A 
ATOM     10  C   UNL     1       1.606   8.603  19.447  0.00  0.00    +0.000 A 
ATOM     11  N   UNL     1       2.116   8.195  18.171  0.00  0.00    +0.000 N 
ATOM     12  N   UNL     1       1.906   7.865  20.532  0.00  0.00    +0.000 NA
ATOM     13  C   UNL     1       1.430   8.288  21.703  0.00  0.00    +0.000 A 
ATOM     14  N   UNL     1       0.696   9.379  21.892  0.00  0.00    +0.000 NA
ATOM     15  C   UNL     1       0.413  10.110  20.795  0.00  0.00    +0.000 A 
ATOM     16  O   UNL     1      -0.395  11.188  21.094  0.00  0.00    +0.000 OA
ATOM     17  H   UNL     1       0.427   9.768  17.532  0.00  0.00    +0.000 HD
ATOM     18  H   UNL     1       2.642   8.975  17.786  0.00  0.00    +0.000 HD
ENDROOT
BRANCH  11  19
ATOM     19  C   UNL     1       2.715   6.933  17.959  0.00  0.00    +0.000 A 
ATOM     20  C   UNL     1       3.994   6.860  17.385  0.00  0.00    +0.000 A 
ATOM     21  C   UNL     1       4.569   5.635  17.051  0.00  0.00    +0.000 A 
ATOM     22  C   UNL     1       3.871   4.458  17.301  0.00  0.00    +0.000 A 
ATOM     23  C   UNL     1       2.616   4.517  17.906  0.00  0.00    +0.000 A 
ATOM     24 BR   UNL     1       1.672   2.910  18.232  0.00  0.00    +0.000 Br
ATOM     25  C   UNL     1       2.038   5.745  18.247  0.00  0.00    +0.000 A 
ENDBRANCH  11  19
BRANCH   1  26
ATOM     26  N   UNL     1       0.981  16.144  18.955  0.00  0.00    +0.000 N 
ATOM     27  H   UNL     1       1.803  16.563  19.392  0.00  0.00    +0.000 HD
BRANCH  26  29
ATOM     28  C   UNL     1       0.349  18.547  19.998  0.00  0.00    +0.000 C 
ATOM     29  S   UNL     1      -0.219  17.335  18.824  0.00  0.00    +0.000 S 
ATOM     30  O   UNL     1      -1.416  16.728  19.366  0.00  0.00    +0.000 OA
ATOM     31  O   UNL     1      -0.206  17.909  17.498  0.00  0.00    +0.000 OA
ENDBRANCH  26  29
ENDBRANCH   1  26
TORSDOF 3
ENDMDL
MODEL 7
REMARK VINA RESULT:      -6.9      1.689      1.957
REMARK  Name = 
REMARK  4 active torsions:
REMARK  status: ('A' for Active; 'I' for Inactive)
REMARK    1  A    between atoms: C_1  and  S_2
REMARK    2  A    between atoms: S_2  and  N_5
REMARK    3  A    between atoms: N_5  and  C_6
REMARK    4  A    between atoms: N_16  and  C_17
REMARK                            x       y       z     vdW  Elec       q    Type
REMARK                         _______ _______ _______ _____ _____    ______ ____
ROOT
ATOM      1  C   UNL     1       0.424  14.914  19.464  0.00  0.00    +0.000 A 
ATOM      2  C   UNL     1       0.453  14.684  20.840  0.00  0.00    +0.000 A 
ATOM      3  C   UNL     1       0.145  13.420  21.340  0.00  0.00    +0.000 A 
ATOM      4  C   UNL     1      -0.173  12.390  20.456  0.00  0.00    +0.000 A 
ATOM      5  C   UNL     1      -0.238  12.616  19.079  0.00  0.00    +0.000 A 
ATOM      6  C   UNL     1       0.093  13.882  18.582  0.00  0.00    +0.000 A 
ATOM      7  C   UNL     1      -0.615  11.474  18.186  0.00  0.00    +0.000 C 
ATOM      8  N   UNL     1       0.459  10.496  18.174  0.00  0.00    +0.000 N 
ATOM      9  C   UNL     1       0.727   9.782  19.366  0.00  0.00    +0.000 A 
ATOM     10  C   UNL     1       1.563   8.655  19.306  0.00  0.00    +0.000 A 
ATOM     11  N   UNL     1       2.096   8.282  18.030  0.00  0.00    +0.000 N 
ATOM     12  N   UNL     1       1.862   7.901  20.381  0.00  0.00    +0.000 NA
ATOM     13  C   UNL     1       1.363   8.291  21.553  0.00  0.00    +0.000 A 
ATOM     14  N   UNL     1       0.606   9.365  21.754  0.00  0.00    +0.000 NA
ATOM     15  C   UNL     1       0.324  10.112  20.668  0.00  0.00    +0.000 A 
ATOM     16  O   UNL     1      -0.509  11.168  20.977  0.00  0.00    +0.000 OA
ATOM     17  H   UNL     1       0.386   9.835  17.399  0.00  0.00    +0.000 HD
ATOM     18  H   UNL     1       2.613   9.079  17.667  0.00  0.00    +0.000 HD
ENDROOT
BRANCH  11  19
ATOM     19  C   UNL     1       2.721   7.036  17.800  0.00  0.00    +0.000 A 
ATOM     20  C   UNL     1       1.975   5.852  17.917  0.00  0.00    +0.000 A 
ATOM     21  C   UNL     1       2.580   4.601  17.814  0.00  0.00    +0.000 A 
ATOM     22  C   UNL     1       3.949   4.517  17.579  0.00  0.00    +0.000 A 
ATOM     23  C   UNL     1       4.693   5.686  17.423  0.00  0.00    +0.000 A 
ATOM     24 BR   UNL     1       6.556   5.560  17.115  0.00  0.00    +0.000 Br
ATOM     25  C   UNL     1       4.088   6.944  17.521  0.00  0.00    +0.000 A 
ENDBRANCH  11  19
BRANCH   1  26
ATOM     26  N   UNL     1       0.801  16.190  18.955  0.00  0.00    +0.000 N 
ATOM     27  H   UNL     1       1.731  16.509  19.233  0.00  0.00    +0.000 HD
BRANCH  26  29
ATOM     28  C   UNL     1      -0.250  18.269  17.601  0.00  0.00    +0.000 C 
ATOM     29  S   UNL     1      -0.291  17.466  19.189  0.00  0.00    +0.000 S 
ATOM     30  O   UNL     1       0.352  18.346  20.142  0.00  0.00    +0.000 OA
ATOM     31  O   UNL     1      -1.618  16.946  19.429  0.00  0.00    +0.000 OA
ENDBRANCH  26  29
ENDBRANCH   1  26
TORSDOF 3
ENDMDL
MODEL 8
REMARK VINA RESULT:      -6.8      2.624      3.662
REMARK  Name = 
REMARK  4 active torsions:
REMARK  status: ('A' for Active; 'I' for Inactive)
REMARK    1  A    between atoms: C_1  and  S_2
REMARK    2  A    between atoms: S_2  and  N_5
REMARK    3  A    between atoms: N_5  and  C_6
REMARK    4  A    between atoms: N_16  and  C_17
REMARK                            x       y       z     vdW  Elec       q    Type
REMARK                         _______ _______ _______ _____ _____    ______ ____
ROOT
ATOM      1  C   UNL     1       0.801  12.153  20.535  0.00  0.00    +0.000 A 
ATOM      2  C   UNL     1       0.584  11.392  21.683  0.00  0.00    +0.000 A 
ATOM      3  C   UNL     1       0.497  10.004  21.590  0.00  0.00    +0.000 A 
ATOM      4  C   UNL     1       0.645   9.388  20.349  0.00  0.00    +0.000 A 
ATOM      5  C   UNL     1       0.830  10.141  19.188  0.00  0.00    +0.000 A 
ATOM      6  C   UNL     1       0.937  11.533  19.290  0.00  0.00    +0.000 A 
ATOM      7  C   UNL     1       0.952   9.419  17.881  0.00  0.00    +0.000 C 
ATOM      8  N   UNL     1       2.211   8.695  17.846  0.00  0.00    +0.000 N 
ATOM      9  C   UNL     1       2.380   7.605  18.732  0.00  0.00    +0.000 A 
ATOM     10  C   UNL     1       3.461   6.730  18.532  0.00  0.00    +0.000 A 
ATOM     11  N   UNL     1       4.336   6.988  17.427  0.00  0.00    +0.000 N 
ATOM     12  N   UNL     1       3.695   5.656  19.309  0.00  0.00    +0.000 NA
ATOM     13  C   UNL     1       2.871   5.462  20.338  0.00  0.00    +0.000 A 
ATOM     14  N   UNL     1       1.847   6.241  20.669  0.00  0.00    +0.000 NA
ATOM     15  C   UNL     1       1.633   7.316  19.883  0.00  0.00    +0.000 A 
ATOM     16  O   UNL     1       0.518   8.025  20.282  0.00  0.00    +0.000 OA
ATOM     17  H   UNL     1       2.475   8.402  16.904  0.00  0.00    +0.000 HD
ATOM     18  H   UNL     1       4.705   7.928  17.539  0.00  0.00    +0.000 HD
ENDROOT
BRANCH  11  19
ATOM     19  C   UNL     1       5.285   6.046  16.971  0.00  0.00    +0.000 A 
ATOM     20  C   UNL     1       6.399   5.740  17.770  0.00  0.00    +0.000 A 
ATOM     21  C   UNL     1       7.416   4.907  17.307  0.00  0.00    +0.000 A 
ATOM     22  C   UNL     1       7.325   4.355  16.033  0.00  0.00    +0.000 A 
ATOM     23  C   UNL     1       6.204   4.620  15.246  0.00  0.00    +0.000 A 
ATOM     24 BR   UNL     1       6.096   3.872  13.512  0.00  0.00    +0.000 Br
ATOM     25  C   UNL     1       5.179   5.452  15.710  0.00  0.00    +0.000 A 
ENDBRANCH  11  19
BRANCH   1  26
ATOM     26  N   UNL     1       0.952  13.566  20.645  0.00  0.00    +0.000 N 
ATOM     27  H   UNL     1       1.413  13.887  21.498  0.00  0.00    +0.000 HD
BRANCH  26  29
ATOM     28  C   UNL     1      -0.039  15.348  18.882  0.00  0.00    +0.000 C 
ATOM     29  S   UNL     1      -0.436  14.510  20.402  0.00  0.00    +0.000 S 
ATOM     30  O   UNL     1      -0.414  15.495  21.463  0.00  0.00    +0.000 OA
ATOM     31  O   UNL     1      -1.586  13.659  20.195  0.00  0.00    +0.000 OA
ENDBRANCH  26  29
ENDBRANCH   1  26
TORSDOF 3
ENDMDL
MODEL 9
REMARK VINA RESULT:      -6.8      1.571      1.924
REMARK  Name = 
REMARK  4 active torsions:
REMARK  status: ('A' for Active; 'I' for Inactive)
REMARK    1  A    between atoms: C_1  and  S_2
REMARK    2  A    between atoms: S_2  and  N_5
REMARK    3  A    between atoms: N_5  and  C_6
REMARK    4  A    between atoms: N_16  and  C_17
REMARK                            x       y       z     vdW  Elec       q    Type
REMARK                         _______ _______ _______ _____ _____    ______ ____
ROOT
ATOM      1  C   UNL     1       1.000  14.490  19.696  0.00  0.00    +0.000 A 
ATOM      2  C   UNL     1       0.874  14.193  21.052  0.00  0.00    +0.000 A 
ATOM      3  C   UNL     1       0.449  12.926  21.449  0.00  0.00    +0.000 A 
ATOM      4  C   UNL     1       0.171  11.960  20.483  0.00  0.00    +0.000 A 
ATOM      5  C   UNL     1       0.262  12.255  19.122  0.00  0.00    +0.000 A 
ATOM      6  C   UNL     1       0.709  13.523  18.729  0.00  0.00    +0.000 A 
ATOM      7  C   UNL     1      -0.079  11.182  18.134  0.00  0.00    +0.000 C 
ATOM      8  N   UNL     1       0.938  10.146  18.178  0.00  0.00    +0.000 N 
ATOM      9  C   UNL     1       1.042   9.360  19.350  0.00  0.00    +0.000 A 
ATOM     10  C   UNL     1       1.819   8.191  19.315  0.00  0.00    +0.000 A 
ATOM     11  N   UNL     1       2.462   7.850  18.081  0.00  0.00    +0.000 N 
ATOM     12  N   UNL     1       1.965   7.369  20.372  0.00  0.00    +0.000 NA
ATOM     13  C   UNL     1       1.368   7.731  21.507  0.00  0.00    +0.000 A 
ATOM     14  N   UNL     1       0.652   8.835  21.688  0.00  0.00    +0.000 NA
ATOM     15  C   UNL     1       0.523   9.649  20.621  0.00  0.00    +0.000 A 
ATOM     16  O   UNL     1      -0.280  10.735  20.901  0.00  0.00    +0.000 OA
ATOM     17  H   UNL     1       0.911   9.528  17.365  0.00  0.00    +0.000 HD
ATOM     18  H   UNL     1       3.055   8.632  17.816  0.00  0.00    +0.000 HD
ENDROOT
BRANCH  11  19
ATOM     19  C   UNL     1       3.042   6.582  17.849  0.00  0.00    +0.000 A 
ATOM     20  C   UNL     1       2.229   5.438  17.837  0.00  0.00    +0.000 A 
ATOM     21  C   UNL     1       2.776   4.161  17.729  0.00  0.00    +0.000 A 
ATOM     22  C   UNL     1       4.155   4.012  17.618  0.00  0.00    +0.000 A 
ATOM     23  C   UNL     1       4.969   5.143  17.590  0.00  0.00    +0.000 A 
ATOM     24 BR   UNL     1       6.844   4.928  17.448  0.00  0.00    +0.000 Br
ATOM     25  C   UNL     1       4.423   6.427  17.693  0.00  0.00    +0.000 A 
ENDBRANCH  11  19
BRANCH   1  26
ATOM     26  N   UNL     1       1.494  15.766  19.297  0.00  0.00    +0.000 N 
ATOM     27  H   UNL     1       1.087  16.138  18.438  0.00  0.00    +0.000 HD
BRANCH  26  29
ATOM     28  C   UNL     1       3.477  15.701  17.474  0.00  0.00    +0.000 C 
ATOM     29  S   UNL     1       3.178  15.948  19.211  0.00  0.00    +0.000 S 
ATOM     30  O   UNL     1       3.719  14.805  19.916  0.00  0.00    +0.000 OA
ATOM     31  O   UNL     1       3.551  17.296  19.576  0.00  0.00    +0.000 OA
ENDBRANCH  26  29
ENDBRANCH   1  26
TORSDOF 3
ENDMDL
