MODEL 1
REMARK VINA RESULT:      -7.3      0.000      0.000
REMARK  Name = 
REMARK  8 active torsions:
REMARK  status: ('A' for Active; 'I' for Inactive)
REMARK    1  A    between atoms: C_2  and  S_4
REMARK    2  A    between atoms: S_4  and  C_5
REMARK    3  A    between atoms: C_5  and  C_6
REMARK    4  A    between atoms: C_11  and  S_12
REMARK    5  A    between atoms: S_12  and  C_13
REMARK    6  A    between atoms: C_19  and  C_20
REMARK    7  A    between atoms: C_20  and  S_21
REMARK    8  A    between atoms: S_21  and  C_22
REMARK                            x       y       z     vdW  Elec       q    Type
REMARK                         _______ _______ _______ _____ _____    ______ ____
ROOT
ATOM      1  S   UNL     1       4.260   3.398  17.430  0.00  0.00    +0.000 S 
ENDROOT
BRANCH   1   2
ATOM      2  C   UNL     1       5.578   4.593  17.667  0.00  0.00    +0.000 A 
ATOM      3  C   UNL     1       6.048   4.708  18.990  0.00  0.00    +0.000 A 
ATOM      4  C   UNL     1       7.058   5.596  19.338  0.00  0.00    +0.000 A 
ATOM      5  C   UNL     1       7.575   6.425  18.366  0.00  0.00    +0.000 A 
ATOM      6  F   UNL     1       8.542   7.294  18.684  0.00  0.00    +0.000 F 
ATOM      7  C   UNL     1       7.090   6.384  17.063  0.00  0.00    +0.000 A 
ATOM      8  C   UNL     1       6.103   5.447  16.665  0.00  0.00    +0.000 A 
BRANCH   8   9
ATOM      9  C   UNL     1       5.592   5.472  15.226  0.00  0.00    +0.000 C 
BRANCH   9  10
ATOM     10  S   UNL     1       6.143   4.031  14.232  0.00  0.00    +0.000 S 
BRANCH  10  11
ATOM     11  C   UNL     1       7.292   4.755  13.167  0.00  0.00    +0.000 C 
ATOM     12  N   UNL     1       8.137   5.627  13.581  0.00  0.00    +0.000 NA
ATOM     13  N   UNL     1       7.310   4.279  11.905  0.00  0.00    +0.000 N 
ATOM     14  H   UNL     1       7.988   5.778  14.582  0.00  0.00    +0.000 HD
ATOM     15  H   UNL     1       7.039   3.305  11.835  0.00  0.00    +0.000 HD
ATOM     16  H   UNL     1       8.188   4.483  11.441  0.00  0.00    +0.000 HD
ENDBRANCH  10  11
ENDBRANCH   9  10
ENDBRANCH   8   9
ENDBRANCH   1   2
BRANCH   1  22
ATOM     17  C   UNL     1       2.288   4.668  19.092  0.00  0.00    +0.000 A 
ATOM     18  C   UNL     1       1.550   4.676  20.300  0.00  0.00    +0.000 A 
ATOM     19  C   UNL     1       1.743   3.709  21.286  0.00  0.00    +0.000 A 
ATOM     20  C   UNL     1       2.681   2.707  21.090  0.00  0.00    +0.000 A 
ATOM     21  C   UNL     1       3.425   2.677  19.912  0.00  0.00    +0.000 A 
ATOM     22  C   UNL     1       3.253   3.647  18.905  0.00  0.00    +0.000 A 
BRANCH  17  23
ATOM     23  C   UNL     1       1.995   5.807  18.130  0.00  0.00    +0.000 C 
BRANCH  23  24
ATOM     24  S   UNL     1       3.045   7.266  18.324  0.00  0.00    +0.000 S 
BRANCH  24  26
ATOM     25  N   UNL     1       1.485   8.509  20.070  0.00  0.00    +0.000 NA
ATOM     26  C   UNL     1       1.873   8.441  18.849  0.00  0.00    +0.000 C 
ATOM     27  N   UNL     1       1.419   9.263  17.878  0.00  0.00    +0.000 N 
ATOM     28  H   UNL     1       0.774   9.235  20.151  0.00  0.00    +0.000 HD
ATOM     29  H   UNL     1       1.058  10.159  18.169  0.00  0.00    +0.000 HD
ATOM     30  H   UNL     1       2.032   9.312  17.072  0.00  0.00    +0.000 HD
ENDBRANCH  24  26
ENDBRANCH  23  24
ENDBRANCH  17  23
ENDBRANCH   1  22
TORSDOF 8
ENDMDL
MODEL 2
REMARK VINA RESULT:      -7.2      2.836      6.769
REMARK  Name = 
REMARK  8 active torsions:
REMARK  status: ('A' for Active; 'I' for Inactive)
REMARK    1  A    between atoms: C_2  and  S_4
REMARK    2  A    between atoms: S_4  and  C_5
REMARK    3  A    between atoms: C_5  and  C_6
REMARK    4  A    between atoms: C_11  and  S_12
REMARK    5  A    between atoms: S_12  and  C_13
REMARK    6  A    between atoms: C_19  and  C_20
REMARK    7  A    between atoms: C_20  and  S_21
REMARK    8  A    between atoms: S_21  and  C_22
REMARK                            x       y       z     vdW  Elec       q    Type
REMARK                         _______ _______ _______ _____ _____    ______ ____
ROOT
ATOM      1  S   UNL     1       3.335   5.020  17.764  0.00  0.00    +0.000 S 
ENDROOT
BRANCH   1   2
ATOM      2  C   UNL     1       2.568   6.416  18.591  0.00  0.00    +0.000 A 
ATOM      3  C   UNL     1       2.526   7.606  17.838  0.00  0.00    +0.000 A 
ATOM      4  C   UNL     1       1.973   8.776  18.342  0.00  0.00    +0.000 A 
ATOM      5  C   UNL     1       1.502   8.783  19.637  0.00  0.00    +0.000 A 
ATOM      6  F   UNL     1       0.975   9.904  20.143  0.00  0.00    +0.000 F 
ATOM      7  C   UNL     1       1.586   7.644  20.431  0.00  0.00    +0.000 A 
ATOM      8  C   UNL     1       2.089   6.419  19.925  0.00  0.00    +0.000 A 
BRANCH   8   9
ATOM      9  C   UNL     1       2.182   5.212  20.857  0.00  0.00    +0.000 C 
BRANCH   9  10
ATOM     10  S   UNL     1       0.968   3.894  20.465  0.00  0.00    +0.000 S 
BRANCH  10  11
ATOM     11  C   UNL     1       2.000   2.561  20.096  0.00  0.00    +0.000 C 
ATOM     12  N   UNL     1       1.720   1.733  19.157  0.00  0.00    +0.000 NA
ATOM     13  N   UNL     1       3.158   2.501  20.785  0.00  0.00    +0.000 N 
ATOM     14  H   UNL     1       0.837   2.016  18.723  0.00  0.00    +0.000 HD
ATOM     15  H   UNL     1       3.515   3.410  21.057  0.00  0.00    +0.000 HD
ATOM     16  H   UNL     1       3.846   1.927  20.312  0.00  0.00    +0.000 HD
ENDBRANCH  10  11
ENDBRANCH   9  10
ENDBRANCH   8   9
ENDBRANCH   1   2
BRANCH   1  22
ATOM     17  C   UNL     1       5.945   5.811  16.857  0.00  0.00    +0.000 A 
ATOM     18  C   UNL     1       7.288   6.130  17.171  0.00  0.00    +0.000 A 
ATOM     19  C   UNL     1       7.773   6.068  18.476  0.00  0.00    +0.000 A 
ATOM     20  C   UNL     1       6.926   5.684  19.505  0.00  0.00    +0.000 A 
ATOM     21  C   UNL     1       5.599   5.361  19.225  0.00  0.00    +0.000 A 
ATOM     22  C   UNL     1       5.090   5.409  17.912  0.00  0.00    +0.000 A 
BRANCH  17  23
ATOM     23  C   UNL     1       5.573   5.888  15.385  0.00  0.00    +0.000 C 
BRANCH  23  24
ATOM     24  S   UNL     1       5.692   4.327  14.480  0.00  0.00    +0.000 S 
BRANCH  24  26
ATOM     25  N   UNL     1       7.946   5.491  13.711  0.00  0.00    +0.000 NA
ATOM     26  C   UNL     1       7.003   4.683  13.391  0.00  0.00    +0.000 C 
ATOM     27  N   UNL     1       6.943   4.043  12.203  0.00  0.00    +0.000 N 
ATOM     28  H   UNL     1       8.583   5.585  12.922  0.00  0.00    +0.000 HD
ATOM     29  H   UNL     1       7.815   3.908  11.712  0.00  0.00    +0.000 HD
ATOM     30  H   UNL     1       6.353   3.219  12.219  0.00  0.00    +0.000 HD
ENDBRANCH  24  26
ENDBRANCH  23  24
ENDBRANCH  17  23
ENDBRANCH   1  22
TORSDOF 8
ENDMDL
MODEL 3
REMARK VINA RESULT:      -7.0      2.747      3.735
REMARK  Name = 
REMARK  8 active torsions:
REMARK  status: ('A' for Active; 'I' for Inactive)
REMARK    1  A    between atoms: C_2  and  S_4
REMARK    2  A    between atoms: S_4  and  C_5
REMARK    3  A    between atoms: C_5  and  C_6
REMARK    4  A    between atoms: C_11  and  S_12
REMARK    5  A    between atoms: S_12  and  C_13
REMARK    6  A    between atoms: C_19  and  C_20
REMARK    7  A    between atoms: C_20  and  S_21
REMARK    8  A    between atoms: S_21  and  C_22
REMARK                            x       y       z     vdW  Elec       q    Type
REMARK                         _______ _______ _______ _____ _____    ______ ____
ROOT
ATOM      1  S   UNL     1       3.781   6.776  16.851  0.00  0.00    +0.000 S 
ENDROOT
BRANCH   1   2
ATOM      2  C   UNL     1       5.296   5.854  17.129  0.00  0.00    +0.000 A 
ATOM      3  C   UNL     1       5.915   6.083  18.373  0.00  0.00    +0.000 A 
ATOM      4  C   UNL     1       7.098   5.452  18.734  0.00  0.00    +0.000 A 
ATOM      5  C   UNL     1       7.710   4.620  17.822  0.00  0.00    +0.000 A 
ATOM      6  F   UNL     1       8.857   4.011  18.148  0.00  0.00    +0.000 F 
ATOM      7  C   UNL     1       7.161   4.421  16.560  0.00  0.00    +0.000 A 
ATOM      8  C   UNL     1       5.924   5.002  16.185  0.00  0.00    +0.000 A 
BRANCH   8   9
ATOM      9  C   UNL     1       5.389   4.768  14.774  0.00  0.00    +0.000 C 
BRANCH   9  10
ATOM     10  S   UNL     1       6.697   4.345  13.560  0.00  0.00    +0.000 S 
BRANCH  10  11
ATOM     11  C   UNL     1       5.845   3.317  12.466  0.00  0.00    +0.000 C 
ATOM     12  N   UNL     1       4.631   3.553  12.128  0.00  0.00    +0.000 NA
ATOM     13  N   UNL     1       6.563   2.314  11.918  0.00  0.00    +0.000 N 
ATOM     14  H   UNL     1       4.317   4.402  12.606  0.00  0.00    +0.000 HD
ATOM     15  H   UNL     1       7.547   2.531  11.809  0.00  0.00    +0.000 HD
ATOM     16  H   UNL     1       6.134   1.969  11.066  0.00  0.00    +0.000 HD
ENDBRANCH  10  11
ENDBRANCH   9  10
ENDBRANCH   8   9
ENDBRANCH   1   2
BRANCH   1  22
ATOM     17  C   UNL     1       2.346   5.074  18.671  0.00  0.00    +0.000 A 
ATOM     18  C   UNL     1       1.644   4.930  19.892  0.00  0.00    +0.000 A 
ATOM     19  C   UNL     1       1.420   6.011  20.743  0.00  0.00    +0.000 A 
ATOM     20  C   UNL     1       1.891   7.268  20.395  0.00  0.00    +0.000 A 
ATOM     21  C   UNL     1       2.582   7.440  19.196  0.00  0.00    +0.000 A 
ATOM     22  C   UNL     1       2.814   6.364  18.317  0.00  0.00    +0.000 A 
BRANCH  17  23
ATOM     23  C   UNL     1       2.478   3.814  17.831  0.00  0.00    +0.000 C 
BRANCH  23  24
ATOM     24  S   UNL     1       2.285   2.262  18.737  0.00  0.00    +0.000 S 
BRANCH  24  26
ATOM     25  N   UNL     1       4.804   2.529  19.522  0.00  0.00    +0.000 NA
ATOM     26  C   UNL     1       3.950   1.785  18.920  0.00  0.00    +0.000 C 
ATOM     27  N   UNL     1       4.257   0.583  18.385  0.00  0.00    +0.000 N 
ATOM     28  H   UNL     1       5.718   2.082  19.482  0.00  0.00    +0.000 HD
ATOM     29  H   UNL     1       5.056   0.102  18.772  0.00  0.00    +0.000 HD
ATOM     30  H   UNL     1       3.450  -0.014  18.245  0.00  0.00    +0.000 HD
ENDBRANCH  24  26
ENDBRANCH  23  24
ENDBRANCH  17  23
ENDBRANCH   1  22
TORSDOF 8
ENDMDL
MODEL 4
REMARK VINA RESULT:      -7.0      3.530      5.502
REMARK  Name = 
REMARK  8 active torsions:
REMARK  status: ('A' for Active; 'I' for Inactive)
REMARK    1  A    between atoms: C_2  and  S_4
REMARK    2  A    between atoms: S_4  and  C_5
REMARK    3  A    between atoms: C_5  and  C_6
REMARK    4  A    between atoms: C_11  and  S_12
REMARK    5  A    between atoms: S_12  and  C_13
REMARK    6  A    between atoms: C_19  and  C_20
REMARK    7  A    between atoms: C_20  and  S_21
REMARK    8  A    between atoms: S_21  and  C_22
REMARK                            x       y       z     vdW  Elec       q    Type
REMARK                         _______ _______ _______ _____ _____    ______ ____
ROOT
ATOM      1  S   UNL     1       2.207   6.119  20.800  0.00  0.00    +0.000 S 
ENDROOT
BRANCH   1   2
ATOM      2  C   UNL     1       2.410   4.760  19.646  0.00  0.00    +0.000 A 
ATOM      3  C   UNL     1       1.227   4.067  19.327  0.00  0.00    +0.000 A 
ATOM      4  C   UNL     1       1.219   2.985  18.455  0.00  0.00    +0.000 A 
ATOM      5  C   UNL     1       2.417   2.547  17.932  0.00  0.00    +0.000 A 
ATOM      6  F   UNL     1       2.431   1.500  17.099  0.00  0.00    +0.000 F 
ATOM      7  C   UNL     1       3.613   3.168  18.276  0.00  0.00    +0.000 A 
ATOM      8  C   UNL     1       3.645   4.311  19.114  0.00  0.00    +0.000 A 
BRANCH   8   9
ATOM      9  C   UNL     1       4.994   4.929  19.478  0.00  0.00    +0.000 C 
BRANCH   9  10
ATOM     10  S   UNL     1       5.961   5.477  18.018  0.00  0.00    +0.000 S 
BRANCH  10  11
ATOM     11  C   UNL     1       7.555   4.967  18.439  0.00  0.00    +0.000 C 
ATOM     12  N   UNL     1       8.224   4.165  17.694  0.00  0.00    +0.000 NA
ATOM     13  N   UNL     1       8.086   5.536  19.540  0.00  0.00    +0.000 N 
ATOM     14  H   UNL     1       7.654   3.925  16.878  0.00  0.00    +0.000 HD
ATOM     15  H   UNL     1       7.750   6.476  19.714  0.00  0.00    +0.000 HD
ATOM     16  H   UNL     1       9.098   5.466  19.548  0.00  0.00    +0.000 HD
ENDBRANCH  10  11
ENDBRANCH   9  10
ENDBRANCH   8   9
ENDBRANCH   1   2
BRANCH   1  22
ATOM     17  C   UNL     1       1.265   8.715  20.002  0.00  0.00    +0.000 A 
ATOM     18  C   UNL     1       1.225   9.738  19.024  0.00  0.00    +0.000 A 
ATOM     19  C   UNL     1       1.862   9.603  17.792  0.00  0.00    +0.000 A 
ATOM     20  C   UNL     1       2.557   8.437  17.503  0.00  0.00    +0.000 A 
ATOM     21  C   UNL     1       2.610   7.412  18.446  0.00  0.00    +0.000 A 
ATOM     22  C   UNL     1       1.968   7.524  19.694  0.00  0.00    +0.000 A 
BRANCH  17  23
ATOM     23  C   UNL     1       0.491   8.991  21.281  0.00  0.00    +0.000 C 
BRANCH  23  24
ATOM     24  S   UNL     1      -0.415  10.556  21.309  0.00  0.00    +0.000 S 
BRANCH  24  26
ATOM     25  N   UNL     1      -0.412   9.830  23.859  0.00  0.00    +0.000 NA
ATOM     26  C   UNL     1      -0.922  10.606  22.974  0.00  0.00    +0.000 C 
ATOM     27  N   UNL     1      -1.879  11.520  23.248  0.00  0.00    +0.000 N 
ATOM     28  H   UNL     1      -0.875   9.997  24.751  0.00  0.00    +0.000 HD
ATOM     29  H   UNL     1      -1.934  11.852  24.199  0.00  0.00    +0.000 HD
ATOM     30  H   UNL     1      -1.942  12.257  22.554  0.00  0.00    +0.000 HD
ENDBRANCH  24  26
ENDBRANCH  23  24
ENDBRANCH  17  23
ENDBRANCH   1  22
TORSDOF 8
ENDMDL
MODEL 5
REMARK VINA RESULT:      -6.9      2.972      6.525
REMARK  Name = 
REMARK  8 active torsions:
REMARK  status: ('A' for Active; 'I' for Inactive)
REMARK    1  A    between atoms: C_2  and  S_4
REMARK    2  A    between atoms: S_4  and  C_5
REMARK    3  A    between atoms: C_5  and  C_6
REMARK    4  A    between atoms: C_11  and  S_12
REMARK    5  A    between atoms: S_12  and  C_13
REMARK    6  A    between atoms: C_19  and  C_20
REMARK    7  A    between atoms: C_20  and  S_21
REMARK    8  A    between atoms: S_21  and  C_22
REMARK                            x       y       z     vdW  Elec       q    Type
REMARK                         _______ _______ _______ _____ _____    ______ ____
ROOT
ATOM      1  S   UNL     1       3.290   4.726  17.513  0.00  0.00    +0.000 S 
ENDROOT
BRANCH   1   2
ATOM      2  C   UNL     1       2.500   5.651  18.832  0.00  0.00    +0.000 A 
ATOM      3  C   UNL     1       2.667   7.048  18.764  0.00  0.00    +0.000 A 
ATOM      4  C   UNL     1       2.124   7.902  19.716  0.00  0.00    +0.000 A 
ATOM      5  C   UNL     1       1.449   7.357  20.787  0.00  0.00    +0.000 A 
ATOM      6  F   UNL     1       0.928   8.163  21.720  0.00  0.00    +0.000 F 
ATOM      7  C   UNL     1       1.321   5.978  20.920  0.00  0.00    +0.000 A 
ATOM      8  C   UNL     1       1.811   5.085  19.934  0.00  0.00    +0.000 A 
BRANCH   8   9
ATOM      9  C   UNL     1       1.663   3.581  20.154  0.00  0.00    +0.000 C 
BRANCH   9  10
ATOM     10  S   UNL     1       3.269   2.710  20.324  0.00  0.00    +0.000 S 
BRANCH  10  11
ATOM     11  C   UNL     1       3.242   1.649  18.963  0.00  0.00    +0.000 C 
ATOM     12  N   UNL     1       4.265   0.949  18.634  0.00  0.00    +0.000 NA
ATOM     13  N   UNL     1       2.056   1.530  18.330  0.00  0.00    +0.000 N 
ATOM     14  H   UNL     1       5.021   1.144  19.296  0.00  0.00    +0.000 HD
ATOM     15  H   UNL     1       1.256   1.658  18.940  0.00  0.00    +0.000 HD
ATOM     16  H   UNL     1       2.008   0.680  17.781  0.00  0.00    +0.000 HD
ENDBRANCH  10  11
ENDBRANCH   9  10
ENDBRANCH   8   9
ENDBRANCH   1   2
BRANCH   1  22
ATOM     17  C   UNL     1       5.909   5.557  16.669  0.00  0.00    +0.000 A 
ATOM     18  C   UNL     1       7.225   5.943  17.019  0.00  0.00    +0.000 A 
ATOM     19  C   UNL     1       7.653   5.979  18.345  0.00  0.00    +0.000 A 
ATOM     20  C   UNL     1       6.775   5.627  19.359  0.00  0.00    +0.000 A 
ATOM     21  C   UNL     1       5.474   5.239  19.044  0.00  0.00    +0.000 A 
ATOM     22  C   UNL     1       5.022   5.188  17.710  0.00  0.00    +0.000 A 
BRANCH  17  23
ATOM     23  C   UNL     1       5.601   5.530  15.180  0.00  0.00    +0.000 C 
BRANCH  23  24
ATOM     24  S   UNL     1       6.169   4.054  14.304  0.00  0.00    +0.000 S 
BRANCH  24  26
ATOM     25  N   UNL     1       8.153   5.637  13.537  0.00  0.00    +0.000 NA
ATOM     26  C   UNL     1       7.289   4.760  13.174  0.00  0.00    +0.000 C 
ATOM     27  N   UNL     1       7.174   4.310  11.905  0.00  0.00    +0.000 N 
ATOM     28  H   UNL     1       8.677   5.943  12.718  0.00  0.00    +0.000 HD
ATOM     29  H   UNL     1       7.993   4.381  11.319  0.00  0.00    +0.000 HD
ATOM     30  H   UNL     1       6.699   3.417  11.837  0.00  0.00    +0.000 HD
ENDBRANCH  24  26
ENDBRANCH  23  24
ENDBRANCH  17  23
ENDBRANCH   1  22
TORSDOF 8
ENDMDL
MODEL 6
REMARK VINA RESULT:      -6.9      3.129      6.607
REMARK  Name = 
REMARK  8 active torsions:
REMARK  status: ('A' for Active; 'I' for Inactive)
REMARK    1  A    between atoms: C_2  and  S_4
REMARK    2  A    between atoms: S_4  and  C_5
REMARK    3  A    between atoms: C_5  and  C_6
REMARK    4  A    between atoms: C_11  and  S_12
REMARK    5  A    between atoms: S_12  and  C_13
REMARK    6  A    between atoms: C_19  and  C_20
REMARK    7  A    between atoms: C_20  and  S_21
REMARK    8  A    between atoms: S_21  and  C_22
REMARK                            x       y       z     vdW  Elec       q    Type
REMARK                         _______ _______ _______ _____ _____    ______ ____
ROOT
ATOM      1  S   UNL     1       3.086   4.681  17.265  0.00  0.00    +0.000 S 
ENDROOT
BRANCH   1   2
ATOM      2  C   UNL     1       2.413   5.638  18.626  0.00  0.00    +0.000 A 
ATOM      3  C   UNL     1       2.611   7.029  18.533  0.00  0.00    +0.000 A 
ATOM      4  C   UNL     1       2.158   7.905  19.511  0.00  0.00    +0.000 A 
ATOM      5  C   UNL     1       1.543   7.386  20.631  0.00  0.00    +0.000 A 
ATOM      6  F   UNL     1       1.108   8.213  21.589  0.00  0.00    +0.000 F 
ATOM      7  C   UNL     1       1.388   6.013  20.786  0.00  0.00    +0.000 A 
ATOM      8  C   UNL     1       1.785   5.099  19.778  0.00  0.00    +0.000 A 
BRANCH   8   9
ATOM      9  C   UNL     1       1.614   3.601  20.021  0.00  0.00    +0.000 C 
BRANCH   9  10
ATOM     10  S   UNL     1       3.007   2.850  20.950  0.00  0.00    +0.000 S 
BRANCH  10  11
ATOM     11  C   UNL     1       3.807   1.946  19.717  0.00  0.00    +0.000 C 
ATOM     12  N   UNL     1       3.169   1.466  18.713  0.00  0.00    +0.000 NA
ATOM     13  N   UNL     1       5.149   1.860  19.824  0.00  0.00    +0.000 N 
ATOM     14  H   UNL     1       2.181   1.718  18.802  0.00  0.00    +0.000 HD
ATOM     15  H   UNL     1       5.572   2.663  20.275  0.00  0.00    +0.000 HD
ATOM     16  H   UNL     1       5.581   1.625  18.938  0.00  0.00    +0.000 HD
ENDBRANCH  10  11
ENDBRANCH   9  10
ENDBRANCH   8   9
ENDBRANCH   1   2
BRANCH   1  22
ATOM     17  C   UNL     1       5.887   4.404  16.677  0.00  0.00    +0.000 A 
ATOM     18  C   UNL     1       7.230   4.589  17.082  0.00  0.00    +0.000 A 
ATOM     19  C   UNL     1       7.556   5.123  18.328  0.00  0.00    +0.000 A 
ATOM     20  C   UNL     1       6.545   5.485  19.205  0.00  0.00    +0.000 A 
ATOM     21  C   UNL     1       5.212   5.310  18.834  0.00  0.00    +0.000 A 
ATOM     22  C   UNL     1       4.860   4.766  17.584  0.00  0.00    +0.000 A 
BRANCH  17  23
ATOM     23  C   UNL     1       5.688   3.776  15.306  0.00  0.00    +0.000 C 
BRANCH  23  24
ATOM     24  S   UNL     1       6.756   4.428  14.001  0.00  0.00    +0.000 S 
BRANCH  24  26
ATOM     25  N   UNL     1       6.999   2.772  11.944  0.00  0.00    +0.000 NA
ATOM     26  C   UNL     1       6.201   3.500  12.636  0.00  0.00    +0.000 C 
ATOM     27  N   UNL     1       4.879   3.609  12.376  0.00  0.00    +0.000 N 
ATOM     28  H   UNL     1       6.479   2.350  11.176  0.00  0.00    +0.000 HD
ATOM     29  H   UNL     1       4.448   2.845  11.877  0.00  0.00    +0.000 HD
ATOM     30  H   UNL     1       4.339   3.935  13.170  0.00  0.00    +0.000 HD
ENDBRANCH  24  26
ENDBRANCH  23  24
ENDBRANCH  17  23
ENDBRANCH   1  22
TORSDOF 8
ENDMDL
MODEL 7
REMARK VINA RESULT:      -6.8      3.277      7.437
REMARK  Name = 
REMARK  8 active torsions:
REMARK  status: ('A' for Active; 'I' for Inactive)
REMARK    1  A    between atoms: C_2  and  S_4
REMARK    2  A    between atoms: S_4  and  C_5
REMARK    3  A    between atoms: C_5  and  C_6
REMARK    4  A    between atoms: C_11  and  S_12
REMARK    5  A    between atoms: S_12  and  C_13
REMARK    6  A    between atoms: C_19  and  C_20
REMARK    7  A    between atoms: C_20  and  S_21
REMARK    8  A    between atoms: S_21  and  C_22
REMARK                            x       y       z     vdW  Elec       q    Type
REMARK                         _______ _______ _______ _____ _____    ______ ____
ROOT
ATOM      1  S   UNL     1       2.318   5.604  20.785  0.00  0.00    +0.000 S 
ENDROOT
BRANCH   1   2
ATOM      2  C   UNL     1       2.164   7.037  19.717  0.00  0.00    +0.000 A 
ATOM      3  C   UNL     1       2.874   6.956  18.503  0.00  0.00    +0.000 A 
ATOM      4  C   UNL     1       2.864   7.988  17.573  0.00  0.00    +0.000 A 
ATOM      5  C   UNL     1       2.181   9.146  17.876  0.00  0.00    +0.000 A 
ATOM      6  F   UNL     1       2.167  10.155  16.997  0.00  0.00    +0.000 F 
ATOM      7  C   UNL     1       1.522   9.286  19.093  0.00  0.00    +0.000 A 
ATOM      8  C   UNL     1       1.464   8.228  20.035  0.00  0.00    +0.000 A 
BRANCH   8   9
ATOM      9  C   UNL     1       0.749   8.455  21.366  0.00  0.00    +0.000 C 
BRANCH   9  10
ATOM     10  S   UNL     1      -0.321   9.946  21.372  0.00  0.00    +0.000 S 
BRANCH  10  11
ATOM     11  C   UNL     1      -0.620  10.158  23.059  0.00  0.00    +0.000 C 
ATOM     12  N   UNL     1       0.101   9.582  23.948  0.00  0.00    +0.000 NA
ATOM     13  N   UNL     1      -1.591  11.039  23.380  0.00  0.00    +0.000 N 
ATOM     14  H   UNL     1       0.821   9.026  23.477  0.00  0.00    +0.000 HD
ATOM     15  H   UNL     1      -1.696  11.790  22.708  0.00  0.00    +0.000 HD
ATOM     16  H   UNL     1      -1.497  11.368  24.334  0.00  0.00    +0.000 HD
ENDBRANCH  10  11
ENDBRANCH   9  10
ENDBRANCH   8   9
ENDBRANCH   1   2
BRANCH   1  22
ATOM     17  C   UNL     1       3.645   3.773  19.009  0.00  0.00    +0.000 A 
ATOM     18  C   UNL     1       3.560   2.666  18.131  0.00  0.00    +0.000 A 
ATOM     19  C   UNL     1       2.345   2.045  17.845  0.00  0.00    +0.000 A 
ATOM     20  C   UNL     1       1.179   2.516  18.431  0.00  0.00    +0.000 A 
ATOM     21  C   UNL     1       1.232   3.608  19.297  0.00  0.00    +0.000 A 
ATOM     22  C   UNL     1       2.447   4.255  19.594  0.00  0.00    +0.000 A 
BRANCH  17  23
ATOM     23  C   UNL     1       5.031   4.368  19.192  0.00  0.00    +0.000 C 
BRANCH  23  24
ATOM     24  S   UNL     1       5.775   5.061  17.697  0.00  0.00    +0.000 S 
BRANCH  24  26
ATOM     25  N   UNL     1       8.245   4.099  17.711  0.00  0.00    +0.000 NA
ATOM     26  C   UNL     1       7.461   5.026  18.128  0.00  0.00    +0.000 C 
ATOM     27  N   UNL     1       7.866   6.042  18.921  0.00  0.00    +0.000 N 
ATOM     28  H   UNL     1       9.172   4.247  18.109  0.00  0.00    +0.000 HD
ATOM     29  H   UNL     1       8.845   6.284  18.889  0.00  0.00    +0.000 HD
ATOM     30  H   UNL     1       7.246   6.843  18.895  0.00  0.00    +0.000 HD
ENDBRANCH  24  26
ENDBRANCH  23  24
ENDBRANCH  17  23
ENDBRANCH   1  22
TORSDOF 8
ENDMDL
MODEL 8
REMARK VINA RESULT:      -6.8      0.712      1.070
REMARK  Name = 
REMARK  8 active torsions:
REMARK  status: ('A' for Active; 'I' for Inactive)
REMARK    1  A    between atoms: C_2  and  S_4
REMARK    2  A    between atoms: S_4  and  C_5
REMARK    3  A    between atoms: C_5  and  C_6
REMARK    4  A    between atoms: C_11  and  S_12
REMARK    5  A    between atoms: S_12  and  C_13
REMARK    6  A    between atoms: C_19  and  C_20
REMARK    7  A    between atoms: C_20  and  S_21
REMARK    8  A    between atoms: S_21  and  C_22
REMARK                            x       y       z     vdW  Elec       q    Type
REMARK                         _______ _______ _______ _____ _____    ______ ____
ROOT
ATOM      1  S   UNL     1       4.231   3.450  17.303  0.00  0.00    +0.000 S 
ENDROOT
BRANCH   1   2
ATOM      2  C   UNL     1       5.592   4.580  17.605  0.00  0.00    +0.000 A 
ATOM      3  C   UNL     1       5.941   4.746  18.960  0.00  0.00    +0.000 A 
ATOM      4  C   UNL     1       6.967   5.594  19.358  0.00  0.00    +0.000 A 
ATOM      5  C   UNL     1       7.624   6.335  18.399  0.00  0.00    +0.000 A 
ATOM      6  F   UNL     1       8.608   7.165  18.764  0.00  0.00    +0.000 F 
ATOM      7  C   UNL     1       7.262   6.245  17.059  0.00  0.00    +0.000 A 
ATOM      8  C   UNL     1       6.261   5.344  16.616  0.00  0.00    +0.000 A 
BRANCH   8   9
ATOM      9  C   UNL     1       5.891   5.314  15.134  0.00  0.00    +0.000 C 
BRANCH   9  10
ATOM     10  S   UNL     1       7.339   5.116  14.025  0.00  0.00    +0.000 S 
BRANCH  10  11
ATOM     11  C   UNL     1       6.764   3.939  12.901  0.00  0.00    +0.000 C 
ATOM     12  N   UNL     1       5.892   3.059  13.234  0.00  0.00    +0.000 NA
ATOM     13  N   UNL     1       7.213   4.063  11.635  0.00  0.00    +0.000 N 
ATOM     14  H   UNL     1       5.642   3.202  14.216  0.00  0.00    +0.000 HD
ATOM     15  H   UNL     1       7.417   5.019  11.368  0.00  0.00    +0.000 HD
ATOM     16  H   UNL     1       6.610   3.584  10.975  0.00  0.00    +0.000 HD
ENDBRANCH  10  11
ENDBRANCH   9  10
ENDBRANCH   8   9
ENDBRANCH   1   2
BRANCH   1  22
ATOM     17  C   UNL     1       2.256   4.749  18.939  0.00  0.00    +0.000 A 
ATOM     18  C   UNL     1       1.491   4.759  20.130  0.00  0.00    +0.000 A 
ATOM     19  C   UNL     1       1.634   3.773  21.105  0.00  0.00    +0.000 A 
ATOM     20  C   UNL     1       2.550   2.749  20.916  0.00  0.00    +0.000 A 
ATOM     21  C   UNL     1       3.320   2.715  19.754  0.00  0.00    +0.000 A 
ATOM     22  C   UNL     1       3.197   3.704  18.759  0.00  0.00    +0.000 A 
BRANCH  17  23
ATOM     23  C   UNL     1       2.017   5.910  17.988  0.00  0.00    +0.000 C 
BRANCH  23  24
ATOM     24  S   UNL     1       3.086   7.346  18.244  0.00  0.00    +0.000 S 
BRANCH  24  26
ATOM     25  N   UNL     1       1.589   9.376  17.428  0.00  0.00    +0.000 NA
ATOM     26  C   UNL     1       1.898   8.608  18.408  0.00  0.00    +0.000 C 
ATOM     27  N   UNL     1       1.339   8.704  19.634  0.00  0.00    +0.000 N 
ATOM     28  H   UNL     1       0.908  10.063  17.749  0.00  0.00    +0.000 HD
ATOM     29  H   UNL     1       0.424   9.128  19.687  0.00  0.00    +0.000 HD
ATOM     30  H   UNL     1       1.430   7.858  20.185  0.00  0.00    +0.000 HD
ENDBRANCH  24  26
ENDBRANCH  23  24
ENDBRANCH  17  23
ENDBRANCH   1  22
TORSDOF 8
ENDMDL
MODEL 9
REMARK VINA RESULT:      -6.7      3.046      6.705
REMARK  Name = 
REMARK  8 active torsions:
REMARK  status: ('A' for Active; 'I' for Inactive)
REMARK    1  A    between atoms: C_2  and  S_4
REMARK    2  A    between atoms: S_4  and  C_5
REMARK    3  A    between atoms: C_5  and  C_6
REMARK    4  A    between atoms: C_11  and  S_12
REMARK    5  A    between atoms: S_12  and  C_13
REMARK    6  A    between atoms: C_19  and  C_20
REMARK    7  A    between atoms: C_20  and  S_21
REMARK    8  A    between atoms: S_21  and  C_22
REMARK                            x       y       z     vdW  Elec       q    Type
REMARK                         _______ _______ _______ _____ _____    ______ ____
ROOT
ATOM      1  S   UNL     1       4.041   4.444  18.029  0.00  0.00    +0.000 S 
ENDROOT
BRANCH   1   2
ATOM      2  C   UNL     1       3.008   5.563  18.978  0.00  0.00    +0.000 A 
ATOM      3  C   UNL     1       2.848   6.846  18.419  0.00  0.00    +0.000 A 
ATOM      4  C   UNL     1       2.087   7.830  19.038  0.00  0.00    +0.000 A 
ATOM      5  C   UNL     1       1.517   7.554  20.263  0.00  0.00    +0.000 A 
ATOM      6  F   UNL     1       0.789   8.492  20.879  0.00  0.00    +0.000 F 
ATOM      7  C   UNL     1       1.708   6.320  20.875  0.00  0.00    +0.000 A 
ATOM      8  C   UNL     1       2.429   5.277  20.240  0.00  0.00    +0.000 A 
BRANCH   8   9
ATOM      9  C   UNL     1       2.628   3.954  20.978  0.00  0.00    +0.000 C 
BRANCH   9  10
ATOM     10  S   UNL     1       1.151   2.866  20.934  0.00  0.00    +0.000 S 
BRANCH  10  11
ATOM     11  C   UNL     1       1.198   2.272  19.314  0.00  0.00    +0.000 C 
ATOM     12  N   UNL     1       0.337   2.639  18.437  0.00  0.00    +0.000 NA
ATOM     13  N   UNL     1       2.246   1.481  19.006  0.00  0.00    +0.000 N 
ATOM     14  H   UNL     1      -0.314   3.297  18.873  0.00  0.00    +0.000 HD
ATOM     15  H   UNL     1       3.084   1.692  19.535  0.00  0.00    +0.000 HD
ATOM     16  H   UNL     1       2.404   1.442  18.005  0.00  0.00    +0.000 HD
ENDBRANCH  10  11
ENDBRANCH   9  10
ENDBRANCH   8   9
ENDBRANCH   1   2
BRANCH   1  22
ATOM     17  C   UNL     1       6.293   5.923  17.027  0.00  0.00    +0.000 A 
ATOM     18  C   UNL     1       7.534   6.555  17.282  0.00  0.00    +0.000 A 
ATOM     19  C   UNL     1       8.116   6.548  18.548  0.00  0.00    +0.000 A 
ATOM     20  C   UNL     1       7.473   5.905  19.596  0.00  0.00    +0.000 A 
ATOM     21  C   UNL     1       6.252   5.271  19.373  0.00  0.00    +0.000 A 
ATOM     22  C   UNL     1       5.648   5.259  18.100  0.00  0.00    +0.000 A 
BRANCH  17  23
ATOM     23  C   UNL     1       5.803   5.981  15.589  0.00  0.00    +0.000 C 
BRANCH  23  24
ATOM     24  S   UNL     1       6.949   5.317  14.358  0.00  0.00    +0.000 S 
BRANCH  24  26
ATOM     25  N   UNL     1       6.082   3.247  12.947  0.00  0.00    +0.000 NA
ATOM     26  C   UNL     1       6.282   3.727  14.120  0.00  0.00    +0.000 C 
ATOM     27  N   UNL     1       6.002   3.053  15.257  0.00  0.00    +0.000 N 
ATOM     28  H   UNL     1       5.654   2.327  13.035  0.00  0.00    +0.000 HD
ATOM     29  H   UNL     1       5.982   2.046  15.198  0.00  0.00    +0.000 HD
ATOM     30  H   UNL     1       6.501   3.405  16.066  0.00  0.00    +0.000 HD
ENDBRANCH  24  26
ENDBRANCH  23  24
ENDBRANCH  17  23
ENDBRANCH   1  22
TORSDOF 8
ENDMDL
