MODEL 1
REMARK VINA RESULT:      -7.0      0.000      0.000
REMARK  Name = 
REMARK  3 active torsions:
REMARK  status: ('A' for Active; 'I' for Inactive)
REMARK    1  A    between atoms: C_1  and  C_2
REMARK    2  A    between atoms: N_15  and  C_16
REMARK    3  A    between atoms: C_16  and  C_17
REMARK                            x       y       z     vdW  Elec       q    Type
REMARK                         _______ _______ _______ _____ _____    ______ ____
ROOT
ATOM      1  C   UNL     1      -0.556  10.079  22.169  0.00  0.00    +0.000 C 
ATOM      2  C   UNL     1      -0.337  10.041  20.684  0.00  0.00    +0.000 A 
ATOM      3  N   UNL     1      -1.312  10.638  19.953  0.00  0.00    +0.000 NA
ATOM      4  C   UNL     1      -1.226  10.639  18.621  0.00  0.00    +0.000 A 
ATOM      5  N   UNL     1      -2.241  11.183  17.871  0.00  0.00    +0.000 N 
ATOM      6  C   UNL     1      -3.446  11.720  18.478  0.00  0.00    +0.000 C 
ATOM      7  C   UNL     1      -4.563  11.256  17.545  0.00  0.00    +0.000 C 
ATOM      8  C   UNL     1      -3.884  11.179  16.186  0.00  0.00    +0.000 C 
ATOM      9  C   UNL     1      -2.470  10.701  16.517  0.00  0.00    +0.000 C 
ATOM     10  N   UNL     1      -0.186  10.091  17.985  0.00  0.00    +0.000 NA
ATOM     11  C   UNL     1       0.811   9.551  18.724  0.00  0.00    +0.000 A 
ATOM     12  C   UNL     1       0.754   9.416  20.099  0.00  0.00    +0.000 A 
ATOM     13  C   UNL     1       1.831   8.671  20.845  0.00  0.00    +0.000 C 
ATOM     14  C   UNL     1       2.091   7.204  20.400  0.00  0.00    +0.000 C 
ATOM     15  N   UNL     1       2.764   6.951  19.103  0.00  0.00    +0.000 NA
ATOM     16  C   UNL     1       2.080   7.561  17.943  0.00  0.00    +0.000 C 
ATOM     17  C   UNL     1       2.012   9.081  17.959  0.00  0.00    +0.000 C 
ENDROOT
BRANCH  15  18
ATOM     18  C   UNL     1       2.828   5.493  18.816  0.00  0.00    +0.000 C 
BRANCH  18  19
ATOM     19  C   UNL     1       4.064   5.085  18.070  0.00  0.00    +0.000 A 
ATOM     20  C   UNL     1       4.090   4.249  16.906  0.00  0.00    +0.000 A 
ATOM     21  C   UNL     1       5.370   3.986  16.470  0.00  0.00    +0.000 A 
ATOM     22  S   UNL     1       6.549   4.742  17.447  0.00  0.00    +0.000 S 
ATOM     23  C   UNL     1       5.351   5.418  18.460  0.00  0.00    +0.000 A 
ENDBRANCH  18  19
ENDBRANCH  15  18
TORSDOF 2
ENDMDL
MODEL 2
REMARK VINA RESULT:      -6.6      1.622      2.079
REMARK  Name = 
REMARK  3 active torsions:
REMARK  status: ('A' for Active; 'I' for Inactive)
REMARK    1  A    between atoms: C_1  and  C_2
REMARK    2  A    between atoms: N_15  and  C_16
REMARK    3  A    between atoms: C_16  and  C_17
REMARK                            x       y       z     vdW  Elec       q    Type
REMARK                         _______ _______ _______ _____ _____    ______ ____
ROOT
ATOM      1  C   UNL     1      -0.481   9.459  22.118  0.00  0.00    +0.000 C 
ATOM      2  C   UNL     1      -0.246   9.639  20.646  0.00  0.00    +0.000 A 
ATOM      3  N   UNL     1      -1.218  10.330  19.998  0.00  0.00    +0.000 NA
ATOM      4  C   UNL     1      -1.119  10.527  18.682  0.00  0.00    +0.000 A 
ATOM      5  N   UNL     1      -2.129  11.167  18.008  0.00  0.00    +0.000 N 
ATOM      6  C   UNL     1      -3.345  11.602  18.673  0.00  0.00    +0.000 C 
ATOM      7  C   UNL     1      -4.449  11.273  17.670  0.00  0.00    +0.000 C 
ATOM      8  C   UNL     1      -3.755  11.400  16.321  0.00  0.00    +0.000 C 
ATOM      9  C   UNL     1      -2.341  10.887  16.595  0.00  0.00    +0.000 C 
ATOM     10  N   UNL     1      -0.068  10.084  17.984  0.00  0.00    +0.000 NA
ATOM     11  C   UNL     1       0.926   9.448  18.649  0.00  0.00    +0.000 A 
ATOM     12  C   UNL     1       0.855   9.114  19.989  0.00  0.00    +0.000 A 
ATOM     13  C   UNL     1       1.931   8.274  20.630  0.00  0.00    +0.000 C 
ATOM     14  C   UNL     1       2.207   6.890  19.978  0.00  0.00    +0.000 C 
ATOM     15  N   UNL     1       2.896   6.833  18.666  0.00  0.00    +0.000 NA
ATOM     16  C   UNL     1       2.219   7.601  17.600  0.00  0.00    +0.000 C 
ATOM     17  C   UNL     1       2.138   9.102  17.837  0.00  0.00    +0.000 C 
ENDROOT
BRANCH  15  18
ATOM     18  C   UNL     1       2.974   5.432  18.170  0.00  0.00    +0.000 C 
BRANCH  18  19
ATOM     19  C   UNL     1       2.500   4.418  19.169  0.00  0.00    +0.000 A 
ATOM     20  C   UNL     1       1.185   3.847  19.208  0.00  0.00    +0.000 A 
ATOM     21  C   UNL     1       1.011   2.991  20.273  0.00  0.00    +0.000 A 
ATOM     22  S   UNL     1       2.419   2.861  21.230  0.00  0.00    +0.000 S 
ATOM     23  C   UNL     1       3.266   3.954  20.225  0.00  0.00    +0.000 A 
ENDBRANCH  18  19
ENDBRANCH  15  18
TORSDOF 2
ENDMDL
MODEL 3
REMARK VINA RESULT:      -6.6      3.704      8.231
REMARK  Name = 
REMARK  3 active torsions:
REMARK  status: ('A' for Active; 'I' for Inactive)
REMARK    1  A    between atoms: C_1  and  C_2
REMARK    2  A    between atoms: N_15  and  C_16
REMARK    3  A    between atoms: C_16  and  C_17
REMARK                            x       y       z     vdW  Elec       q    Type
REMARK                         _______ _______ _______ _____ _____    ______ ____
ROOT
ATOM      1  C   UNL     1       2.364   4.465  21.231  0.00  0.00    +0.000 C 
ATOM      2  C   UNL     1       2.679   5.436  20.131  0.00  0.00    +0.000 A 
ATOM      3  N   UNL     1       3.782   5.128  19.402  0.00  0.00    +0.000 NA
ATOM      4  C   UNL     1       4.164   5.939  18.414  0.00  0.00    +0.000 A 
ATOM      5  N   UNL     1       5.315   5.670  17.715  0.00  0.00    +0.000 N 
ATOM      6  C   UNL     1       6.174   4.546  18.046  0.00  0.00    +0.000 C 
ATOM      7  C   UNL     1       7.586   5.109  17.894  0.00  0.00    +0.000 C 
ATOM      8  C   UNL     1       7.432   6.173  16.818  0.00  0.00    +0.000 C 
ATOM      9  C   UNL     1       6.047   6.761  17.089  0.00  0.00    +0.000 C 
ATOM     10  N   UNL     1       3.470   7.038  18.101  0.00  0.00    +0.000 NA
ATOM     11  C   UNL     1       2.339   7.306  18.794  0.00  0.00    +0.000 A 
ATOM     12  C   UNL     1       1.928   6.578  19.896  0.00  0.00    +0.000 A 
ATOM     13  C   UNL     1       0.740   7.019  20.712  0.00  0.00    +0.000 C 
ATOM     14  C   UNL     1       0.801   8.459  21.296  0.00  0.00    +0.000 C 
ATOM     15  N   UNL     1       0.648   9.617  20.382  0.00  0.00    +0.000 NA
ATOM     16  C   UNL     1       1.627   9.640  19.274  0.00  0.00    +0.000 C 
ATOM     17  C   UNL     1       1.532   8.471  18.304  0.00  0.00    +0.000 C 
ENDROOT
BRANCH  15  18
ATOM     18  C   UNL     1       0.836  10.898  21.116  0.00  0.00    +0.000 C 
BRANCH  18  19
ATOM     19  C   UNL     1      -0.446  11.486  21.628  0.00  0.00    +0.000 A 
ATOM     20  C   UNL     1      -1.002  11.251  22.928  0.00  0.00    +0.000 A 
ATOM     21  C   UNL     1      -2.221  11.868  23.102  0.00  0.00    +0.000 A 
ATOM     22  S   UNL     1      -2.706  12.736  21.714  0.00  0.00    +0.000 S 
ATOM     23  C   UNL     1      -1.289  12.284  20.873  0.00  0.00    +0.000 A 
ENDBRANCH  18  19
ENDBRANCH  15  18
TORSDOF 2
ENDMDL
MODEL 4
REMARK VINA RESULT:      -6.6      4.376      8.371
REMARK  Name = 
REMARK  3 active torsions:
REMARK  status: ('A' for Active; 'I' for Inactive)
REMARK    1  A    between atoms: C_1  and  C_2
REMARK    2  A    between atoms: N_15  and  C_16
REMARK    3  A    between atoms: C_16  and  C_17
REMARK                            x       y       z     vdW  Elec       q    Type
REMARK                         _______ _______ _______ _____ _____    ______ ____
ROOT
ATOM      1  C   UNL     1       1.714   9.870  17.770  0.00  0.00    +0.000 C 
ATOM      2  C   UNL     1       1.660   9.059  19.033  0.00  0.00    +0.000 A 
ATOM      3  N   UNL     1       1.890   7.732  18.863  0.00  0.00    +0.000 NA
ATOM      4  C   UNL     1       1.842   6.917  19.919  0.00  0.00    +0.000 A 
ATOM      5  N   UNL     1       2.009   5.565  19.747  0.00  0.00    +0.000 N 
ATOM      6  C   UNL     1       2.189   4.971  18.434  0.00  0.00    +0.000 C 
ATOM      7  C   UNL     1       1.356   3.692  18.494  0.00  0.00    +0.000 C 
ATOM      8  C   UNL     1       1.412   3.299  19.963  0.00  0.00    +0.000 C 
ATOM      9  C   UNL     1       1.405   4.641  20.695  0.00  0.00    +0.000 C 
ATOM     10  N   UNL     1       1.600   7.379  21.150  0.00  0.00    +0.000 NA
ATOM     11  C   UNL     1       1.430   8.711  21.318  0.00  0.00    +0.000 A 
ATOM     12  C   UNL     1       1.363   9.610  20.270  0.00  0.00    +0.000 A 
ATOM     13  C   UNL     1       1.022  11.058  20.517  0.00  0.00    +0.000 C 
ATOM     14  C   UNL     1      -0.319  11.336  21.252  0.00  0.00    +0.000 C 
ATOM     15  N   UNL     1      -0.430  11.026  22.698  0.00  0.00    +0.000 NA
ATOM     16  C   UNL     1      -0.123   9.620  23.035  0.00  0.00    +0.000 C 
ATOM     17  C   UNL     1       1.304   9.180  22.737  0.00  0.00    +0.000 C 
ENDROOT
BRANCH  15  18
ATOM     18  C   UNL     1      -1.814  11.267  23.186  0.00  0.00    +0.000 C 
BRANCH  18  19
ATOM     19  C   UNL     1      -2.222  12.711  23.135  0.00  0.00    +0.000 A 
ATOM     20  C   UNL     1      -1.427  13.812  23.594  0.00  0.00    +0.000 A 
ATOM     21  C   UNL     1      -2.081  15.019  23.484  0.00  0.00    +0.000 A 
ATOM     22  S   UNL     1      -3.647  14.844  22.826  0.00  0.00    +0.000 S 
ATOM     23  C   UNL     1      -3.458  13.151  22.692  0.00  0.00    +0.000 A 
ENDBRANCH  18  19
ENDBRANCH  15  18
TORSDOF 2
ENDMDL
MODEL 5
REMARK VINA RESULT:      -6.4      5.543      8.106
REMARK  Name = 
REMARK  3 active torsions:
REMARK  status: ('A' for Active; 'I' for Inactive)
REMARK    1  A    between atoms: C_1  and  C_2
REMARK    2  A    between atoms: N_15  and  C_16
REMARK    3  A    between atoms: C_16  and  C_17
REMARK                            x       y       z     vdW  Elec       q    Type
REMARK                         _______ _______ _______ _____ _____    ______ ____
ROOT
ATOM      1  C   UNL     1       8.579   5.463  20.023  0.00  0.00    +0.000 C 
ATOM      2  C   UNL     1       7.989   6.391  19.001  0.00  0.00    +0.000 A 
ATOM      3  N   UNL     1       8.595   7.603  18.920  0.00  0.00    +0.000 NA
ATOM      4  C   UNL     1       8.133   8.512  18.059  0.00  0.00    +0.000 A 
ATOM      5  N   UNL     1       8.698   9.763  18.017  0.00  0.00    +0.000 N 
ATOM      6  C   UNL     1       9.763  10.159  18.922  0.00  0.00    +0.000 C 
ATOM      7  C   UNL     1       9.408  11.596  19.299  0.00  0.00    +0.000 C 
ATOM      8  C   UNL     1       8.676  12.116  18.071  0.00  0.00    +0.000 C 
ATOM      9  C   UNL     1       7.902  10.896  17.570  0.00  0.00    +0.000 C 
ATOM     10  N   UNL     1       7.102   8.251  17.249  0.00  0.00    +0.000 NA
ATOM     11  C   UNL     1       6.542   7.019  17.294  0.00  0.00    +0.000 A 
ATOM     12  C   UNL     1       6.890   6.056  18.224  0.00  0.00    +0.000 A 
ATOM     13  C   UNL     1       6.124   4.761  18.316  0.00  0.00    +0.000 C 
ATOM     14  C   UNL     1       4.592   4.881  18.550  0.00  0.00    +0.000 C 
ATOM     15  N   UNL     1       3.726   5.357  17.445  0.00  0.00    +0.000 NA
ATOM     16  C   UNL     1       4.109   6.680  16.910  0.00  0.00    +0.000 C 
ATOM     17  C   UNL     1       5.487   6.743  16.266  0.00  0.00    +0.000 C 
ENDROOT
BRANCH  15  18
ATOM     18  C   UNL     1       2.316   5.496  17.900  0.00  0.00    +0.000 C 
BRANCH  18  19
ATOM     19  C   UNL     1       1.849   4.355  18.755  0.00  0.00    +0.000 A 
ATOM     20  C   UNL     1       1.523   3.043  18.278  0.00  0.00    +0.000 A 
ATOM     21  C   UNL     1       1.060   2.216  19.277  0.00  0.00    +0.000 A 
ATOM     22  S   UNL     1       1.017   3.001  20.793  0.00  0.00    +0.000 S 
ATOM     23  C   UNL     1       1.613   4.453  20.116  0.00  0.00    +0.000 A 
ENDBRANCH  18  19
ENDBRANCH  15  18
TORSDOF 2
ENDMDL
MODEL 6
REMARK VINA RESULT:      -6.3      3.420      8.171
REMARK  Name = 
REMARK  3 active torsions:
REMARK  status: ('A' for Active; 'I' for Inactive)
REMARK    1  A    between atoms: C_1  and  C_2
REMARK    2  A    between atoms: N_15  and  C_16
REMARK    3  A    between atoms: C_16  and  C_17
REMARK                            x       y       z     vdW  Elec       q    Type
REMARK                         _______ _______ _______ _____ _____    ______ ____
ROOT
ATOM      1  C   UNL     1       3.724   7.384  16.806  0.00  0.00    +0.000 C 
ATOM      2  C   UNL     1       3.032   7.213  18.128  0.00  0.00    +0.000 A 
ATOM      3  N   UNL     1       3.119   5.965  18.655  0.00  0.00    +0.000 NA
ATOM      4  C   UNL     1       2.518   5.700  19.817  0.00  0.00    +0.000 A 
ATOM      5  N   UNL     1       2.546   4.425  20.325  0.00  0.00    +0.000 N 
ATOM      6  C   UNL     1       3.170   3.324  19.612  0.00  0.00    +0.000 C 
ATOM      7  C   UNL     1       2.213   2.154  19.837  0.00  0.00    +0.000 C 
ATOM      8  C   UNL     1       1.595   2.455  21.194  0.00  0.00    +0.000 C 
ATOM      9  C   UNL     1       1.475   3.979  21.205  0.00  0.00    +0.000 C 
ATOM     10  N   UNL     1       1.854   6.642  20.494  0.00  0.00    +0.000 NA
ATOM     11  C   UNL     1       1.823   7.898  19.990  0.00  0.00    +0.000 A 
ATOM     12  C   UNL     1       2.329   8.234  18.748  0.00  0.00    +0.000 A 
ATOM     13  C   UNL     1       2.128   9.618  18.183  0.00  0.00    +0.000 C 
ATOM     14  C   UNL     1       0.658  10.108  18.064  0.00  0.00    +0.000 C 
ATOM     15  N   UNL     1      -0.089  10.464  19.294  0.00  0.00    +0.000 NA
ATOM     16  C   UNL     1      -0.156   9.373  20.291  0.00  0.00    +0.000 C 
ATOM     17  C   UNL     1       1.185   8.937  20.863  0.00  0.00    +0.000 C 
ENDROOT
BRANCH  15  18
ATOM     18  C   UNL     1      -1.500  10.809  18.976  0.00  0.00    +0.000 C 
BRANCH  18  19
ATOM     19  C   UNL     1      -2.000  12.016  19.714  0.00  0.00    +0.000 A 
ATOM     20  C   UNL     1      -3.380  12.347  19.921  0.00  0.00    +0.000 A 
ATOM     21  C   UNL     1      -3.545  13.547  20.576  0.00  0.00    +0.000 A 
ATOM     22  S   UNL     1      -2.051  14.284  20.952  0.00  0.00    +0.000 S 
ATOM     23  C   UNL     1      -1.178  13.002  20.235  0.00  0.00    +0.000 A 
ENDBRANCH  18  19
ENDBRANCH  15  18
TORSDOF 2
ENDMDL
MODEL 7
REMARK VINA RESULT:      -6.2      4.492      8.048
REMARK  Name = 
REMARK  3 active torsions:
REMARK  status: ('A' for Active; 'I' for Inactive)
REMARK    1  A    between atoms: C_1  and  C_2
REMARK    2  A    between atoms: N_15  and  C_16
REMARK    3  A    between atoms: C_16  and  C_17
REMARK                            x       y       z     vdW  Elec       q    Type
REMARK                         _______ _______ _______ _____ _____    ______ ____
ROOT
ATOM      1  C   UNL     1       0.274   9.263  22.921  0.00  0.00    +0.000 C 
ATOM      2  C   UNL     1       0.579   9.466  21.464  0.00  0.00    +0.000 A 
ATOM      3  N   UNL     1       1.179   8.410  20.859  0.00  0.00    +0.000 NA
ATOM      4  C   UNL     1       1.514   8.496  19.570  0.00  0.00    +0.000 A 
ATOM      5  N   UNL     1       2.179   7.457  18.966  0.00  0.00    +0.000 N 
ATOM      6  C   UNL     1       2.584   6.270  19.700  0.00  0.00    +0.000 C 
ATOM      7  C   UNL     1       3.976   5.959  19.152  0.00  0.00    +0.000 C 
ATOM      8  C   UNL     1       3.920   6.476  17.722  0.00  0.00    +0.000 C 
ATOM      9  C   UNL     1       3.042   7.724  17.825  0.00  0.00    +0.000 C 
ATOM     10  N   UNL     1       1.247   9.588  18.847  0.00  0.00    +0.000 NA
ATOM     11  C   UNL     1       0.596  10.613  19.444  0.00  0.00    +0.000 A 
ATOM     12  C   UNL     1       0.305  10.649  20.795  0.00  0.00    +0.000 A 
ATOM     13  C   UNL     1      -0.288  11.885  21.423  0.00  0.00    +0.000 C 
ATOM     14  C   UNL     1       0.515  13.204  21.243  0.00  0.00    +0.000 C 
ATOM     15  N   UNL     1       0.549  13.854  19.911  0.00  0.00    +0.000 NA
ATOM     16  C   UNL     1       1.051  12.980  18.830  0.00  0.00    +0.000 C 
ATOM     17  C   UNL     1       0.202  11.749  18.547  0.00  0.00    +0.000 C 
ENDROOT
BRANCH  15  18
ATOM     18  C   UNL     1       1.447  15.040  19.924  0.00  0.00    +0.000 C 
BRANCH  18  19
ATOM     19  C   UNL     1       0.987  16.146  19.021  0.00  0.00    +0.000 A 
ATOM     20  C   UNL     1      -0.381  16.470  18.739  0.00  0.00    +0.000 A 
ATOM     21  C   UNL     1      -0.506  17.492  17.823  0.00  0.00    +0.000 A 
ATOM     22  S   UNL     1       1.011  18.074  17.300  0.00  0.00    +0.000 S 
ATOM     23  C   UNL     1       1.841  16.957  18.291  0.00  0.00    +0.000 A 
ENDBRANCH  18  19
ENDBRANCH  15  18
TORSDOF 2
ENDMDL
MODEL 8
REMARK VINA RESULT:      -6.2      3.364      7.902
REMARK  Name = 
REMARK  3 active torsions:
REMARK  status: ('A' for Active; 'I' for Inactive)
REMARK    1  A    between atoms: C_1  and  C_2
REMARK    2  A    between atoms: N_15  and  C_16
REMARK    3  A    between atoms: C_16  and  C_17
REMARK                            x       y       z     vdW  Elec       q    Type
REMARK                         _______ _______ _______ _____ _____    ______ ____
ROOT
ATOM      1  C   UNL     1       2.294   4.580  21.209  0.00  0.00    +0.000 C 
ATOM      2  C   UNL     1       2.638   5.531  20.098  0.00  0.00    +0.000 A 
ATOM      3  N   UNL     1       3.727   5.178  19.368  0.00  0.00    +0.000 NA
ATOM      4  C   UNL     1       4.132   5.966  18.371  0.00  0.00    +0.000 A 
ATOM      5  N   UNL     1       5.270   5.651  17.670  0.00  0.00    +0.000 N 
ATOM      6  C   UNL     1       6.091   4.501  18.008  0.00  0.00    +0.000 C 
ATOM      7  C   UNL     1       7.521   5.013  17.845  0.00  0.00    +0.000 C 
ATOM      8  C   UNL     1       7.400   6.072  16.760  0.00  0.00    +0.000 C 
ATOM      9  C   UNL     1       6.037   6.710  17.031  0.00  0.00    +0.000 C 
ATOM     10  N   UNL     1       3.476   7.086  18.051  0.00  0.00    +0.000 NA
ATOM     11  C   UNL     1       2.357   7.399  18.746  0.00  0.00    +0.000 A 
ATOM     12  C   UNL     1       1.926   6.695  19.855  0.00  0.00    +0.000 A 
ATOM     13  C   UNL     1       0.758   7.185  20.672  0.00  0.00    +0.000 C 
ATOM     14  C   UNL     1       0.870   8.627  21.243  0.00  0.00    +0.000 C 
ATOM     15  N   UNL     1       0.754   9.781  20.319  0.00  0.00    +0.000 NA
ATOM     16  C   UNL     1       1.729   9.760  19.207  0.00  0.00    +0.000 C 
ATOM     17  C   UNL     1       1.589   8.587  18.248  0.00  0.00    +0.000 C 
ENDROOT
BRANCH  15  18
ATOM     18  C   UNL     1       0.990  11.061  21.040  0.00  0.00    +0.000 C 
BRANCH  18  19
ATOM     19  C   UNL     1       0.760  12.276  20.190  0.00  0.00    +0.000 A 
ATOM     20  C   UNL     1      -0.437  12.556  19.453  0.00  0.00    +0.000 A 
ATOM     21  C   UNL     1      -0.343  13.711  18.708  0.00  0.00    +0.000 A 
ATOM     22  S   UNL     1       1.175  14.470  18.889  0.00  0.00    +0.000 S 
ATOM     23  C   UNL     1       1.715  13.253  19.960  0.00  0.00    +0.000 A 
ENDBRANCH  18  19
ENDBRANCH  15  18
TORSDOF 2
ENDMDL
MODEL 9
REMARK VINA RESULT:      -6.2      2.566      4.756
REMARK  Name = 
REMARK  3 active torsions:
REMARK  status: ('A' for Active; 'I' for Inactive)
REMARK    1  A    between atoms: C_1  and  C_2
REMARK    2  A    between atoms: N_15  and  C_16
REMARK    3  A    between atoms: C_16  and  C_17
REMARK                            x       y       z     vdW  Elec       q    Type
REMARK                         _______ _______ _______ _____ _____    ______ ____
ROOT
ATOM      1  C   UNL     1       2.120   4.507  20.996  0.00  0.00    +0.000 C 
ATOM      2  C   UNL     1       2.575   5.586  20.055  0.00  0.00    +0.000 A 
ATOM      3  N   UNL     1       1.891   6.753  20.159  0.00  0.00    +0.000 NA
ATOM      4  C   UNL     1       2.200   7.770  19.352  0.00  0.00    +0.000 A 
ATOM      5  N   UNL     1       1.471   8.932  19.406  0.00  0.00    +0.000 N 
ATOM      6  C   UNL     1       0.326   9.083  20.287  0.00  0.00    +0.000 C 
ATOM      7  C   UNL     1      -0.691   9.845  19.437  0.00  0.00    +0.000 C 
ATOM      8  C   UNL     1       0.177  10.681  18.508  0.00  0.00    +0.000 C 
ATOM      9  C   UNL     1       1.376   9.776  18.224  0.00  0.00    +0.000 C 
ATOM     10  N   UNL     1       3.189   7.679  18.457  0.00  0.00    +0.000 NA
ATOM     11  C   UNL     1       3.905   6.531  18.401  0.00  0.00    +0.000 A 
ATOM     12  C   UNL     1       3.587   5.398  19.126  0.00  0.00    +0.000 A 
ATOM     13  C   UNL     1       4.334   4.107  18.905  0.00  0.00    +0.000 C 
ATOM     14  C   UNL     1       4.341   3.554  17.452  0.00  0.00    +0.000 C 
ATOM     15  N   UNL     1       5.154   4.243  16.420  0.00  0.00    +0.000 NA
ATOM     16  C   UNL     1       4.826   5.675  16.255  0.00  0.00    +0.000 C 
ATOM     17  C   UNL     1       5.087   6.542  17.479  0.00  0.00    +0.000 C 
ENDROOT
BRANCH  15  18
ATOM     18  C   UNL     1       4.947   3.623  15.083  0.00  0.00    +0.000 C 
BRANCH  18  19
ATOM     19  C   UNL     1       5.957   4.057  14.062  0.00  0.00    +0.000 A 
ATOM     20  C   UNL     1       6.004   3.606  12.702  0.00  0.00    +0.000 A 
ATOM     21  C   UNL     1       7.078   4.120  12.010  0.00  0.00    +0.000 A 
ATOM     22  S   UNL     1       8.034   5.150  12.981  0.00  0.00    +0.000 S 
ATOM     23  C   UNL     1       7.017   4.907  14.332  0.00  0.00    +0.000 A 
ENDBRANCH  18  19
ENDBRANCH  15  18
TORSDOF 2
ENDMDL
