MODEL 1
REMARK VINA RESULT:      -7.1      0.000      0.000
REMARK  Name = 
REMARK  4 active torsions:
REMARK  status: ('A' for Active; 'I' for Inactive)
REMARK    1  A    between atoms: C_2  and  C_3
REMARK    2  A    between atoms: C_13  and  C_14
REMARK    3  A    between atoms: C_14  and  C_15
REMARK    4  A    between atoms: C_14  and  C_16
REMARK                            x       y       z     vdW  Elec       q    Type
REMARK                         _______ _______ _______ _____ _____    ______ ____
ROOT
ATOM      1  C   UNL     1       5.237   6.546  17.642  0.00  0.00    +0.000 A 
ATOM      2  C   UNL     1       4.575   7.692  17.173  0.00  0.00    +0.000 A 
ATOM      3  C   UNL     1       3.219   7.885  17.425  0.00  0.00    +0.000 A 
ATOM      4  C   UNL     1       2.500   6.917  18.124  0.00  0.00    +0.000 A 
ATOM      5  C   UNL     1       3.135   5.759  18.592  0.00  0.00    +0.000 A 
ATOM      6  C   UNL     1       4.513   5.589  18.381  0.00  0.00    +0.000 A 
ATOM      7  C   UNL     1       5.150   4.398  18.993  0.00  0.00    +0.000 C 
ATOM      8  O   UNL     1       6.357   4.316  19.179  0.00  0.00    +0.000 OA
ATOM      9  C   UNL     1       4.248   3.265  19.471  0.00  0.00    +0.000 C 
ATOM     10  O   UNL     1       4.723   2.163  19.713  0.00  0.00    +0.000 OA
ATOM     11  C   UNL     1       2.791   3.546  19.651  0.00  0.00    +0.000 C 
ATOM     12  C   UNL     1       2.322   4.740  19.257  0.00  0.00    +0.000 C 
ENDROOT
BRANCH  11  13
ATOM     13  C   UNL     1       1.935   2.429  20.227  0.00  0.00    +0.000 C 
ATOM     14  C   UNL     1       1.506   2.757  21.658  0.00  0.00    +0.000 C 
ATOM     15  C   UNL     1       0.702   2.094  19.375  0.00  0.00    +0.000 C 
ENDBRANCH  11  13
BRANCH   1  17
ATOM     16  C   UNL     1       7.557   7.337  17.586  0.00  0.00    +0.000 C 
ATOM     17  C   UNL     1       6.648   6.404  17.274  0.00  0.00    +0.000 C 
ENDBRANCH   1  17
TORSDOF 2
ENDMDL
MODEL 2
REMARK VINA RESULT:      -6.9      2.155      2.973
REMARK  Name = 
REMARK  4 active torsions:
REMARK  status: ('A' for Active; 'I' for Inactive)
REMARK    1  A    between atoms: C_2  and  C_3
REMARK    2  A    between atoms: C_13  and  C_14
REMARK    3  A    between atoms: C_14  and  C_15
REMARK    4  A    between atoms: C_14  and  C_16
REMARK                            x       y       z     vdW  Elec       q    Type
REMARK                         _______ _______ _______ _____ _____    ______ ____
ROOT
ATOM      1  C   UNL     1       5.752   6.066  16.785  0.00  0.00    +0.000 A 
ATOM      2  C   UNL     1       6.500   5.225  15.946  0.00  0.00    +0.000 A 
ATOM      3  C   UNL     1       6.083   3.922  15.687  0.00  0.00    +0.000 A 
ATOM      4  C   UNL     1       4.927   3.432  16.292  0.00  0.00    +0.000 A 
ATOM      5  C   UNL     1       4.169   4.247  17.144  0.00  0.00    +0.000 A 
ATOM      6  C   UNL     1       4.564   5.578  17.364  0.00  0.00    +0.000 A 
ATOM      7  C   UNL     1       3.665   6.423  18.186  0.00  0.00    +0.000 C 
ATOM      8  O   UNL     1       3.705   7.647  18.164  0.00  0.00    +0.000 OA
ATOM      9  C   UNL     1       2.604   5.731  19.035  0.00  0.00    +0.000 C 
ATOM     10  O   UNL     1       2.039   6.346  19.932  0.00  0.00    +0.000 OA
ATOM     11  C   UNL     1       2.266   4.309  18.728  0.00  0.00    +0.000 C 
ATOM     12  C   UNL     1       3.005   3.665  17.811  0.00  0.00    +0.000 C 
ENDROOT
BRANCH  11  13
ATOM     13  C   UNL     1       1.132   3.678  19.521  0.00  0.00    +0.000 C 
ATOM     14  C   UNL     1       0.597   2.435  18.809  0.00  0.00    +0.000 C 
ATOM     15  C   UNL     1       1.511   3.330  20.969  0.00  0.00    +0.000 C 
ENDBRANCH  11  13
BRANCH   1  17
ATOM     16  C   UNL     1       7.535   7.568  17.543  0.00  0.00    +0.000 C 
ATOM     17  C   UNL     1       6.304   7.398  17.043  0.00  0.00    +0.000 C 
ENDBRANCH   1  17
TORSDOF 2
ENDMDL
MODEL 3
REMARK VINA RESULT:      -6.8      1.970      4.918
REMARK  Name = 
REMARK  4 active torsions:
REMARK  status: ('A' for Active; 'I' for Inactive)
REMARK    1  A    between atoms: C_2  and  C_3
REMARK    2  A    between atoms: C_13  and  C_14
REMARK    3  A    between atoms: C_14  and  C_15
REMARK    4  A    between atoms: C_14  and  C_16
REMARK                            x       y       z     vdW  Elec       q    Type
REMARK                         _______ _______ _______ _____ _____    ______ ____
ROOT
ATOM      1  C   UNL     1       1.692   4.614  20.028  0.00  0.00    +0.000 A 
ATOM      2  C   UNL     1       1.489   5.915  20.514  0.00  0.00    +0.000 A 
ATOM      3  C   UNL     1       2.147   7.000  19.943  0.00  0.00    +0.000 A 
ATOM      4  C   UNL     1       3.044   6.794  18.896  0.00  0.00    +0.000 A 
ATOM      5  C   UNL     1       3.275   5.503  18.401  0.00  0.00    +0.000 A 
ATOM      6  C   UNL     1       2.572   4.415  18.945  0.00  0.00    +0.000 A 
ATOM      7  C   UNL     1       2.776   3.091  18.309  0.00  0.00    +0.000 C 
ATOM      8  O   UNL     1       1.991   2.162  18.449  0.00  0.00    +0.000 OA
ATOM      9  C   UNL     1       3.978   2.913  17.388  0.00  0.00    +0.000 C 
ATOM     10  O   UNL     1       4.348   1.789  17.073  0.00  0.00    +0.000 OA
ATOM     11  C   UNL     1       4.665   4.137  16.873  0.00  0.00    +0.000 C 
ATOM     12  C   UNL     1       4.278   5.330  17.351  0.00  0.00    +0.000 C 
ENDROOT
BRANCH  11  13
ATOM     13  C   UNL     1       5.793   3.931  15.875  0.00  0.00    +0.000 C 
ATOM     14  C   UNL     1       5.405   4.471  14.498  0.00  0.00    +0.000 C 
ATOM     15  C   UNL     1       7.130   4.543  16.320  0.00  0.00    +0.000 C 
ENDBRANCH  11  13
BRANCH   1  17
ATOM     16  C   UNL     1       1.576   2.869  21.747  0.00  0.00    +0.000 C 
ATOM     17  C   UNL     1       1.002   3.531  20.734  0.00  0.00    +0.000 C 
ENDBRANCH   1  17
TORSDOF 2
ENDMDL
MODEL 4
REMARK VINA RESULT:      -6.7      2.337      3.256
REMARK  Name = 
REMARK  4 active torsions:
REMARK  status: ('A' for Active; 'I' for Inactive)
REMARK    1  A    between atoms: C_2  and  C_3
REMARK    2  A    between atoms: C_13  and  C_14
REMARK    3  A    between atoms: C_14  and  C_15
REMARK    4  A    between atoms: C_14  and  C_16
REMARK                            x       y       z     vdW  Elec       q    Type
REMARK                         _______ _______ _______ _____ _____    ______ ____
ROOT
ATOM      1  C   UNL     1       6.276   4.511  16.667  0.00  0.00    +0.000 A 
ATOM      2  C   UNL     1       7.483   5.005  17.187  0.00  0.00    +0.000 A 
ATOM      3  C   UNL     1       7.567   5.435  18.509  0.00  0.00    +0.000 A 
ATOM      4  C   UNL     1       6.434   5.407  19.320  0.00  0.00    +0.000 A 
ATOM      5  C   UNL     1       5.214   4.930  18.821  0.00  0.00    +0.000 A 
ATOM      6  C   UNL     1       5.143   4.449  17.503  0.00  0.00    +0.000 A 
ATOM      7  C   UNL     1       3.855   3.858  17.067  0.00  0.00    +0.000 C 
ATOM      8  O   UNL     1       3.764   3.111  16.101  0.00  0.00    +0.000 OA
ATOM      9  C   UNL     1       2.613   4.141  17.905  0.00  0.00    +0.000 C 
ATOM     10  O   UNL     1       1.499   3.923  17.444  0.00  0.00    +0.000 OA
ATOM     11  C   UNL     1       2.797   4.664  19.292  0.00  0.00    +0.000 C 
ATOM     12  C   UNL     1       4.037   4.988  19.688  0.00  0.00    +0.000 C 
ENDROOT
BRANCH  11  13
ATOM     13  C   UNL     1       1.546   4.838  20.140  0.00  0.00    +0.000 C 
ATOM     14  C   UNL     1       1.404   3.689  21.139  0.00  0.00    +0.000 C 
ATOM     15  C   UNL     1       1.482   6.184  20.877  0.00  0.00    +0.000 C 
ENDBRANCH  11  13
BRANCH   1  17
ATOM     16  C   UNL     1       6.921   4.863  14.328  0.00  0.00    +0.000 C 
ATOM     17  C   UNL     1       6.272   4.140  15.250  0.00  0.00    +0.000 C 
ENDBRANCH   1  17
TORSDOF 2
ENDMDL
MODEL 5
REMARK VINA RESULT:      -6.7      1.789      5.209
REMARK  Name = 
REMARK  4 active torsions:
REMARK  status: ('A' for Active; 'I' for Inactive)
REMARK    1  A    between atoms: C_2  and  C_3
REMARK    2  A    between atoms: C_13  and  C_14
REMARK    3  A    between atoms: C_14  and  C_15
REMARK    4  A    between atoms: C_14  and  C_16
REMARK                            x       y       z     vdW  Elec       q    Type
REMARK                         _______ _______ _______ _____ _____    ______ ____
ROOT
ATOM      1  C   UNL     1       2.260   2.958  20.014  0.00  0.00    +0.000 A 
ATOM      2  C   UNL     1       0.903   2.934  19.657  0.00  0.00    +0.000 A 
ATOM      3  C   UNL     1       0.491   3.341  18.391  0.00  0.00    +0.000 A 
ATOM      4  C   UNL     1       1.431   3.810  17.475  0.00  0.00    +0.000 A 
ATOM      5  C   UNL     1       2.791   3.857  17.811  0.00  0.00    +0.000 A 
ATOM      6  C   UNL     1       3.210   3.398  19.071  0.00  0.00    +0.000 A 
ATOM      7  C   UNL     1       4.670   3.370  19.329  0.00  0.00    +0.000 C 
ATOM      8  O   UNL     1       5.172   2.690  20.215  0.00  0.00    +0.000 OA
ATOM      9  C   UNL     1       5.580   4.168  18.402  0.00  0.00    +0.000 C 
ATOM     10  O   UNL     1       6.735   4.408  18.734  0.00  0.00    +0.000 OA
ATOM     11  C   UNL     1       5.033   4.622  17.088  0.00  0.00    +0.000 C 
ATOM     12  C   UNL     1       3.728   4.424  16.842  0.00  0.00    +0.000 C 
ENDROOT
BRANCH  11  13
ATOM     13  C   UNL     1       5.993   5.325  16.142  0.00  0.00    +0.000 C 
ATOM     14  C   UNL     1       6.552   4.344  15.109  0.00  0.00    +0.000 C 
ATOM     15  C   UNL     1       5.381   6.541  15.431  0.00  0.00    +0.000 C 
ENDBRANCH  11  13
BRANCH   1  17
ATOM     16  C   UNL     1       1.646   2.462  22.335  0.00  0.00    +0.000 C 
ATOM     17  C   UNL     1       2.587   2.568  21.388  0.00  0.00    +0.000 C 
ENDBRANCH   1  17
TORSDOF 2
ENDMDL
MODEL 6
REMARK VINA RESULT:      -6.6      2.216      5.225
REMARK  Name = 
REMARK  4 active torsions:
REMARK  status: ('A' for Active; 'I' for Inactive)
REMARK    1  A    between atoms: C_2  and  C_3
REMARK    2  A    between atoms: C_13  and  C_14
REMARK    3  A    between atoms: C_14  and  C_15
REMARK    4  A    between atoms: C_14  and  C_16
REMARK                            x       y       z     vdW  Elec       q    Type
REMARK                         _______ _______ _______ _____ _____    ______ ____
ROOT
ATOM      1  C   UNL     1       2.306   4.117  19.762  0.00  0.00    +0.000 A 
ATOM      2  C   UNL     1       1.398   3.049  19.692  0.00  0.00    +0.000 A 
ATOM      3  C   UNL     1       1.428   2.156  18.624  0.00  0.00    +0.000 A 
ATOM      4  C   UNL     1       2.346   2.340  17.593  0.00  0.00    +0.000 A 
ATOM      5  C   UNL     1       3.256   3.406  17.632  0.00  0.00    +0.000 A 
ATOM      6  C   UNL     1       3.259   4.276  18.735  0.00  0.00    +0.000 A 
ATOM      7  C   UNL     1       4.313   5.318  18.773  0.00  0.00    +0.000 C 
ATOM      8  O   UNL     1       4.637   5.894  19.803  0.00  0.00    +0.000 OA
ATOM      9  C   UNL     1       5.066   5.626  17.483  0.00  0.00    +0.000 C 
ATOM     10  O   UNL     1       5.729   6.652  17.390  0.00  0.00    +0.000 OA
ATOM     11  C   UNL     1       4.988   4.641  16.363  0.00  0.00    +0.000 C 
ATOM     12  C   UNL     1       4.152   3.599  16.492  0.00  0.00    +0.000 C 
ENDROOT
BRANCH  11  13
ATOM     13  C   UNL     1       5.832   4.923  15.130  0.00  0.00    +0.000 C 
ATOM     14  C   UNL     1       7.318   4.720  15.431  0.00  0.00    +0.000 C 
ATOM     15  C   UNL     1       5.429   4.093  13.902  0.00  0.00    +0.000 C 
ENDBRANCH  11  13
BRANCH   1  17
ATOM     16  C   UNL     1       1.388   6.130  20.818  0.00  0.00    +0.000 C 
ATOM     17  C   UNL     1       2.157   5.036  20.893  0.00  0.00    +0.000 C 
ENDBRANCH   1  17
TORSDOF 2
ENDMDL
MODEL 7
REMARK VINA RESULT:      -6.5      2.858      4.974
REMARK  Name = 
REMARK  4 active torsions:
REMARK  status: ('A' for Active; 'I' for Inactive)
REMARK    1  A    between atoms: C_2  and  C_3
REMARK    2  A    between atoms: C_13  and  C_14
REMARK    3  A    between atoms: C_14  and  C_15
REMARK    4  A    between atoms: C_14  and  C_16
REMARK                            x       y       z     vdW  Elec       q    Type
REMARK                         _______ _______ _______ _____ _____    ______ ____
ROOT
ATOM      1  C   UNL     1       1.097   8.713  20.311  0.00  0.00    +0.000 A 
ATOM      2  C   UNL     1       0.745   9.956  19.763  0.00  0.00    +0.000 A 
ATOM      3  C   UNL     1       1.184  10.325  18.494  0.00  0.00    +0.000 A 
ATOM      4  C   UNL     1       2.009   9.468  17.769  0.00  0.00    +0.000 A 
ATOM      5  C   UNL     1       2.386   8.226  18.300  0.00  0.00    +0.000 A 
ATOM      6  C   UNL     1       1.901   7.833  19.558  0.00  0.00    +0.000 A 
ATOM      7  C   UNL     1       2.244   6.466  20.019  0.00  0.00    +0.000 C 
ATOM      8  O   UNL     1       1.620   5.889  20.900  0.00  0.00    +0.000 OA
ATOM      9  C   UNL     1       3.376   5.731  19.310  0.00  0.00    +0.000 C 
ATOM     10  O   UNL     1       3.881   4.740  19.824  0.00  0.00    +0.000 OA
ATOM     11  C   UNL     1       3.828   6.238  17.979  0.00  0.00    +0.000 C 
ATOM     12  C   UNL     1       3.311   7.393  17.532  0.00  0.00    +0.000 C 
ENDROOT
BRANCH  11  13
ATOM     13  C   UNL     1       4.885   5.425  17.249  0.00  0.00    +0.000 C 
ATOM     14  C   UNL     1       4.277   4.157  16.649  0.00  0.00    +0.000 C 
ATOM     15  C   UNL     1       5.629   6.214  16.161  0.00  0.00    +0.000 C 
ENDBRANCH  11  13
BRANCH   1  17
ATOM     16  C   UNL     1       0.711   9.362  22.643  0.00  0.00    +0.000 C 
ATOM     17  C   UNL     1       0.637   8.440  21.675  0.00  0.00    +0.000 C 
ENDBRANCH   1  17
TORSDOF 2
ENDMDL
MODEL 8
REMARK VINA RESULT:      -6.5      1.914      4.894
REMARK  Name = 
REMARK  4 active torsions:
REMARK  status: ('A' for Active; 'I' for Inactive)
REMARK    1  A    between atoms: C_2  and  C_3
REMARK    2  A    between atoms: C_13  and  C_14
REMARK    3  A    between atoms: C_14  and  C_15
REMARK    4  A    between atoms: C_14  and  C_16
REMARK                            x       y       z     vdW  Elec       q    Type
REMARK                         _______ _______ _______ _____ _____    ______ ____
ROOT
ATOM      1  C   UNL     1       1.675   4.753  20.054  0.00  0.00    +0.000 A 
ATOM      2  C   UNL     1       1.277   5.911  20.742  0.00  0.00    +0.000 A 
ATOM      3  C   UNL     1       1.743   7.165  20.356  0.00  0.00    +0.000 A 
ATOM      4  C   UNL     1       2.640   7.274  19.295  0.00  0.00    +0.000 A 
ATOM      5  C   UNL     1       3.063   6.132  18.601  0.00  0.00    +0.000 A 
ATOM      6  C   UNL     1       2.553   4.873  18.958  0.00  0.00    +0.000 A 
ATOM      7  C   UNL     1       2.952   3.718  18.119  0.00  0.00    +0.000 C 
ATOM      8  O   UNL     1       2.328   2.665  18.104  0.00  0.00    +0.000 OA
ATOM      9  C   UNL     1       4.149   3.884  17.188  0.00  0.00    +0.000 C 
ATOM     10  O   UNL     1       4.687   2.898  16.699  0.00  0.00    +0.000 OA
ATOM     11  C   UNL     1       4.622   5.267  16.881  0.00  0.00    +0.000 C 
ATOM     12  C   UNL     1       4.061   6.291  17.542  0.00  0.00    +0.000 C 
ENDROOT
BRANCH  11  13
ATOM     13  C   UNL     1       5.749   5.406  15.869  0.00  0.00    +0.000 C 
ATOM     14  C   UNL     1       7.084   4.980  16.482  0.00  0.00    +0.000 C 
ATOM     15  C   UNL     1       5.503   4.637  14.562  0.00  0.00    +0.000 C 
ENDBRANCH  11  13
BRANCH   1  17
ATOM     16  C   UNL     1       1.749   2.871  21.623  0.00  0.00    +0.000 C 
ATOM     17  C   UNL     1       1.179   3.476  20.573  0.00  0.00    +0.000 C 
ENDBRANCH   1  17
TORSDOF 2
ENDMDL
MODEL 9
REMARK VINA RESULT:      -6.5      2.424      4.545
REMARK  Name = 
REMARK  4 active torsions:
REMARK  status: ('A' for Active; 'I' for Inactive)
REMARK    1  A    between atoms: C_2  and  C_3
REMARK    2  A    between atoms: C_13  and  C_14
REMARK    3  A    between atoms: C_14  and  C_15
REMARK    4  A    between atoms: C_14  and  C_16
REMARK                            x       y       z     vdW  Elec       q    Type
REMARK                         _______ _______ _______ _____ _____    ______ ____
ROOT
ATOM      1  C   UNL     1       1.598   8.044  20.007  0.00  0.00    +0.000 A 
ATOM      2  C   UNL     1       1.337   9.259  19.354  0.00  0.00    +0.000 A 
ATOM      3  C   UNL     1       1.846   9.507  18.082  0.00  0.00    +0.000 A 
ATOM      4  C   UNL     1       2.651   8.555  17.459  0.00  0.00    +0.000 A 
ATOM      5  C   UNL     1       2.937   7.340  18.096  0.00  0.00    +0.000 A 
ATOM      6  C   UNL     1       2.382   7.069  19.358  0.00  0.00    +0.000 A 
ATOM      7  C   UNL     1       2.630   5.725  19.933  0.00  0.00    +0.000 C 
ATOM      8  O   UNL     1       1.941   5.251  20.827  0.00  0.00    +0.000 OA
ATOM      9  C   UNL     1       3.748   4.881  19.331  0.00  0.00    +0.000 C 
ATOM     10  O   UNL     1       4.177   3.907  19.938  0.00  0.00    +0.000 OA
ATOM     11  C   UNL     1       4.279   5.261  17.987  0.00  0.00    +0.000 C 
ATOM     12  C   UNL     1       3.845   6.404  17.433  0.00  0.00    +0.000 C 
ENDROOT
BRANCH  11  13
ATOM     13  C   UNL     1       5.319   4.341  17.366  0.00  0.00    +0.000 C 
ATOM     14  C   UNL     1       5.144   4.270  15.849  0.00  0.00    +0.000 C 
ATOM     15  C   UNL     1       6.766   4.724  17.709  0.00  0.00    +0.000 C 
ENDBRANCH  11  13
BRANCH   1  17
ATOM     16  C   UNL     1       0.705   8.961  22.098  0.00  0.00    +0.000 C 
ATOM     17  C   UNL     1       1.070   7.901  21.366  0.00  0.00    +0.000 C 
ENDBRANCH   1  17
TORSDOF 2
ENDMDL
