MODEL 1
REMARK VINA RESULT:      -7.7      0.000      0.000
REMARK  Name = 
REMARK  8 active torsions:
REMARK  status: ('A' for Active; 'I' for Inactive)
REMARK    1  A    between atoms: C_1  and  O_2
REMARK    2  A    between atoms: O_2  and  C_3
REMARK    3  A    between atoms: C_5  and  N_6
REMARK    4  A    between atoms: C_10  and  C_11
REMARK    5  A    between atoms: N_13  and  C_14
REMARK    6  A    between atoms: C_14  and  C_15
REMARK    7  A    between atoms: N_17  and  C_18
REMARK    8  A    between atoms: C_18  and  C_19
REMARK                            x       y       z     vdW  Elec       q    Type
REMARK                         _______ _______ _______ _____ _____    ______ ____
ROOT
ATOM      1  C   UNL     1       2.178   6.051  20.140  0.00  0.00    +0.000 C 
ATOM      2  O   UNL     1       1.753   5.296  21.007  0.00  0.00    +0.000 OA
ATOM      3  N   UNL     1       1.994   7.410  20.191  0.00  0.00    +0.000 N 
ATOM      4  H   UNL     1       2.300   7.956  19.388  0.00  0.00    +0.000 HD
ENDROOT
BRANCH   1  11
ATOM      5  C   UNL     1       2.474   4.485  18.104  0.00  0.00    +0.000 A 
ATOM      6  C   UNL     1       3.275   4.084  17.020  0.00  0.00    +0.000 A 
ATOM      7  C   UNL     1       4.544   4.634  16.799  0.00  0.00    +0.000 A 
ATOM      8  C   UNL     1       4.972   5.674  17.638  0.00  0.00    +0.000 A 
ATOM      9 CL   UNL     1       6.493   6.450  17.369  0.00  0.00    +0.000 Cl
ATOM     10  C   UNL     1       4.193   6.089  18.717  0.00  0.00    +0.000 A 
ATOM     11  C   UNL     1       2.937   5.502  18.962  0.00  0.00    +0.000 A 
BRANCH   7  12
ATOM     12  N   UNL     1       5.234   4.297  15.620  0.00  0.00    +0.000 N 
ATOM     13  H   UNL     1       6.237   4.442  15.653  0.00  0.00    +0.000 HD
ATOM     14  H   UNL     1       4.804   4.695  14.785  0.00  0.00    +0.000 HD
ENDBRANCH   7  12
BRANCH   5  16
ATOM     15  C   UNL     1       1.142   2.614  18.757  0.00  0.00    +0.000 C 
ATOM     16  O   UNL     1       1.219   3.970  18.322  0.00  0.00    +0.000 OA
ENDBRANCH   5  16
ENDBRANCH   1  11
BRANCH   3  17
ATOM     17  C   UNL     1       1.342   8.083  21.301  0.00  0.00    +0.000 C 
BRANCH  17  18
ATOM     18  C   UNL     1       0.675   9.393  20.857  0.00  0.00    +0.000 C 
ATOM     19  C   UNL     1       0.697   9.551  19.316  0.00  0.00    +0.000 C 
ATOM     20  N   UNL     1       0.016  10.789  18.855  0.00  0.00    +0.000 NA
ATOM     21  C   UNL     1       0.664  11.921  19.553  0.00  0.00    +0.000 C 
ATOM     22  C   UNL     1       0.729  11.756  21.082  0.00  0.00    +0.000 C 
ATOM     23  O   UNL     1       1.336  10.513  21.473  0.00  0.00    +0.000 OA
BRANCH  20  24
ATOM     24  C   UNL     1      -1.436  10.713  19.106  0.00  0.00    +0.000 C 
BRANCH  24  25
ATOM     25  C   UNL     1      -2.282  10.691  17.854  0.00  0.00    +0.000 A 
ATOM     26  C   UNL     1      -1.929   9.888  16.763  0.00  0.00    +0.000 A 
ATOM     27  C   UNL     1      -2.726   9.862  15.614  0.00  0.00    +0.000 A 
ATOM     28  C   UNL     1      -3.882  10.639  15.550  0.00  0.00    +0.000 A 
ATOM     29  C   UNL     1      -4.244  11.447  16.626  0.00  0.00    +0.000 A 
ATOM     30  C   UNL     1      -3.447  11.476  17.772  0.00  0.00    +0.000 A 
ENDBRANCH  24  25
ENDBRANCH  20  24
ENDBRANCH  17  18
ENDBRANCH   3  17
TORSDOF 7
ENDMDL
MODEL 2
REMARK VINA RESULT:      -7.5      3.572      7.726
REMARK  Name = 
REMARK  8 active torsions:
REMARK  status: ('A' for Active; 'I' for Inactive)
REMARK    1  A    between atoms: C_1  and  O_2
REMARK    2  A    between atoms: O_2  and  C_3
REMARK    3  A    between atoms: C_5  and  N_6
REMARK    4  A    between atoms: C_10  and  C_11
REMARK    5  A    between atoms: N_13  and  C_14
REMARK    6  A    between atoms: C_14  and  C_15
REMARK    7  A    between atoms: N_17  and  C_18
REMARK    8  A    between atoms: C_18  and  C_19
REMARK                            x       y       z     vdW  Elec       q    Type
REMARK                         _______ _______ _______ _____ _____    ______ ____
ROOT
ATOM      1  C   UNL     1       2.283   8.828  18.165  0.00  0.00    +0.000 C 
ATOM      2  O   UNL     1       2.070   9.686  17.318  0.00  0.00    +0.000 OA
ATOM      3  N   UNL     1       3.219   7.839  17.994  0.00  0.00    +0.000 N 
ATOM      4  H   UNL     1       3.272   7.114  18.706  0.00  0.00    +0.000 HD
ENDROOT
BRANCH   1  11
ATOM      5  C   UNL     1       1.472   7.764  20.378  0.00  0.00    +0.000 A 
ATOM      6  C   UNL     1       0.731   7.907  21.564  0.00  0.00    +0.000 A 
ATOM      7  C   UNL     1      -0.012   9.064  21.833  0.00  0.00    +0.000 A 
ATOM      8  C   UNL     1       0.071  10.131  20.926  0.00  0.00    +0.000 A 
ATOM      9 CL   UNL     1      -0.756  11.617  21.239  0.00  0.00    +0.000 Cl
ATOM     10  C   UNL     1       0.802  10.011  19.745  0.00  0.00    +0.000 A 
ATOM     11  C   UNL     1       1.511   8.829  19.457  0.00  0.00    +0.000 A 
BRANCH   7  12
ATOM     12  N   UNL     1      -0.613   9.206  23.097  0.00  0.00    +0.000 N 
ATOM     13  H   UNL     1      -1.603   8.991  23.128  0.00  0.00    +0.000 HD
ATOM     14  H   UNL     1      -0.387  10.095  23.542  0.00  0.00    +0.000 HD
ENDBRANCH   7  12
BRANCH   5  16
ATOM     15  C   UNL     1       1.964   5.486  20.901  0.00  0.00    +0.000 C 
ATOM     16  O   UNL     1       2.222   6.644  20.109  0.00  0.00    +0.000 OA
ENDBRANCH   5  16
ENDBRANCH   1  11
BRANCH   3  17
ATOM     17  C   UNL     1       4.083   7.754  16.829  0.00  0.00    +0.000 C 
BRANCH  17  18
ATOM     18  C   UNL     1       4.840   6.420  16.779  0.00  0.00    +0.000 C 
ATOM     19  C   UNL     1       4.882   5.735  18.168  0.00  0.00    +0.000 C 
ATOM     20  N   UNL     1       5.568   4.418  18.141  0.00  0.00    +0.000 NA
ATOM     21  C   UNL     1       6.917   4.648  17.578  0.00  0.00    +0.000 C 
ATOM     22  C   UNL     1       6.912   5.398  16.234  0.00  0.00    +0.000 C 
ATOM     23  O   UNL     1       6.179   6.632  16.298  0.00  0.00    +0.000 OA
BRANCH  20  24
ATOM     24  C   UNL     1       4.783   3.434  17.370  0.00  0.00    +0.000 C 
BRANCH  24  25
ATOM     25  C   UNL     1       3.412   3.151  17.939  0.00  0.00    +0.000 A 
ATOM     26  C   UNL     1       2.287   3.844  17.477  0.00  0.00    +0.000 A 
ATOM     27  C   UNL     1       1.020   3.566  17.997  0.00  0.00    +0.000 A 
ATOM     28  C   UNL     1       0.869   2.591  18.983  0.00  0.00    +0.000 A 
ATOM     29  C   UNL     1       1.981   1.896  19.455  0.00  0.00    +0.000 A 
ATOM     30  C   UNL     1       3.247   2.176  18.939  0.00  0.00    +0.000 A 
ENDBRANCH  24  25
ENDBRANCH  20  24
ENDBRANCH  17  18
ENDBRANCH   3  17
TORSDOF 7
ENDMDL
MODEL 3
REMARK VINA RESULT:      -7.4      2.124      3.714
REMARK  Name = 
REMARK  8 active torsions:
REMARK  status: ('A' for Active; 'I' for Inactive)
REMARK    1  A    between atoms: C_1  and  O_2
REMARK    2  A    between atoms: O_2  and  C_3
REMARK    3  A    between atoms: C_5  and  N_6
REMARK    4  A    between atoms: C_10  and  C_11
REMARK    5  A    between atoms: N_13  and  C_14
REMARK    6  A    between atoms: C_14  and  C_15
REMARK    7  A    between atoms: N_17  and  C_18
REMARK    8  A    between atoms: C_18  and  C_19
REMARK                            x       y       z     vdW  Elec       q    Type
REMARK                         _______ _______ _______ _____ _____    ______ ____
ROOT
ATOM      1  C   UNL     1       2.534   5.499  20.241  0.00  0.00    +0.000 C 
ATOM      2  O   UNL     1       2.169   4.787  21.169  0.00  0.00    +0.000 OA
ATOM      3  N   UNL     1       2.215   6.832  20.165  0.00  0.00    +0.000 N 
ATOM      4  H   UNL     1       2.481   7.331  19.319  0.00  0.00    +0.000 HD
ENDROOT
BRANCH   1  11
ATOM      5  C   UNL     1       2.880   4.111  18.087  0.00  0.00    +0.000 A 
ATOM      6  C   UNL     1       3.766   3.664  17.091  0.00  0.00    +0.000 A 
ATOM      7  C   UNL     1       5.133   3.966  17.132  0.00  0.00    +0.000 A 
ATOM      8  C   UNL     1       5.595   4.812  18.151  0.00  0.00    +0.000 A 
ATOM      9 CL   UNL     1       7.256   5.288  18.211  0.00  0.00    +0.000 Cl
ATOM     10  C   UNL     1       4.734   5.268  19.147  0.00  0.00    +0.000 A 
ATOM     11  C   UNL     1       3.369   4.926  19.127  0.00  0.00    +0.000 A 
BRANCH   7  12
ATOM     12  N   UNL     1       5.939   3.613  16.034  0.00  0.00    +0.000 N 
ATOM     13  H   UNL     1       6.935   3.592  16.222  0.00  0.00    +0.000 HD
ATOM     14  H   UNL     1       5.707   4.137  15.191  0.00  0.00    +0.000 HD
ENDBRANCH   7  12
BRANCH   5  16
ATOM     15  C   UNL     1       1.110   2.583  18.571  0.00  0.00    +0.000 C 
ATOM     16  O   UNL     1       1.533   3.841  18.050  0.00  0.00    +0.000 OA
ENDBRANCH   5  16
ENDBRANCH   1  11
BRANCH   3  17
ATOM     17  C   UNL     1       1.476   7.533  21.200  0.00  0.00    +0.000 C 
BRANCH  17  18
ATOM     18  C   UNL     1       1.112   8.961  20.770  0.00  0.00    +0.000 C 
ATOM     19  C   UNL     1      -0.374   9.285  21.065  0.00  0.00    +0.000 C 
ATOM     20  N   UNL     1      -0.742  10.678  20.701  0.00  0.00    +0.000 NA
ATOM     21  C   UNL     1      -0.393  10.856  19.274  0.00  0.00    +0.000 C 
ATOM     22  C   UNL     1       1.056  10.466  18.934  0.00  0.00    +0.000 C 
ATOM     23  O   UNL     1       1.381   9.134  19.367  0.00  0.00    +0.000 OA
BRANCH  20  24
ATOM     24  C   UNL     1      -0.066  11.647  21.585  0.00  0.00    +0.000 C 
BRANCH  24  25
ATOM     25  C   UNL     1      -1.003  12.468  22.439  0.00  0.00    +0.000 A 
ATOM     26  C   UNL     1      -0.697  13.793  22.771  0.00  0.00    +0.000 A 
ATOM     27  C   UNL     1      -1.576  14.551  23.550  0.00  0.00    +0.000 A 
ATOM     28  C   UNL     1      -2.770  13.989  24.000  0.00  0.00    +0.000 A 
ATOM     29  C   UNL     1      -3.087  12.669  23.682  0.00  0.00    +0.000 A 
ATOM     30  C   UNL     1      -2.207  11.911  22.908  0.00  0.00    +0.000 A 
ENDBRANCH  24  25
ENDBRANCH  20  24
ENDBRANCH  17  18
ENDBRANCH   3  17
TORSDOF 7
ENDMDL
MODEL 4
REMARK VINA RESULT:      -7.4      2.766      8.430
REMARK  Name = 
REMARK  8 active torsions:
REMARK  status: ('A' for Active; 'I' for Inactive)
REMARK    1  A    between atoms: C_1  and  O_2
REMARK    2  A    between atoms: O_2  and  C_3
REMARK    3  A    between atoms: C_5  and  N_6
REMARK    4  A    between atoms: C_10  and  C_11
REMARK    5  A    between atoms: N_13  and  C_14
REMARK    6  A    between atoms: C_14  and  C_15
REMARK    7  A    between atoms: N_17  and  C_18
REMARK    8  A    between atoms: C_18  and  C_19
REMARK                            x       y       z     vdW  Elec       q    Type
REMARK                         _______ _______ _______ _____ _____    ______ ____
ROOT
ATOM      1  C   UNL     1       1.289   9.366  18.388  0.00  0.00    +0.000 C 
ATOM      2  O   UNL     1       2.027   9.631  17.447  0.00  0.00    +0.000 OA
ATOM      3  N   UNL     1       1.609   8.424  19.334  0.00  0.00    +0.000 N 
ATOM      4  H   UNL     1       0.903   8.201  20.032  0.00  0.00    +0.000 HD
ENDROOT
BRANCH   1  11
ATOM      5  C   UNL     1      -0.346  10.957  19.605  0.00  0.00    +0.000 A 
ATOM      6  C   UNL     1      -1.604  11.585  19.619  0.00  0.00    +0.000 A 
ATOM      7  C   UNL     1      -2.567  11.326  18.635  0.00  0.00    +0.000 A 
ATOM      8  C   UNL     1      -2.216  10.485  17.568  0.00  0.00    +0.000 A 
ATOM      9 CL   UNL     1      -3.330  10.189  16.279  0.00  0.00    +0.000 Cl
ATOM     10  C   UNL     1      -0.974   9.855  17.534  0.00  0.00    +0.000 A 
ATOM     11  C   UNL     1      -0.025  10.083  18.548  0.00  0.00    +0.000 A 
BRANCH   7  12
ATOM     12  N   UNL     1      -3.748  12.092  18.622  0.00  0.00    +0.000 N 
ATOM     13  H   UNL     1      -3.612  13.091  18.729  0.00  0.00    +0.000 HD
ATOM     14  H   UNL     1      -4.464  11.721  19.246  0.00  0.00    +0.000 HD
ENDBRANCH   7  12
BRANCH   5  16
ATOM     15  C   UNL     1       1.037  12.571  20.693  0.00  0.00    +0.000 C 
ATOM     16  O   UNL     1       0.616  11.216  20.551  0.00  0.00    +0.000 OA
ENDBRANCH   5  16
ENDBRANCH   1  11
BRANCH   3  17
ATOM     17  C   UNL     1       2.871   7.705  19.344  0.00  0.00    +0.000 C 
BRANCH  17  18
ATOM     18  C   UNL     1       2.661   6.193  19.505  0.00  0.00    +0.000 C 
ATOM     19  C   UNL     1       2.422   5.502  18.139  0.00  0.00    +0.000 C 
ATOM     20  N   UNL     1       2.262   4.029  18.259  0.00  0.00    +0.000 NA
ATOM     21  C   UNL     1       1.160   3.793  19.218  0.00  0.00    +0.000 C 
ATOM     22  C   UNL     1       1.331   4.532  20.557  0.00  0.00    +0.000 C 
ATOM     23  O   UNL     1       1.549   5.942  20.382  0.00  0.00    +0.000 OA
BRANCH  20  24
ATOM     24  C   UNL     1       3.529   3.397  18.672  0.00  0.00    +0.000 C 
BRANCH  24  25
ATOM     25  C   UNL     1       4.728   3.813  17.851  0.00  0.00    +0.000 A 
ATOM     26  C   UNL     1       4.752   3.614  16.465  0.00  0.00    +0.000 A 
ATOM     27  C   UNL     1       5.858   4.016  15.710  0.00  0.00    +0.000 A 
ATOM     28  C   UNL     1       6.947   4.621  16.336  0.00  0.00    +0.000 A 
ATOM     29  C   UNL     1       6.939   4.821  17.716  0.00  0.00    +0.000 A 
ATOM     30  C   UNL     1       5.836   4.417  18.470  0.00  0.00    +0.000 A 
ENDBRANCH  24  25
ENDBRANCH  20  24
ENDBRANCH  17  18
ENDBRANCH   3  17
TORSDOF 7
ENDMDL
MODEL 5
REMARK VINA RESULT:      -7.4      2.703      8.340
REMARK  Name = 
REMARK  8 active torsions:
REMARK  status: ('A' for Active; 'I' for Inactive)
REMARK    1  A    between atoms: C_1  and  O_2
REMARK    2  A    between atoms: O_2  and  C_3
REMARK    3  A    between atoms: C_5  and  N_6
REMARK    4  A    between atoms: C_10  and  C_11
REMARK    5  A    between atoms: N_13  and  C_14
REMARK    6  A    between atoms: C_14  and  C_15
REMARK    7  A    between atoms: N_17  and  C_18
REMARK    8  A    between atoms: C_18  and  C_19
REMARK                            x       y       z     vdW  Elec       q    Type
REMARK                         _______ _______ _______ _____ _____    ______ ____
ROOT
ATOM      1  C   UNL     1       1.254   9.382  18.625  0.00  0.00    +0.000 C 
ATOM      2  O   UNL     1       2.155   9.727  17.870  0.00  0.00    +0.000 OA
ATOM      3  N   UNL     1       1.417   8.396  19.565  0.00  0.00    +0.000 N 
ATOM      4  H   UNL     1       0.594   8.107  20.091  0.00  0.00    +0.000 HD
ENDROOT
BRANCH   1  11
ATOM      5  C   UNL     1      -0.603  10.956  19.496  0.00  0.00    +0.000 A 
ATOM      6  C   UNL     1      -1.873  11.525  19.289  0.00  0.00    +0.000 A 
ATOM      7  C   UNL     1      -2.668  11.172  18.192  0.00  0.00    +0.000 A 
ATOM      8  C   UNL     1      -2.131  10.294  17.238  0.00  0.00    +0.000 A 
ATOM      9 CL   UNL     1      -3.029   9.881  15.820  0.00  0.00    +0.000 Cl
ATOM     10  C   UNL     1      -0.874   9.721  17.422  0.00  0.00    +0.000 A 
ATOM     11  C   UNL     1      -0.096  10.045  18.550  0.00  0.00    +0.000 A 
BRANCH   7  12
ATOM     12  N   UNL     1      -3.862  11.880  17.963  0.00  0.00    +0.000 N 
ATOM     13  H   UNL     1      -4.535  11.406  17.370  0.00  0.00    +0.000 HD
ATOM     14  H   UNL     1      -3.699  12.846  17.681  0.00  0.00    +0.000 HD
ENDBRANCH   7  12
BRANCH   5  16
ATOM     15  C   UNL     1      -0.171  10.808  21.840  0.00  0.00    +0.000 C 
ATOM     16  O   UNL     1       0.197  11.308  20.556  0.00  0.00    +0.000 OA
ENDBRANCH   5  16
ENDBRANCH   1  11
BRANCH   3  17
ATOM     17  C   UNL     1       2.681   7.719  19.797  0.00  0.00    +0.000 C 
BRANCH  17  18
ATOM     18  C   UNL     1       2.536   6.194  19.691  0.00  0.00    +0.000 C 
ATOM     19  C   UNL     1       2.448   5.730  18.215  0.00  0.00    +0.000 C 
ATOM     20  N   UNL     1       2.355   4.253  18.081  0.00  0.00    +0.000 NA
ATOM     21  C   UNL     1       1.189   3.822  18.884  0.00  0.00    +0.000 C 
ATOM     22  C   UNL     1       1.209   4.334  20.335  0.00  0.00    +0.000 C 
ATOM     23  O   UNL     1       1.368   5.760  20.410  0.00  0.00    +0.000 OA
BRANCH  20  24
ATOM     24  C   UNL     1       3.614   3.608  18.500  0.00  0.00    +0.000 C 
BRANCH  24  25
ATOM     25  C   UNL     1       4.815   3.991  17.667  0.00  0.00    +0.000 A 
ATOM     26  C   UNL     1       5.974   4.495  18.269  0.00  0.00    +0.000 A 
ATOM     27  C   UNL     1       7.087   4.833  17.494  0.00  0.00    +0.000 A 
ATOM     28  C   UNL     1       7.049   4.668  16.110  0.00  0.00    +0.000 A 
ATOM     29  C   UNL     1       5.900   4.172  15.496  0.00  0.00    +0.000 A 
ATOM     30  C   UNL     1       4.787   3.838  16.269  0.00  0.00    +0.000 A 
ENDBRANCH  24  25
ENDBRANCH  20  24
ENDBRANCH  17  18
ENDBRANCH   3  17
TORSDOF 7
ENDMDL
MODEL 6
REMARK VINA RESULT:      -7.4      3.454      8.523
REMARK  Name = 
REMARK  8 active torsions:
REMARK  status: ('A' for Active; 'I' for Inactive)
REMARK    1  A    between atoms: C_1  and  O_2
REMARK    2  A    between atoms: O_2  and  C_3
REMARK    3  A    between atoms: C_5  and  N_6
REMARK    4  A    between atoms: C_10  and  C_11
REMARK    5  A    between atoms: N_13  and  C_14
REMARK    6  A    between atoms: C_14  and  C_15
REMARK    7  A    between atoms: N_17  and  C_18
REMARK    8  A    between atoms: C_18  and  C_19
REMARK                            x       y       z     vdW  Elec       q    Type
REMARK                         _______ _______ _______ _____ _____    ______ ____
ROOT
ATOM      1  C   UNL     1       1.981   6.507  20.272  0.00  0.00    +0.000 C 
ATOM      2  O   UNL     1       1.284   5.514  20.446  0.00  0.00    +0.000 OA
ATOM      3  N   UNL     1       3.318   6.426  19.978  0.00  0.00    +0.000 N 
ATOM      4  H   UNL     1       3.844   7.296  19.937  0.00  0.00    +0.000 HD
ENDROOT
BRANCH   1  11
ATOM      5  C   UNL     1       1.261   8.795  19.308  0.00  0.00    +0.000 A 
ATOM      6  C   UNL     1       0.652  10.043  19.536  0.00  0.00    +0.000 A 
ATOM      7  C   UNL     1       0.206  10.423  20.807  0.00  0.00    +0.000 A 
ATOM      8  C   UNL     1       0.295   9.487  21.849  0.00  0.00    +0.000 A 
ATOM      9 CL   UNL     1      -0.312   9.865  23.424  0.00  0.00    +0.000 Cl
ATOM     10  C   UNL     1       0.893   8.245  21.645  0.00  0.00    +0.000 A 
ATOM     11  C   UNL     1       1.380   7.883  20.375  0.00  0.00    +0.000 A 
BRANCH   7  12
ATOM     12  N   UNL     1      -0.522  11.619  20.942  0.00  0.00    +0.000 N 
ATOM     13  H   UNL     1      -0.990  11.739  21.833  0.00  0.00    +0.000 HD
ATOM     14  H   UNL     1      -1.135  11.799  20.147  0.00  0.00    +0.000 HD
ENDBRANCH   7  12
BRANCH   5  16
ATOM     15  C   UNL     1       3.000   8.789  17.672  0.00  0.00    +0.000 C 
ATOM     16  O   UNL     1       1.685   8.399  18.062  0.00  0.00    +0.000 OA
ENDBRANCH   5  16
ENDBRANCH   1  11
BRANCH   3  17
ATOM     17  C   UNL     1       4.015   5.166  19.781  0.00  0.00    +0.000 C 
BRANCH  17  18
ATOM     18  C   UNL     1       5.165   5.304  18.774  0.00  0.00    +0.000 C 
ATOM     19  C   UNL     1       5.333   4.023  17.919  0.00  0.00    +0.000 C 
ATOM     20  N   UNL     1       6.410   4.146  16.903  0.00  0.00    +0.000 NA
ATOM     21  C   UNL     1       7.646   4.512  17.629  0.00  0.00    +0.000 C 
ATOM     22  C   UNL     1       7.489   5.735  18.550  0.00  0.00    +0.000 C 
ATOM     23  O   UNL     1       6.392   5.593  19.468  0.00  0.00    +0.000 OA
BRANCH  20  24
ATOM     24  C   UNL     1       6.041   5.127  15.864  0.00  0.00    +0.000 C 
BRANCH  24  25
ATOM     25  C   UNL     1       6.382   4.698  14.456  0.00  0.00    +0.000 A 
ATOM     26  C   UNL     1       5.610   3.738  13.791  0.00  0.00    +0.000 A 
ATOM     27  C   UNL     1       5.922   3.357  12.483  0.00  0.00    +0.000 A 
ATOM     28  C   UNL     1       7.009   3.936  11.829  0.00  0.00    +0.000 A 
ATOM     29  C   UNL     1       7.790   4.890  12.480  0.00  0.00    +0.000 A 
ATOM     30  C   UNL     1       7.481   5.268  13.788  0.00  0.00    +0.000 A 
ENDBRANCH  24  25
ENDBRANCH  20  24
ENDBRANCH  17  18
ENDBRANCH   3  17
TORSDOF 7
ENDMDL
MODEL 7
REMARK VINA RESULT:      -7.4      3.014      4.632
REMARK  Name = 
REMARK  8 active torsions:
REMARK  status: ('A' for Active; 'I' for Inactive)
REMARK    1  A    between atoms: C_1  and  O_2
REMARK    2  A    between atoms: O_2  and  C_3
REMARK    3  A    between atoms: C_5  and  N_6
REMARK    4  A    between atoms: C_10  and  C_11
REMARK    5  A    between atoms: N_13  and  C_14
REMARK    6  A    between atoms: C_14  and  C_15
REMARK    7  A    between atoms: N_17  and  C_18
REMARK    8  A    between atoms: C_18  and  C_19
REMARK                            x       y       z     vdW  Elec       q    Type
REMARK                         _______ _______ _______ _____ _____    ______ ____
ROOT
ATOM      1  C   UNL     1       2.540   8.228  18.103  0.00  0.00    +0.000 C 
ATOM      2  O   UNL     1       2.521   8.824  17.033  0.00  0.00    +0.000 OA
ATOM      3  N   UNL     1       1.752   8.592  19.165  0.00  0.00    +0.000 N 
ATOM      4  H   UNL     1       1.893   8.101  20.045  0.00  0.00    +0.000 HD
ENDROOT
BRANCH   1  11
ATOM      5  C   UNL     1       3.197   5.962  19.162  0.00  0.00    +0.000 A 
ATOM      6  C   UNL     1       4.120   4.902  19.225  0.00  0.00    +0.000 A 
ATOM      7  C   UNL     1       5.308   4.916  18.484  0.00  0.00    +0.000 A 
ATOM      8  C   UNL     1       5.524   5.980  17.595  0.00  0.00    +0.000 A 
ATOM      9 CL   UNL     1       6.932   6.016  16.593  0.00  0.00    +0.000 Cl
ATOM     10  C   UNL     1       4.621   7.039  17.515  0.00  0.00    +0.000 A 
ATOM     11  C   UNL     1       3.449   7.043  18.294  0.00  0.00    +0.000 A 
BRANCH   7  12
ATOM     12  N   UNL     1       6.118   3.766  18.479  0.00  0.00    +0.000 N 
ATOM     13  H   UNL     1       7.057   3.903  18.121  0.00  0.00    +0.000 HD
ATOM     14  H   UNL     1       5.652   2.958  18.066  0.00  0.00    +0.000 HD
ENDBRANCH   7  12
BRANCH   5  16
ATOM     15  C   UNL     1       1.899   5.001  20.921  0.00  0.00    +0.000 C 
ATOM     16  O   UNL     1       2.017   5.954  19.867  0.00  0.00    +0.000 OA
ENDBRANCH   5  16
ENDBRANCH   1  11
BRANCH   3  17
ATOM     17  C   UNL     1       0.780   9.670  19.101  0.00  0.00    +0.000 C 
BRANCH  17  18
ATOM     18  C   UNL     1       0.013   9.822  20.422  0.00  0.00    +0.000 C 
ATOM     19  C   UNL     1       0.553  11.007  21.262  0.00  0.00    +0.000 C 
ATOM     20  N   UNL     1      -0.202  11.207  22.526  0.00  0.00    +0.000 NA
ATOM     21  C   UNL     1      -0.160   9.923  23.260  0.00  0.00    +0.000 C 
ATOM     22  C   UNL     1      -0.616   8.713  22.425  0.00  0.00    +0.000 C 
ATOM     23  O   UNL     1       0.099   8.604  21.183  0.00  0.00    +0.000 OA
BRANCH  20  24
ATOM     24  C   UNL     1      -1.576  11.667  22.249  0.00  0.00    +0.000 C 
BRANCH  24  25
ATOM     25  C   UNL     1      -2.072  12.744  23.186  0.00  0.00    +0.000 A 
ATOM     26  C   UNL     1      -3.353  12.675  23.745  0.00  0.00    +0.000 A 
ATOM     27  C   UNL     1      -3.799  13.667  24.623  0.00  0.00    +0.000 A 
ATOM     28  C   UNL     1      -2.965  14.736  24.948  0.00  0.00    +0.000 A 
ATOM     29  C   UNL     1      -1.688  14.821  24.395  0.00  0.00    +0.000 A 
ATOM     30  C   UNL     1      -1.244  13.832  23.516  0.00  0.00    +0.000 A 
ENDBRANCH  24  25
ENDBRANCH  20  24
ENDBRANCH  17  18
ENDBRANCH   3  17
TORSDOF 7
ENDMDL
MODEL 8
REMARK VINA RESULT:      -7.3      0.668      1.132
REMARK  Name = 
REMARK  8 active torsions:
REMARK  status: ('A' for Active; 'I' for Inactive)
REMARK    1  A    between atoms: C_1  and  O_2
REMARK    2  A    between atoms: O_2  and  C_3
REMARK    3  A    between atoms: C_5  and  N_6
REMARK    4  A    between atoms: C_10  and  C_11
REMARK    5  A    between atoms: N_13  and  C_14
REMARK    6  A    between atoms: C_14  and  C_15
REMARK    7  A    between atoms: N_17  and  C_18
REMARK    8  A    between atoms: C_18  and  C_19
REMARK                            x       y       z     vdW  Elec       q    Type
REMARK                         _______ _______ _______ _____ _____    ______ ____
ROOT
ATOM      1  C   UNL     1       2.510   5.886  20.278  0.00  0.00    +0.000 C 
ATOM      2  O   UNL     1       2.071   5.221  21.209  0.00  0.00    +0.000 OA
ATOM      3  N   UNL     1       2.342   7.245  20.200  0.00  0.00    +0.000 N 
ATOM      4  H   UNL     1       2.659   7.710  19.351  0.00  0.00    +0.000 HD
ENDROOT
BRANCH   1  11
ATOM      5  C   UNL     1       2.701   4.375  18.188  0.00  0.00    +0.000 A 
ATOM      6  C   UNL     1       3.522   3.839  17.180  0.00  0.00    +0.000 A 
ATOM      7  C   UNL     1       4.900   4.082  17.147  0.00  0.00    +0.000 A 
ATOM      8  C   UNL     1       5.443   4.959  18.099  0.00  0.00    +0.000 A 
ATOM      9 CL   UNL     1       7.123   5.365  18.063  0.00  0.00    +0.000 Cl
ATOM     10  C   UNL     1       4.647   5.503  19.105  0.00  0.00    +0.000 A 
ATOM     11  C   UNL     1       3.269   5.220  19.162  0.00  0.00    +0.000 A 
BRANCH   7  12
ATOM     12  N   UNL     1       5.641   3.639  16.036  0.00  0.00    +0.000 N 
ATOM     13  H   UNL     1       5.625   2.637  15.881  0.00  0.00    +0.000 HD
ATOM     14  H   UNL     1       6.583   4.029  16.010  0.00  0.00    +0.000 HD
ENDBRANCH   7  12
BRANCH   5  16
ATOM     15  C   UNL     1       0.902   2.846  18.549  0.00  0.00    +0.000 C 
ATOM     16  O   UNL     1       1.343   4.162  18.223  0.00  0.00    +0.000 OA
ENDBRANCH   5  16
ENDBRANCH   1  11
BRANCH   3  17
ATOM     17  C   UNL     1       1.692   8.027  21.237  0.00  0.00    +0.000 C 
BRANCH  17  18
ATOM     18  C   UNL     1       0.722   9.060  20.645  0.00  0.00    +0.000 C 
ATOM     19  C   UNL     1       0.920   9.218  19.117  0.00  0.00    +0.000 C 
ATOM     20  N   UNL     1      -0.038  10.178  18.509  0.00  0.00    +0.000 NA
ATOM     21  C   UNL     1       0.114  11.457  19.238  0.00  0.00    +0.000 C 
ATOM     22  C   UNL     1       0.002  11.319  20.767  0.00  0.00    +0.000 C 
ATOM     23  O   UNL     1       0.902  10.331  21.295  0.00  0.00    +0.000 OA
BRANCH  20  24
ATOM     24  C   UNL     1      -1.414   9.647  18.558  0.00  0.00    +0.000 C 
BRANCH  24  25
ATOM     25  C   UNL     1      -2.305  10.128  17.436  0.00  0.00    +0.000 A 
ATOM     26  C   UNL     1      -3.326  11.054  17.677  0.00  0.00    +0.000 A 
ATOM     27  C   UNL     1      -4.136  11.505  16.631  0.00  0.00    +0.000 A 
ATOM     28  C   UNL     1      -3.929  11.033  15.335  0.00  0.00    +0.000 A 
ATOM     29  C   UNL     1      -2.919  10.107  15.080  0.00  0.00    +0.000 A 
ATOM     30  C   UNL     1      -2.112   9.654  16.125  0.00  0.00    +0.000 A 
ENDBRANCH  24  25
ENDBRANCH  20  24
ENDBRANCH  17  18
ENDBRANCH   3  17
TORSDOF 7
ENDMDL
MODEL 9
REMARK VINA RESULT:      -7.3      3.353      4.863
REMARK  Name = 
REMARK  8 active torsions:
REMARK  status: ('A' for Active; 'I' for Inactive)
REMARK    1  A    between atoms: C_1  and  O_2
REMARK    2  A    between atoms: O_2  and  C_3
REMARK    3  A    between atoms: C_5  and  N_6
REMARK    4  A    between atoms: C_10  and  C_11
REMARK    5  A    between atoms: N_13  and  C_14
REMARK    6  A    between atoms: C_14  and  C_15
REMARK    7  A    between atoms: N_17  and  C_18
REMARK    8  A    between atoms: C_18  and  C_19
REMARK                            x       y       z     vdW  Elec       q    Type
REMARK                         _______ _______ _______ _____ _____    ______ ____
ROOT
ATOM      1  C   UNL     1       2.635   7.661  18.215  0.00  0.00    +0.000 C 
ATOM      2  O   UNL     1       2.716   8.202  17.118  0.00  0.00    +0.000 OA
ATOM      3  N   UNL     1       1.970   8.231  19.271  0.00  0.00    +0.000 N 
ATOM      4  H   UNL     1       2.025   7.759  20.171  0.00  0.00    +0.000 HD
ENDROOT
BRANCH   1  11
ATOM      5  C   UNL     1       4.358   5.799  17.713  0.00  0.00    +0.000 A 
ATOM      6  C   UNL     1       4.878   4.538  18.053  0.00  0.00    +0.000 A 
ATOM      7  C   UNL     1       4.314   3.760  19.072  0.00  0.00    +0.000 A 
ATOM      8  C   UNL     1       3.262   4.309  19.821  0.00  0.00    +0.000 A 
ATOM      9 CL   UNL     1       2.576   3.433  21.145  0.00  0.00    +0.000 Cl
ATOM     10  C   UNL     1       2.733   5.558  19.502  0.00  0.00    +0.000 A 
ATOM     11  C   UNL     1       3.273   6.318  18.447  0.00  0.00    +0.000 A 
BRANCH   7  12
ATOM     12  N   UNL     1       4.967   2.576  19.462  0.00  0.00    +0.000 N 
ATOM     13  H   UNL     1       5.505   2.122  18.732  0.00  0.00    +0.000 HD
ATOM     14  H   UNL     1       4.351   1.931  19.957  0.00  0.00    +0.000 HD
ENDBRANCH   7  12
BRANCH   5  16
ATOM     15  C   UNL     1       5.351   5.922  15.544  0.00  0.00    +0.000 C 
ATOM     16  O   UNL     1       4.912   6.583  16.729  0.00  0.00    +0.000 OA
ENDBRANCH   5  16
ENDBRANCH   1  11
BRANCH   3  17
ATOM     17  C   UNL     1       1.250   9.489  19.171  0.00  0.00    +0.000 C 
BRANCH  17  18
ATOM     18  C   UNL     1       0.341   9.721  20.387  0.00  0.00    +0.000 C 
ATOM     19  C   UNL     1       0.865  10.874  21.279  0.00  0.00    +0.000 C 
ATOM     20  N   UNL     1      -0.020  11.152  22.440  0.00  0.00    +0.000 NA
ATOM     21  C   UNL     1      -0.169   9.880  23.181  0.00  0.00    +0.000 C 
ATOM     22  C   UNL     1      -0.612   8.696  22.305  0.00  0.00    +0.000 C 
ATOM     23  O   UNL     1       0.239   8.512  21.161  0.00  0.00    +0.000 OA
BRANCH  20  24
ATOM     24  C   UNL     1      -1.310  11.711  21.992  0.00  0.00    +0.000 C 
BRANCH  24  25
ATOM     25  C   UNL     1      -1.969  12.632  22.993  0.00  0.00    +0.000 A 
ATOM     26  C   UNL     1      -1.335  13.807  23.413  0.00  0.00    +0.000 A 
ATOM     27  C   UNL     1      -1.957  14.661  24.328  0.00  0.00    +0.000 A 
ATOM     28  C   UNL     1      -3.220  14.347  24.828  0.00  0.00    +0.000 A 
ATOM     29  C   UNL     1      -3.862  13.177  24.423  0.00  0.00    +0.000 A 
ATOM     30  C   UNL     1      -3.239  12.322  23.513  0.00  0.00    +0.000 A 
ENDBRANCH  24  25
ENDBRANCH  20  24
ENDBRANCH  17  18
ENDBRANCH   3  17
TORSDOF 7
ENDMDL
