MODEL 1
REMARK VINA RESULT:      -7.2      0.000      0.000
REMARK  Name = 
REMARK  4 active torsions:
REMARK  status: ('A' for Active; 'I' for Inactive)
REMARK    1  A    between atoms: C_2  and  C_3
REMARK    2  A    between atoms: N_5  and  C_6
REMARK    3  A    between atoms: C_6  and  C_7
REMARK    4  A    between atoms: C_7  and  C_8
REMARK                            x       y       z     vdW  Elec       q    Type
REMARK                         _______ _______ _______ _____ _____    ______ ____
ROOT
ATOM      1  C   UNL     1       4.641   5.405  18.101  0.00  0.00    +0.000 A 
ATOM      2  C   UNL     1       5.767   4.870  18.691  0.00  0.00    +0.000 A 
ATOM      3 BR   UNL     1       7.443   5.675  18.848  0.00  0.00    +0.000 Br
ATOM      4  N   UNL     1       5.474   3.630  19.176  0.00  0.00    +0.000 N 
ATOM      5  C   UNL     1       4.157   3.327  18.928  0.00  0.00    +0.000 A 
ATOM      6  C   UNL     1       3.418   2.184  19.254  0.00  0.00    +0.000 A 
ATOM      7  C   UNL     1       2.074   2.152  18.871  0.00  0.00    +0.000 A 
ATOM      8  C   UNL     1       1.496   3.222  18.192  0.00  0.00    +0.000 A 
ATOM      9  C   UNL     1       2.251   4.360  17.876  0.00  0.00    +0.000 A 
ATOM     10  C   UNL     1       3.611   4.416  18.249  0.00  0.00    +0.000 A 
ATOM     11  H   UNL     1       6.127   3.029  19.657  0.00  0.00    +0.000 HD
ENDROOT
BRANCH   1  12
ATOM     12  C   UNL     1       4.480   6.752  17.462  0.00  0.00    +0.000 C 
BRANCH  12  13
ATOM     13  C   UNL     1       5.165   6.809  16.092  0.00  0.00    +0.000 C 
BRANCH  13  16
ATOM     14  O   UNL     1       7.458   5.575  14.983  0.00  0.00    +0.000 OA
ATOM     15  C   UNL     1       6.372   5.007  14.893  0.00  0.00    +0.000 C 
ATOM     16  N   UNL     1       5.207   5.521  15.424  0.00  0.00    +0.000 N 
ATOM     17  H   UNL     1       4.329   5.069  15.196  0.00  0.00    +0.000 HD
BRANCH  15  18
ATOM     18  C   UNL     1       6.230   3.643  14.260  0.00  0.00    +0.000 C 
ATOM     19 BR   UNL     1       6.537   3.816  12.350  0.00  0.00    +0.000 Br
ENDBRANCH  15  18
ENDBRANCH  13  16
ENDBRANCH  12  13
ENDBRANCH   1  12
TORSDOF 4
ENDMDL
MODEL 2
REMARK VINA RESULT:      -7.1      1.623      1.915
REMARK  Name = 
REMARK  4 active torsions:
REMARK  status: ('A' for Active; 'I' for Inactive)
REMARK    1  A    between atoms: C_2  and  C_3
REMARK    2  A    between atoms: N_5  and  C_6
REMARK    3  A    between atoms: C_6  and  C_7
REMARK    4  A    between atoms: C_7  and  C_8
REMARK                            x       y       z     vdW  Elec       q    Type
REMARK                         _______ _______ _______ _____ _____    ______ ____
ROOT
ATOM      1  C   UNL     1       5.354   4.669  17.191  0.00  0.00    +0.000 A 
ATOM      2  C   UNL     1       6.132   4.935  18.298  0.00  0.00    +0.000 A 
ATOM      3 BR   UNL     1       7.635   6.039  18.375  0.00  0.00    +0.000 Br
ATOM      4  N   UNL     1       5.625   4.270  19.374  0.00  0.00    +0.000 N 
ATOM      5  C   UNL     1       4.506   3.563  19.006  0.00  0.00    +0.000 A 
ATOM      6  C   UNL     1       3.658   2.755  19.773  0.00  0.00    +0.000 A 
ATOM      7  C   UNL     1       2.577   2.153  19.121  0.00  0.00    +0.000 A 
ATOM      8  C   UNL     1       2.356   2.354  17.761  0.00  0.00    +0.000 A 
ATOM      9  C   UNL     1       3.215   3.169  17.011  0.00  0.00    +0.000 A 
ATOM     10  C   UNL     1       4.315   3.786  17.643  0.00  0.00    +0.000 A 
ATOM     11  H   UNL     1       6.012   4.301  20.307  0.00  0.00    +0.000 HD
ENDROOT
BRANCH   1  12
ATOM     12  C   UNL     1       5.509   5.201  15.797  0.00  0.00    +0.000 C 
BRANCH  12  13
ATOM     13  C   UNL     1       6.610   4.459  15.033  0.00  0.00    +0.000 C 
BRANCH  13  16
ATOM     14  O   UNL     1       7.145   4.478  12.253  0.00  0.00    +0.000 OA
ATOM     15  C   UNL     1       6.388   3.624  12.709  0.00  0.00    +0.000 C 
ATOM     16  N   UNL     1       6.089   3.523  14.052  0.00  0.00    +0.000 N 
ATOM     17  H   UNL     1       5.355   2.885  14.340  0.00  0.00    +0.000 HD
BRANCH  15  18
ATOM     18  C   UNL     1       5.779   2.547  11.844  0.00  0.00    +0.000 C 
ATOM     19 BR   UNL     1       4.090   3.202  11.145  0.00  0.00    +0.000 Br
ENDBRANCH  15  18
ENDBRANCH  13  16
ENDBRANCH  12  13
ENDBRANCH   1  12
TORSDOF 4
ENDMDL
MODEL 3
REMARK VINA RESULT:      -7.0      2.068      2.680
REMARK  Name = 
REMARK  4 active torsions:
REMARK  status: ('A' for Active; 'I' for Inactive)
REMARK    1  A    between atoms: C_2  and  C_3
REMARK    2  A    between atoms: N_5  and  C_6
REMARK    3  A    between atoms: C_6  and  C_7
REMARK    4  A    between atoms: C_7  and  C_8
REMARK                            x       y       z     vdW  Elec       q    Type
REMARK                         _______ _______ _______ _____ _____    ______ ____
ROOT
ATOM      1  C   UNL     1       5.698   4.978  16.860  0.00  0.00    +0.000 A 
ATOM      2  C   UNL     1       5.824   6.232  17.421  0.00  0.00    +0.000 A 
ATOM      3 BR   UNL     1       7.338   7.323  17.407  0.00  0.00    +0.000 Br
ATOM      4  N   UNL     1       4.641   6.586  17.998  0.00  0.00    +0.000 N 
ATOM      5  C   UNL     1       3.714   5.587  17.823  0.00  0.00    +0.000 A 
ATOM      6  C   UNL     1       2.376   5.518  18.228  0.00  0.00    +0.000 A 
ATOM      7  C   UNL     1       1.662   4.360  17.903  0.00  0.00    +0.000 A 
ATOM      8  C   UNL     1       2.264   3.318  17.203  0.00  0.00    +0.000 A 
ATOM      9  C   UNL     1       3.604   3.407  16.804  0.00  0.00    +0.000 A 
ATOM     10  C   UNL     1       4.349   4.563  17.120  0.00  0.00    +0.000 A 
ATOM     11  H   UNL     1       4.469   7.460  18.474  0.00  0.00    +0.000 HD
ENDROOT
BRANCH   1  12
ATOM     12  C   UNL     1       6.726   4.196  16.097  0.00  0.00    +0.000 C 
BRANCH  12  13
ATOM     13  C   UNL     1       6.760   4.605  14.621  0.00  0.00    +0.000 C 
BRANCH  13  16
ATOM     14  O   UNL     1       7.309   4.225  11.870  0.00  0.00    +0.000 OA
ATOM     15  C   UNL     1       6.446   3.535  12.407  0.00  0.00    +0.000 C 
ATOM     16  N   UNL     1       6.129   3.633  13.746  0.00  0.00    +0.000 N 
ATOM     17  H   UNL     1       5.317   3.132  14.091  0.00  0.00    +0.000 HD
BRANCH  15  18
ATOM     18  C   UNL     1       5.709   2.447  11.662  0.00  0.00    +0.000 C 
ATOM     19 BR   UNL     1       3.974   3.138  11.127  0.00  0.00    +0.000 Br
ENDBRANCH  15  18
ENDBRANCH  13  16
ENDBRANCH  12  13
ENDBRANCH   1  12
TORSDOF 4
ENDMDL
MODEL 4
REMARK VINA RESULT:      -6.9      2.858      5.792
REMARK  Name = 
REMARK  4 active torsions:
REMARK  status: ('A' for Active; 'I' for Inactive)
REMARK    1  A    between atoms: C_2  and  C_3
REMARK    2  A    between atoms: N_5  and  C_6
REMARK    3  A    between atoms: C_6  and  C_7
REMARK    4  A    between atoms: C_7  and  C_8
REMARK                            x       y       z     vdW  Elec       q    Type
REMARK                         _______ _______ _______ _____ _____    ______ ____
ROOT
ATOM      1  C   UNL     1       5.783   4.540  16.103  0.00  0.00    +0.000 A 
ATOM      2  C   UNL     1       6.803   5.385  16.487  0.00  0.00    +0.000 A 
ATOM      3 BR   UNL     1       7.110   6.072  18.195  0.00  0.00    +0.000 Br
ATOM      4  N   UNL     1       7.599   5.648  15.411  0.00  0.00    +0.000 N 
ATOM      5  C   UNL     1       7.129   4.981  14.305  0.00  0.00    +0.000 A 
ATOM      6  C   UNL     1       7.628   4.941  12.998  0.00  0.00    +0.000 A 
ATOM      7  C   UNL     1       6.935   4.163  12.066  0.00  0.00    +0.000 A 
ATOM      8  C   UNL     1       5.792   3.456  12.430  0.00  0.00    +0.000 A 
ATOM      9  C   UNL     1       5.310   3.505  13.745  0.00  0.00    +0.000 A 
ATOM     10  C   UNL     1       5.989   4.285  14.705  0.00  0.00    +0.000 A 
ATOM     11  H   UNL     1       8.418   6.238  15.429  0.00  0.00    +0.000 HD
ENDROOT
BRANCH   1  12
ATOM     12  C   UNL     1       4.690   3.960  16.950  0.00  0.00    +0.000 C 
BRANCH  12  13
ATOM     13  C   UNL     1       3.674   5.030  17.364  0.00  0.00    +0.000 C 
BRANCH  13  16
ATOM     14  O   UNL     1       1.121   3.815  17.511  0.00  0.00    +0.000 OA
ATOM     15  C   UNL     1       1.699   4.118  18.552  0.00  0.00    +0.000 C 
ATOM     16  N   UNL     1       2.954   4.690  18.578  0.00  0.00    +0.000 N 
ATOM     17  H   UNL     1       3.311   5.037  19.461  0.00  0.00    +0.000 HD
BRANCH  15  18
ATOM     18  C   UNL     1       1.117   3.809  19.912  0.00  0.00    +0.000 C 
ATOM     19 BR   UNL     1       2.467   2.891  20.964  0.00  0.00    +0.000 Br
ENDBRANCH  15  18
ENDBRANCH  13  16
ENDBRANCH  12  13
ENDBRANCH   1  12
TORSDOF 4
ENDMDL
MODEL 5
REMARK VINA RESULT:      -6.8      2.815      5.858
REMARK  Name = 
REMARK  4 active torsions:
REMARK  status: ('A' for Active; 'I' for Inactive)
REMARK    1  A    between atoms: C_2  and  C_3
REMARK    2  A    between atoms: N_5  and  C_6
REMARK    3  A    between atoms: C_6  and  C_7
REMARK    4  A    between atoms: C_7  and  C_8
REMARK                            x       y       z     vdW  Elec       q    Type
REMARK                         _______ _______ _______ _____ _____    ______ ____
ROOT
ATOM      1  C   UNL     1       5.678   4.848  15.806  0.00  0.00    +0.000 A 
ATOM      2  C   UNL     1       6.782   5.597  16.157  0.00  0.00    +0.000 A 
ATOM      3 BR   UNL     1       7.108   6.415  17.802  0.00  0.00    +0.000 Br
ATOM      4  N   UNL     1       7.644   5.649  15.102  0.00  0.00    +0.000 N 
ATOM      5  C   UNL     1       7.136   4.934  14.044  0.00  0.00    +0.000 A 
ATOM      6  C   UNL     1       7.674   4.699  12.773  0.00  0.00    +0.000 A 
ATOM      7  C   UNL     1       6.924   3.919  11.888  0.00  0.00    +0.000 A 
ATOM      8  C   UNL     1       5.688   3.397  12.262  0.00  0.00    +0.000 A 
ATOM      9  C   UNL     1       5.167   3.640  13.540  0.00  0.00    +0.000 A 
ATOM     10  C   UNL     1       5.902   4.426  14.452  0.00  0.00    +0.000 A 
ATOM     11  H   UNL     1       8.529   6.134  15.103  0.00  0.00    +0.000 HD
ENDROOT
BRANCH   1  12
ATOM     12  C   UNL     1       4.489   4.496  16.650  0.00  0.00    +0.000 C 
BRANCH  12  13
ATOM     13  C   UNL     1       4.907   3.764  17.930  0.00  0.00    +0.000 C 
BRANCH  13  16
ATOM     14  O   UNL     1       4.926   2.134  20.243  0.00  0.00    +0.000 OA
ATOM     15  C   UNL     1       3.908   2.763  19.965  0.00  0.00    +0.000 C 
ATOM     16  N   UNL     1       3.815   3.600  18.873  0.00  0.00    +0.000 N 
ATOM     17  H   UNL     1       2.908   3.980  18.627  0.00  0.00    +0.000 HD
BRANCH  15  18
ATOM     18  C   UNL     1       2.684   2.742  20.850  0.00  0.00    +0.000 C 
ATOM     19 BR   UNL     1       1.493   4.168  20.286  0.00  0.00    +0.000 Br
ENDBRANCH  15  18
ENDBRANCH  13  16
ENDBRANCH  12  13
ENDBRANCH   1  12
TORSDOF 4
ENDMDL
MODEL 6
REMARK VINA RESULT:      -6.7      1.543      1.786
REMARK  Name = 
REMARK  4 active torsions:
REMARK  status: ('A' for Active; 'I' for Inactive)
REMARK    1  A    between atoms: C_2  and  C_3
REMARK    2  A    between atoms: N_5  and  C_6
REMARK    3  A    between atoms: C_6  and  C_7
REMARK    4  A    between atoms: C_7  and  C_8
REMARK                            x       y       z     vdW  Elec       q    Type
REMARK                         _______ _______ _______ _____ _____    ______ ____
ROOT
ATOM      1  C   UNL     1       4.523   4.255  18.011  0.00  0.00    +0.000 A 
ATOM      2  C   UNL     1       5.148   5.095  18.908  0.00  0.00    +0.000 A 
ATOM      3 BR   UNL     1       6.862   5.819  18.762  0.00  0.00    +0.000 Br
ATOM      4  N   UNL     1       4.306   5.348  19.949  0.00  0.00    +0.000 N 
ATOM      5  C   UNL     1       3.113   4.693  19.759  0.00  0.00    +0.000 A 
ATOM      6  C   UNL     1       1.960   4.673  20.552  0.00  0.00    +0.000 A 
ATOM      7  C   UNL     1       0.879   3.909  20.100  0.00  0.00    +0.000 A 
ATOM      8  C   UNL     1       0.953   3.197  18.906  0.00  0.00    +0.000 A 
ATOM      9  C   UNL     1       2.115   3.232  18.124  0.00  0.00    +0.000 A 
ATOM     10  C   UNL     1       3.221   3.994  18.557  0.00  0.00    +0.000 A 
ATOM     11  H   UNL     1       4.524   5.939  20.738  0.00  0.00    +0.000 HD
ENDROOT
BRANCH   1  12
ATOM     12  C   UNL     1       5.049   3.731  16.707  0.00  0.00    +0.000 C 
BRANCH  12  13
ATOM     13  C   UNL     1       5.230   4.856  15.683  0.00  0.00    +0.000 C 
BRANCH  13  16
ATOM     14  O   UNL     1       7.656   5.378  14.322  0.00  0.00    +0.000 OA
ATOM     15  C   UNL     1       6.796   4.697  13.769  0.00  0.00    +0.000 C 
ATOM     16  N   UNL     1       5.595   4.372  14.364  0.00  0.00    +0.000 N 
ATOM     17  H   UNL     1       4.879   3.924  13.802  0.00  0.00    +0.000 HD
BRANCH  15  18
ATOM     18  C   UNL     1       7.014   4.079  12.408  0.00  0.00    +0.000 C 
ATOM     19 BR   UNL     1       5.455   3.011  11.961  0.00  0.00    +0.000 Br
ENDBRANCH  15  18
ENDBRANCH  13  16
ENDBRANCH  12  13
ENDBRANCH   1  12
TORSDOF 4
ENDMDL
MODEL 7
REMARK VINA RESULT:      -6.7      1.351      1.501
REMARK  Name = 
REMARK  4 active torsions:
REMARK  status: ('A' for Active; 'I' for Inactive)
REMARK    1  A    between atoms: C_2  and  C_3
REMARK    2  A    between atoms: N_5  and  C_6
REMARK    3  A    between atoms: C_6  and  C_7
REMARK    4  A    between atoms: C_7  and  C_8
REMARK                            x       y       z     vdW  Elec       q    Type
REMARK                         _______ _______ _______ _____ _____    ______ ____
ROOT
ATOM      1  C   UNL     1       5.345   4.756  17.506  0.00  0.00    +0.000 A 
ATOM      2  C   UNL     1       6.131   4.808  18.638  0.00  0.00    +0.000 A 
ATOM      3 BR   UNL     1       7.656   5.851  18.900  0.00  0.00    +0.000 Br
ATOM      4  N   UNL     1       5.615   3.972  19.583  0.00  0.00    +0.000 N 
ATOM      5  C   UNL     1       4.481   3.363  19.103  0.00  0.00    +0.000 A 
ATOM      6  C   UNL     1       3.619   2.448  19.720  0.00  0.00    +0.000 A 
ATOM      7  C   UNL     1       2.524   1.992  18.979  0.00  0.00    +0.000 A 
ATOM      8  C   UNL     1       2.303   2.435  17.678  0.00  0.00    +0.000 A 
ATOM      9  C   UNL     1       3.175   3.353  17.078  0.00  0.00    +0.000 A 
ATOM     10  C   UNL     1       4.290   3.828  17.802  0.00  0.00    +0.000 A 
ATOM     11  H   UNL     1       6.004   3.831  20.504  0.00  0.00    +0.000 HD
ENDROOT
BRANCH   1  12
ATOM     12  C   UNL     1       5.506   5.523  16.228  0.00  0.00    +0.000 C 
BRANCH  12  13
ATOM     13  C   UNL     1       6.840   5.202  15.545  0.00  0.00    +0.000 C 
BRANCH  13  16
ATOM     14  O   UNL     1       8.490   5.758  13.314  0.00  0.00    +0.000 OA
ATOM     15  C   UNL     1       7.522   5.015  13.170  0.00  0.00    +0.000 C 
ATOM     16  N   UNL     1       6.678   4.669  14.205  0.00  0.00    +0.000 N 
ATOM     17  H   UNL     1       5.825   4.165  13.988  0.00  0.00    +0.000 HD
BRANCH  15  18
ATOM     18  C   UNL     1       7.216   4.340  11.853  0.00  0.00    +0.000 C 
ATOM     19 BR   UNL     1       5.722   3.128  12.116  0.00  0.00    +0.000 Br
ENDBRANCH  15  18
ENDBRANCH  13  16
ENDBRANCH  12  13
ENDBRANCH   1  12
TORSDOF 4
ENDMDL
MODEL 8
REMARK VINA RESULT:      -6.7      2.979      5.806
REMARK  Name = 
REMARK  4 active torsions:
REMARK  status: ('A' for Active; 'I' for Inactive)
REMARK    1  A    between atoms: C_2  and  C_3
REMARK    2  A    between atoms: N_5  and  C_6
REMARK    3  A    between atoms: C_6  and  C_7
REMARK    4  A    between atoms: C_7  and  C_8
REMARK                            x       y       z     vdW  Elec       q    Type
REMARK                         _______ _______ _______ _____ _____    ______ ____
ROOT
ATOM      1  C   UNL     1       5.799   4.567  15.991  0.00  0.00    +0.000 A 
ATOM      2  C   UNL     1       6.804   5.427  16.380  0.00  0.00    +0.000 A 
ATOM      3 BR   UNL     1       7.081   6.135  18.084  0.00  0.00    +0.000 Br
ATOM      4  N   UNL     1       7.609   5.689  15.311  0.00  0.00    +0.000 N 
ATOM      5  C   UNL     1       7.162   5.006  14.206  0.00  0.00    +0.000 A 
ATOM      6  C   UNL     1       7.677   4.960  12.906  0.00  0.00    +0.000 A 
ATOM      7  C   UNL     1       7.005   4.164  11.973  0.00  0.00    +0.000 A 
ATOM      8  C   UNL     1       5.867   3.446  12.329  0.00  0.00    +0.000 A 
ATOM      9  C   UNL     1       5.367   3.502  13.638  0.00  0.00    +0.000 A 
ATOM     10  C   UNL     1       6.025   4.300  14.598  0.00  0.00    +0.000 A 
ATOM     11  H   UNL     1       8.421   6.290  15.334  0.00  0.00    +0.000 HD
ENDROOT
BRANCH   1  12
ATOM     12  C   UNL     1       4.702   3.981  16.830  0.00  0.00    +0.000 C 
BRANCH  12  13
ATOM     13  C   UNL     1       3.747   5.065  17.340  0.00  0.00    +0.000 C 
BRANCH  13  16
ATOM     14  O   UNL     1       2.836   6.721  19.448  0.00  0.00    +0.000 OA
ATOM     15  C   UNL     1       2.585   5.518  19.482  0.00  0.00    +0.000 C 
ATOM     16  N   UNL     1       2.967   4.641  18.489  0.00  0.00    +0.000 N 
ATOM     17  H   UNL     1       2.846   3.646  18.647  0.00  0.00    +0.000 HD
BRANCH  15  18
ATOM     18  C   UNL     1       1.755   4.903  20.584  0.00  0.00    +0.000 C 
ATOM     19 BR   UNL     1       1.110   3.175  19.975  0.00  0.00    +0.000 Br
ENDBRANCH  15  18
ENDBRANCH  13  16
ENDBRANCH  12  13
ENDBRANCH   1  12
TORSDOF 4
ENDMDL
MODEL 9
REMARK VINA RESULT:      -6.6      3.027      4.592
REMARK  Name = 
REMARK  4 active torsions:
REMARK  status: ('A' for Active; 'I' for Inactive)
REMARK    1  A    between atoms: C_2  and  C_3
REMARK    2  A    between atoms: N_5  and  C_6
REMARK    3  A    between atoms: C_6  and  C_7
REMARK    4  A    between atoms: C_7  and  C_8
REMARK                            x       y       z     vdW  Elec       q    Type
REMARK                         _______ _______ _______ _____ _____    ______ ____
ROOT
ATOM      1  C   UNL     1       2.646   4.551  19.362  0.00  0.00    +0.000 A 
ATOM      2  C   UNL     1       2.162   4.529  20.653  0.00  0.00    +0.000 A 
ATOM      3 BR   UNL     1       2.022   3.045  21.776  0.00  0.00    +0.000 Br
ATOM      4  N   UNL     1       1.800   5.792  21.019  0.00  0.00    +0.000 N 
ATOM      5  C   UNL     1       2.043   6.668  19.989  0.00  0.00    +0.000 A 
ATOM      6  C   UNL     1       1.844   8.052  19.917  0.00  0.00    +0.000 A 
ATOM      7  C   UNL     1       2.191   8.692  18.724  0.00  0.00    +0.000 A 
ATOM      8  C   UNL     1       2.715   7.977  17.651  0.00  0.00    +0.000 A 
ATOM      9  C   UNL     1       2.910   6.592  17.743  0.00  0.00    +0.000 A 
ATOM     10  C   UNL     1       2.566   5.920  18.934  0.00  0.00    +0.000 A 
ATOM     11  H   UNL     1       1.419   6.045  21.919  0.00  0.00    +0.000 HD
ENDROOT
BRANCH   1  12
ATOM     12  C   UNL     1       3.185   3.409  18.554  0.00  0.00    +0.000 C 
BRANCH  12  13
ATOM     13  C   UNL     1       4.598   3.021  19.004  0.00  0.00    +0.000 C 
BRANCH  13  16
ATOM     14  O   UNL     1       6.031   5.400  19.549  0.00  0.00    +0.000 OA
ATOM     15  C   UNL     1       6.269   4.784  18.513  0.00  0.00    +0.000 C 
ATOM     16  N   UNL     1       5.638   3.604  18.177  0.00  0.00    +0.000 N 
ATOM     17  H   UNL     1       5.783   3.223  17.248  0.00  0.00    +0.000 HD
BRANCH  15  18
ATOM     18  C   UNL     1       7.344   5.223  17.547  0.00  0.00    +0.000 C 
ATOM     19 BR   UNL     1       7.416   7.164  17.548  0.00  0.00    +0.000 Br
ENDBRANCH  15  18
ENDBRANCH  13  16
ENDBRANCH  12  13
ENDBRANCH   1  12
TORSDOF 4
ENDMDL
