MODEL 1
REMARK VINA RESULT:      -8.0      0.000      0.000
REMARK  Name = 
REMARK  3 active torsions:
REMARK  status: ('A' for Active; 'I' for Inactive)
REMARK    1  A    between atoms: C_2  and  C_3
REMARK    2  A    between atoms: C_16  and  O_17
REMARK    3  A    between atoms: C_18  and  O_19
REMARK                            x       y       z     vdW  Elec       q    Type
REMARK                         _______ _______ _______ _____ _____    ______ ____
ROOT
ATOM      1  O   UNL     1       1.898   9.426  17.811  0.00  0.00    +0.000 OA
ATOM      2  C   UNL     1       1.818   8.651  18.767  0.00  0.00    +0.000 C 
ATOM      3  N   UNL     1       2.385   7.381  18.744  0.00  0.00    +0.000 N 
ATOM      4  C   UNL     1       3.091   6.901  17.562  0.00  0.00    +0.000 C 
ATOM      5  C   UNL     1       3.011   5.384  17.725  0.00  0.00    +0.000 C 
ATOM      6  C   UNL     1       3.959   4.551  16.881  0.00  0.00    +0.000 C 
ATOM      7  C   UNL     1       5.410   4.628  17.344  0.00  0.00    +0.000 C 
ATOM      8  C   UNL     1       5.563   4.317  18.843  0.00  0.00    +0.000 C 
ATOM      9  C   UNL     1       4.670   5.207  19.702  0.00  0.00    +0.000 C 
ATOM     10  C   UNL     1       3.210   5.198  19.236  0.00  0.00    +0.000 C 
ATOM     11  C   UNL     1       2.430   6.381  19.804  0.00  0.00    +0.000 C 
ENDROOT
BRANCH   2  12
ATOM     12  C   UNL     1       1.130   9.145  20.009  0.00  0.00    +0.000 A 
ATOM     13  C   UNL     1       1.312   8.560  21.279  0.00  0.00    +0.000 A 
ATOM     14  C   UNL     1       0.799   9.145  22.437  0.00  0.00    +0.000 A 
ATOM     15  C   UNL     1       0.007  10.256  22.289  0.00  0.00    +0.000 A 
ATOM     16  C   UNL     1      -0.297  10.776  21.042  0.00  0.00    +0.000 A 
ATOM     17  C   UNL     1       0.255  10.236  19.888  0.00  0.00    +0.000 A 
ATOM     18  C   UNL     1      -1.303  11.847  21.209  0.00  0.00    +0.000 C 
ATOM     19  C   UNL     1      -1.137  12.101  22.710  0.00  0.00    +0.000 C 
ATOM     20  O   UNL     1      -0.592  10.913  23.329  0.00  0.00    +0.000 OA
ENDBRANCH   2  12
BRANCH   7  21
ATOM     21  O   UNL     1       6.167   3.681  16.589  0.00  0.00    +0.000 OA
ATOM     22  H   UNL     1       6.902   3.402  17.171  0.00  0.00    +0.000 HD
ENDBRANCH   7  21
BRANCH   8  23
ATOM     23  O   UNL     1       5.277   2.930  19.076  0.00  0.00    +0.000 OA
ATOM     24  H   UNL     1       5.221   2.468  18.223  0.00  0.00    +0.000 HD
ENDBRANCH   8  23
TORSDOF 3
ENDMDL
MODEL 2
REMARK VINA RESULT:      -7.7      5.264      8.675
REMARK  Name = 
REMARK  3 active torsions:
REMARK  status: ('A' for Active; 'I' for Inactive)
REMARK    1  A    between atoms: C_2  and  C_3
REMARK    2  A    between atoms: C_16  and  O_17
REMARK    3  A    between atoms: C_18  and  O_19
REMARK                            x       y       z     vdW  Elec       q    Type
REMARK                         _______ _______ _______ _____ _____    ______ ____
ROOT
ATOM      1  O   UNL     1       7.075   4.556  18.580  0.00  0.00    +0.000 OA
ATOM      2  C   UNL     1       6.207   4.244  17.761  0.00  0.00    +0.000 C 
ATOM      3  N   UNL     1       4.981   3.709  18.144  0.00  0.00    +0.000 N 
ATOM      4  C   UNL     1       4.677   3.475  19.551  0.00  0.00    +0.000 C 
ATOM      5  C   UNL     1       3.590   2.404  19.477  0.00  0.00    +0.000 C 
ATOM      6  C   UNL     1       2.762   2.177  20.730  0.00  0.00    +0.000 C 
ATOM      7  C   UNL     1       1.777   3.305  21.018  0.00  0.00    +0.000 C 
ATOM      8  C   UNL     1       0.891   3.631  19.803  0.00  0.00    +0.000 C 
ATOM      9  C   UNL     1       1.720   3.938  18.560  0.00  0.00    +0.000 C 
ATOM     10  C   UNL     1       2.759   2.852  18.265  0.00  0.00    +0.000 C 
ATOM     11  C   UNL     1       3.840   3.350  17.310  0.00  0.00    +0.000 C 
ENDROOT
BRANCH   2  12
ATOM     12  C   UNL     1       6.488   4.518  16.310  0.00  0.00    +0.000 A 
ATOM     13  C   UNL     1       7.335   5.555  15.868  0.00  0.00    +0.000 A 
ATOM     14  C   UNL     1       7.712   5.675  14.530  0.00  0.00    +0.000 A 
ATOM     15  C   UNL     1       7.135   4.815  13.629  0.00  0.00    +0.000 A 
ATOM     16  C   UNL     1       6.198   3.872  14.016  0.00  0.00    +0.000 A 
ATOM     17  C   UNL     1       5.860   3.706  15.353  0.00  0.00    +0.000 A 
ATOM     18  C   UNL     1       5.642   3.233  12.804  0.00  0.00    +0.000 C 
ATOM     19  C   UNL     1       6.720   3.648  11.798  0.00  0.00    +0.000 C 
ATOM     20  O   UNL     1       7.382   4.839  12.283  0.00  0.00    +0.000 OA
ENDBRANCH   2  12
BRANCH   7  21
ATOM     21  O   UNL     1       0.949   2.902  22.109  0.00  0.00    +0.000 OA
ATOM     22  H   UNL     1       1.509   2.330  22.671  0.00  0.00    +0.000 HD
ENDBRANCH   7  21
BRANCH   8  23
ATOM     23  O   UNL     1      -0.009   2.540  19.561  0.00  0.00    +0.000 OA
ATOM     24  H   UNL     1       0.493   1.709  19.540  0.00  0.00    +0.000 HD
ENDBRANCH   8  23
TORSDOF 3
ENDMDL
MODEL 3
REMARK VINA RESULT:      -7.6      4.685      9.152
REMARK  Name = 
REMARK  3 active torsions:
REMARK  status: ('A' for Active; 'I' for Inactive)
REMARK    1  A    between atoms: C_2  and  C_3
REMARK    2  A    between atoms: C_16  and  O_17
REMARK    3  A    between atoms: C_18  and  O_19
REMARK                            x       y       z     vdW  Elec       q    Type
REMARK                         _______ _______ _______ _____ _____    ______ ____
ROOT
ATOM      1  O   UNL     1       5.220   6.939  15.279  0.00  0.00    +0.000 OA
ATOM      2  C   UNL     1       5.278   5.708  15.336  0.00  0.00    +0.000 C 
ATOM      3  N   UNL     1       4.730   4.987  16.392  0.00  0.00    +0.000 N 
ATOM      4  C   UNL     1       4.072   5.670  17.500  0.00  0.00    +0.000 C 
ATOM      5  C   UNL     1       4.169   4.640  18.624  0.00  0.00    +0.000 C 
ATOM      6  C   UNL     1       3.263   4.846  19.825  0.00  0.00    +0.000 C 
ATOM      7  C   UNL     1       1.796   4.546  19.536  0.00  0.00    +0.000 C 
ATOM      8  C   UNL     1       1.596   3.157  18.907  0.00  0.00    +0.000 C 
ATOM      9  C   UNL     1       2.445   2.973  17.653  0.00  0.00    +0.000 C 
ATOM     10  C   UNL     1       3.920   3.315  17.888  0.00  0.00    +0.000 C 
ATOM     11  C   UNL     1       4.663   3.541  16.574  0.00  0.00    +0.000 C 
ENDROOT
BRANCH   2  12
ATOM     12  C   UNL     1       5.914   4.986  14.182  0.00  0.00    +0.000 A 
ATOM     13  C   UNL     1       7.240   5.216  13.762  0.00  0.00    +0.000 A 
ATOM     14  C   UNL     1       7.857   4.410  12.804  0.00  0.00    +0.000 A 
ATOM     15  C   UNL     1       7.089   3.451  12.193  0.00  0.00    +0.000 A 
ATOM     16  C   UNL     1       5.747   3.290  12.491  0.00  0.00    +0.000 A 
ATOM     17  C   UNL     1       5.138   4.047  13.484  0.00  0.00    +0.000 A 
ATOM     18  C   UNL     1       5.167   2.310  11.548  0.00  0.00    +0.000 C 
ATOM     19  C   UNL     1       6.463   1.674  11.035  0.00  0.00    +0.000 C 
ATOM     20  O   UNL     1       7.549   2.613  11.213  0.00  0.00    +0.000 OA
ENDBRANCH   2  12
BRANCH   7  21
ATOM     21  O   UNL     1       1.080   4.610  20.770  0.00  0.00    +0.000 OA
ATOM     22  H   UNL     1       0.572   5.447  20.741  0.00  0.00    +0.000 HD
ENDBRANCH   7  21
BRANCH   8  23
ATOM     23  O   UNL     1       1.894   2.144  19.878  0.00  0.00    +0.000 OA
ATOM     24  H   UNL     1       1.702   2.487  20.767  0.00  0.00    +0.000 HD
ENDBRANCH   8  23
TORSDOF 3
ENDMDL
MODEL 4
REMARK VINA RESULT:      -7.5      1.998      7.924
REMARK  Name = 
REMARK  3 active torsions:
REMARK  status: ('A' for Active; 'I' for Inactive)
REMARK    1  A    between atoms: C_2  and  C_3
REMARK    2  A    between atoms: C_16  and  O_17
REMARK    3  A    between atoms: C_18  and  O_19
REMARK                            x       y       z     vdW  Elec       q    Type
REMARK                         _______ _______ _______ _____ _____    ______ ____
ROOT
ATOM      1  O   UNL     1       2.680   6.047  20.580  0.00  0.00    +0.000 OA
ATOM      2  C   UNL     1       2.736   6.488  19.430  0.00  0.00    +0.000 C 
ATOM      3  N   UNL     1       2.159   7.702  19.071  0.00  0.00    +0.000 N 
ATOM      4  C   UNL     1       1.438   8.504  20.052  0.00  0.00    +0.000 C 
ATOM      5  C   UNL     1       0.525   9.357  19.172  0.00  0.00    +0.000 C 
ATOM      6  C   UNL     1      -0.106  10.578  19.816  0.00  0.00    +0.000 C 
ATOM      7  C   UNL     1       0.885  11.711  20.066  0.00  0.00    +0.000 C 
ATOM      8  C   UNL     1       1.679  12.082  18.802  0.00  0.00    +0.000 C 
ATOM      9  C   UNL     1       2.380  10.872  18.195  0.00  0.00    +0.000 C 
ATOM     10  C   UNL     1       1.429   9.691  17.976  0.00  0.00    +0.000 C 
ATOM     11  C   UNL     1       2.190   8.382  17.781  0.00  0.00    +0.000 C 
ENDROOT
BRANCH   2  12
ATOM     12  C   UNL     1       3.511   5.694  18.416  0.00  0.00    +0.000 A 
ATOM     13  C   UNL     1       3.000   4.546  17.778  0.00  0.00    +0.000 A 
ATOM     14  C   UNL     1       3.673   3.934  16.719  0.00  0.00    +0.000 A 
ATOM     15  C   UNL     1       4.914   4.420  16.391  0.00  0.00    +0.000 A 
ATOM     16  C   UNL     1       5.498   5.464  17.088  0.00  0.00    +0.000 A 
ATOM     17  C   UNL     1       4.813   6.117  18.105  0.00  0.00    +0.000 A 
ATOM     18  C   UNL     1       6.889   5.630  16.615  0.00  0.00    +0.000 C 
ATOM     19  C   UNL     1       6.790   4.847  15.302  0.00  0.00    +0.000 C 
ATOM     20  O   UNL     1       5.702   3.899  15.401  0.00  0.00    +0.000 OA
ENDBRANCH   2  12
BRANCH   7  21
ATOM     21  O   UNL     1       0.149  12.852  20.510  0.00  0.00    +0.000 OA
ATOM     22  H   UNL     1       0.489  13.608  19.990  0.00  0.00    +0.000 HD
ENDBRANCH   7  21
BRANCH   8  23
ATOM     23  O   UNL     1       0.800  12.696  17.847  0.00  0.00    +0.000 OA
ATOM     24  H   UNL     1       0.623  12.069  17.127  0.00  0.00    +0.000 HD
ENDBRANCH   8  23
TORSDOF 3
ENDMDL
MODEL 5
REMARK VINA RESULT:      -7.5      2.544      7.544
REMARK  Name = 
REMARK  3 active torsions:
REMARK  status: ('A' for Active; 'I' for Inactive)
REMARK    1  A    between atoms: C_2  and  C_3
REMARK    2  A    between atoms: C_16  and  O_17
REMARK    3  A    between atoms: C_18  and  O_19
REMARK                            x       y       z     vdW  Elec       q    Type
REMARK                         _______ _______ _______ _____ _____    ______ ____
ROOT
ATOM      1  O   UNL     1       3.134   8.217  17.221  0.00  0.00    +0.000 OA
ATOM      2  C   UNL     1       2.407   8.074  18.207  0.00  0.00    +0.000 C 
ATOM      3  N   UNL     1       1.668   9.124  18.743  0.00  0.00    +0.000 N 
ATOM      4  C   UNL     1       1.740  10.460  18.163  0.00  0.00    +0.000 C 
ATOM      5  C   UNL     1       1.306  11.348  19.328  0.00  0.00    +0.000 C 
ATOM      6  C   UNL     1       0.899  12.771  18.993  0.00  0.00    +0.000 C 
ATOM      7  C   UNL     1      -0.449  12.865  18.285  0.00  0.00    +0.000 C 
ATOM      8  C   UNL     1      -1.561  12.120  19.043  0.00  0.00    +0.000 C 
ATOM      9  C   UNL     1      -1.189  10.665  19.313  0.00  0.00    +0.000 C 
ATOM     10  C   UNL     1       0.184  10.524  19.978  0.00  0.00    +0.000 C 
ATOM     11  C   UNL     1       0.726   9.103  19.857  0.00  0.00    +0.000 C 
ENDROOT
BRANCH   2  12
ATOM     12  C   UNL     1       2.289   6.695  18.792  0.00  0.00    +0.000 A 
ATOM     13  C   UNL     1       2.205   6.447  20.177  0.00  0.00    +0.000 A 
ATOM     14  C   UNL     1       1.922   5.175  20.679  0.00  0.00    +0.000 A 
ATOM     15  C   UNL     1       1.842   4.142  19.780  0.00  0.00    +0.000 A 
ATOM     16  C   UNL     1       2.050   4.335  18.425  0.00  0.00    +0.000 A 
ATOM     17  C   UNL     1       2.275   5.604  17.908  0.00  0.00    +0.000 A 
ATOM     18  C   UNL     1       2.073   3.015  17.758  0.00  0.00    +0.000 C 
ATOM     19  C   UNL     1       1.414   2.178  18.859  0.00  0.00    +0.000 C 
ATOM     20  O   UNL     1       1.606   2.840  20.130  0.00  0.00    +0.000 OA
ENDBRANCH   2  12
BRANCH   7  21
ATOM     21  O   UNL     1      -0.798  14.246  18.178  0.00  0.00    +0.000 OA
ATOM     22  H   UNL     1      -1.322  14.325  17.355  0.00  0.00    +0.000 HD
ENDBRANCH   7  21
BRANCH   8  23
ATOM     23  O   UNL     1      -1.850  12.809  20.268  0.00  0.00    +0.000 OA
ATOM     24  H   UNL     1      -2.753  12.591  20.552  0.00  0.00    +0.000 HD
ENDBRANCH   8  23
TORSDOF 3
ENDMDL
MODEL 6
REMARK VINA RESULT:      -7.4      1.111      1.143
REMARK  Name = 
REMARK  3 active torsions:
REMARK  status: ('A' for Active; 'I' for Inactive)
REMARK    1  A    between atoms: C_2  and  C_3
REMARK    2  A    between atoms: C_16  and  O_17
REMARK    3  A    between atoms: C_18  and  O_19
REMARK                            x       y       z     vdW  Elec       q    Type
REMARK                         _______ _______ _______ _____ _____    ______ ____
ROOT
ATOM      1  O   UNL     1       2.026   9.380  17.420  0.00  0.00    +0.000 OA
ATOM      2  C   UNL     1       2.146   8.566  18.339  0.00  0.00    +0.000 C 
ATOM      3  N   UNL     1       2.998   7.470  18.253  0.00  0.00    +0.000 N 
ATOM      4  C   UNL     1       3.779   7.225  17.046  0.00  0.00    +0.000 C 
ATOM      5  C   UNL     1       4.064   5.727  17.137  0.00  0.00    +0.000 C 
ATOM      6  C   UNL     1       5.169   5.181  16.251  0.00  0.00    +0.000 C 
ATOM      7  C   UNL     1       6.567   5.579  16.712  0.00  0.00    +0.000 C 
ATOM      8  C   UNL     1       6.811   5.246  18.194  0.00  0.00    +0.000 C 
ATOM      9  C   UNL     1       5.746   5.858  19.097  0.00  0.00    +0.000 C 
ATOM     10  C   UNL     1       4.324   5.525  18.637  0.00  0.00    +0.000 C 
ATOM     11  C   UNL     1       3.294   6.461  19.264  0.00  0.00    +0.000 C 
ENDROOT
BRANCH   2  12
ATOM     12  C   UNL     1       1.380   8.826  19.606  0.00  0.00    +0.000 A 
ATOM     13  C   UNL     1       1.399   7.955  20.714  0.00  0.00    +0.000 A 
ATOM     14  C   UNL     1       0.820   8.307  21.934  0.00  0.00    +0.000 A 
ATOM     15  C   UNL     1       0.125   9.489  21.989  0.00  0.00    +0.000 A 
ATOM     16  C   UNL     1      -0.022  10.302  20.878  0.00  0.00    +0.000 A 
ATOM     17  C   UNL     1       0.598   9.990  19.675  0.00  0.00    +0.000 A 
ATOM     18  C   UNL     1      -0.962  11.394  21.212  0.00  0.00    +0.000 C 
ATOM     19  C   UNL     1      -0.922  11.286  22.740  0.00  0.00    +0.000 C 
ATOM     20  O   UNL     1      -0.522   9.944  23.105  0.00  0.00    +0.000 OA
ENDBRANCH   2  12
BRANCH   7  21
ATOM     21  O   UNL     1       7.515   4.874  15.909  0.00  0.00    +0.000 OA
ATOM     22  H   UNL     1       7.260   5.049  14.981  0.00  0.00    +0.000 HD
ENDBRANCH   7  21
BRANCH   8  23
ATOM     23  O   UNL     1       6.866   3.822  18.361  0.00  0.00    +0.000 OA
ATOM     24  H   UNL     1       7.395   3.612  19.148  0.00  0.00    +0.000 HD
ENDBRANCH   8  23
TORSDOF 3
ENDMDL
MODEL 7
REMARK VINA RESULT:      -7.4      0.839      1.375
REMARK  Name = 
REMARK  3 active torsions:
REMARK  status: ('A' for Active; 'I' for Inactive)
REMARK    1  A    between atoms: C_2  and  C_3
REMARK    2  A    between atoms: C_16  and  O_17
REMARK    3  A    between atoms: C_18  and  O_19
REMARK                            x       y       z     vdW  Elec       q    Type
REMARK                         _______ _______ _______ _____ _____    ______ ____
ROOT
ATOM      1  O   UNL     1       1.773   9.382  17.198  0.00  0.00    +0.000 OA
ATOM      2  C   UNL     1       1.826   8.838  18.304  0.00  0.00    +0.000 C 
ATOM      3  N   UNL     1       2.358   7.564  18.481  0.00  0.00    +0.000 N 
ATOM      4  C   UNL     1       2.864   6.803  17.344  0.00  0.00    +0.000 C 
ATOM      5  C   UNL     1       2.780   5.364  17.849  0.00  0.00    +0.000 C 
ATOM      6  C   UNL     1       3.570   4.318  17.083  0.00  0.00    +0.000 C 
ATOM      7  C   UNL     1       5.077   4.417  17.301  0.00  0.00    +0.000 C 
ATOM      8  C   UNL     1       5.451   4.430  18.794  0.00  0.00    +0.000 C 
ATOM      9  C   UNL     1       4.719   5.530  19.554  0.00  0.00    +0.000 C 
ATOM     10  C   UNL     1       3.205   5.499  19.319  0.00  0.00    +0.000 C 
ATOM     11  C   UNL     1       2.545   6.816  19.718  0.00  0.00    +0.000 C 
ENDROOT
BRANCH   2  12
ATOM     12  C   UNL     1       1.347   9.625  19.491  0.00  0.00    +0.000 A 
ATOM     13  C   UNL     1       1.492  11.022  19.602  0.00  0.00    +0.000 A 
ATOM     14  C   UNL     1       0.886  11.744  20.632  0.00  0.00    +0.000 A 
ATOM     15  C   UNL     1       0.234  11.031  21.607  0.00  0.00    +0.000 A 
ATOM     16  C   UNL     1       0.188   9.647  21.593  0.00  0.00    +0.000 A 
ATOM     17  C   UNL     1       0.738   8.923  20.544  0.00  0.00    +0.000 A 
ATOM     18  C   UNL     1      -0.423   9.182  22.857  0.00  0.00    +0.000 C 
ATOM     19  C   UNL     1      -1.076  10.494  23.305  0.00  0.00    +0.000 C 
ATOM     20  O   UNL     1      -0.375  11.600  22.692  0.00  0.00    +0.000 OA
ENDBRANCH   2  12
BRANCH   7  21
ATOM     21  O   UNL     1       5.689   3.290  16.673  0.00  0.00    +0.000 OA
ATOM     22  H   UNL     1       5.886   2.658  17.394  0.00  0.00    +0.000 HD
ENDBRANCH   7  21
BRANCH   8  23
ATOM     23  O   UNL     1       5.177   3.143  19.367  0.00  0.00    +0.000 OA
ATOM     24  H   UNL     1       5.247   2.463  18.676  0.00  0.00    +0.000 HD
ENDBRANCH   8  23
TORSDOF 3
ENDMDL
MODEL 8
REMARK VINA RESULT:      -7.4      2.020      2.758
REMARK  Name = 
REMARK  3 active torsions:
REMARK  status: ('A' for Active; 'I' for Inactive)
REMARK    1  A    between atoms: C_2  and  C_3
REMARK    2  A    between atoms: C_16  and  O_17
REMARK    3  A    between atoms: C_18  and  O_19
REMARK                            x       y       z     vdW  Elec       q    Type
REMARK                         _______ _______ _______ _____ _____    ______ ____
ROOT
ATOM      1  O   UNL     1       3.905   7.846  17.640  0.00  0.00    +0.000 OA
ATOM      2  C   UNL     1       2.842   7.453  18.127  0.00  0.00    +0.000 C 
ATOM      3  N   UNL     1       2.510   6.104  18.196  0.00  0.00    +0.000 N 
ATOM      4  C   UNL     1       3.412   5.086  17.669  0.00  0.00    +0.000 C 
ATOM      5  C   UNL     1       2.469   3.913  17.409  0.00  0.00    +0.000 C 
ATOM      6  C   UNL     1       3.105   2.549  17.210  0.00  0.00    +0.000 C 
ATOM      7  C   UNL     1       3.664   1.948  18.495  0.00  0.00    +0.000 C 
ATOM      8  C   UNL     1       2.627   1.931  19.632  0.00  0.00    +0.000 C 
ATOM      9  C   UNL     1       2.042   3.315  19.889  0.00  0.00    +0.000 C 
ATOM     10  C   UNL     1       1.515   3.977  18.612  0.00  0.00    +0.000 C 
ATOM     11  C   UNL     1       1.333   5.482  18.790  0.00  0.00    +0.000 C 
ENDROOT
BRANCH   2  12
ATOM     12  C   UNL     1       1.919   8.486  18.712  0.00  0.00    +0.000 A 
ATOM     13  C   UNL     1       1.199   9.411  17.930  0.00  0.00    +0.000 A 
ATOM     14  C   UNL     1       0.223  10.239  18.487  0.00  0.00    +0.000 A 
ATOM     15  C   UNL     1       0.064  10.206  19.850  0.00  0.00    +0.000 A 
ATOM     16  C   UNL     1       0.850   9.401  20.657  0.00  0.00    +0.000 A 
ATOM     17  C   UNL     1       1.785   8.532  20.109  0.00  0.00    +0.000 A 
ATOM     18  C   UNL     1       0.561   9.723  22.071  0.00  0.00    +0.000 C 
ATOM     19  C   UNL     1      -0.769  10.460  21.881  0.00  0.00    +0.000 C 
ATOM     20  O   UNL     1      -0.827  10.985  20.535  0.00  0.00    +0.000 OA
ENDBRANCH   2  12
BRANCH   7  21
ATOM     21  O   UNL     1       4.077   0.610  18.215  0.00  0.00    +0.000 OA
ATOM     22  H   UNL     1       3.539   0.038  18.799  0.00  0.00    +0.000 HD
ENDBRANCH   7  21
BRANCH   8  23
ATOM     23  O   UNL     1       1.592   0.988  19.320  0.00  0.00    +0.000 OA
ATOM     24  H   UNL     1       0.990   0.911  20.079  0.00  0.00    +0.000 HD
ENDBRANCH   8  23
TORSDOF 3
ENDMDL
MODEL 9
REMARK VINA RESULT:      -7.4      1.460      7.540
REMARK  Name = 
REMARK  3 active torsions:
REMARK  status: ('A' for Active; 'I' for Inactive)
REMARK    1  A    between atoms: C_2  and  C_3
REMARK    2  A    between atoms: C_16  and  O_17
REMARK    3  A    between atoms: C_18  and  O_19
REMARK                            x       y       z     vdW  Elec       q    Type
REMARK                         _______ _______ _______ _____ _____    ______ ____
ROOT
ATOM      1  O   UNL     1       2.157   8.570  17.034  0.00  0.00    +0.000 OA
ATOM      2  C   UNL     1       2.264   7.946  18.092  0.00  0.00    +0.000 C 
ATOM      3  N   UNL     1       1.831   8.466  19.308  0.00  0.00    +0.000 N 
ATOM      4  C   UNL     1       1.243   9.799  19.382  0.00  0.00    +0.000 C 
ATOM      5  C   UNL     1       1.469  10.177  20.845  0.00  0.00    +0.000 C 
ATOM      6  C   UNL     1       0.658  11.341  21.387  0.00  0.00    +0.000 C 
ATOM      7  C   UNL     1      -0.816  11.008  21.593  0.00  0.00    +0.000 C 
ATOM      8  C   UNL     1      -1.016   9.736  22.434  0.00  0.00    +0.000 C 
ATOM      9  C   UNL     1      -0.267   8.543  21.848  0.00  0.00    +0.000 C 
ATOM     10  C   UNL     1       1.209   8.853  21.577  0.00  0.00    +0.000 C 
ATOM     11  C   UNL     1       1.832   7.837  20.623  0.00  0.00    +0.000 C 
ENDROOT
BRANCH   2  12
ATOM     12  C   UNL     1       2.829   6.555  18.028  0.00  0.00    +0.000 A 
ATOM     13  C   UNL     1       4.207   6.285  17.909  0.00  0.00    +0.000 A 
ATOM     14  C   UNL     1       4.715   4.990  18.027  0.00  0.00    +0.000 A 
ATOM     15  C   UNL     1       3.811   3.964  18.148  0.00  0.00    +0.000 A 
ATOM     16  C   UNL     1       2.445   4.188  18.135  0.00  0.00    +0.000 A 
ATOM     17  C   UNL     1       1.931   5.476  18.076  0.00  0.00    +0.000 A 
ATOM     18  C   UNL     1       1.752   2.881  18.102  0.00  0.00    +0.000 C 
ATOM     19  C   UNL     1       2.912   1.984  18.545  0.00  0.00    +0.000 C 
ATOM     20  O   UNL     1       4.161   2.644  18.237  0.00  0.00    +0.000 OA
ENDBRANCH   2  12
BRANCH   7  21
ATOM     21  O   UNL     1      -1.430  12.113  22.259  0.00  0.00    +0.000 OA
ATOM     22  H   UNL     1      -1.495  12.824  21.589  0.00  0.00    +0.000 HD
ENDBRANCH   7  21
BRANCH   8  23
ATOM     23  O   UNL     1      -0.603   9.985  23.785  0.00  0.00    +0.000 OA
ATOM     24  H   UNL     1       0.363   9.902  23.845  0.00  0.00    +0.000 HD
ENDBRANCH   8  23
TORSDOF 3
ENDMDL
