MODEL 1
REMARK VINA RESULT:      -6.6      0.000      0.000
REMARK  Name = 
REMARK  14 active torsions:
REMARK  status: ('A' for Active; 'I' for Inactive)
REMARK    1  A    between atoms: C_2  and  C_3
REMARK    2  A    between atoms: C_2  and  C_4
REMARK    3  A    between atoms: C_8  and  C_9
REMARK    4  A    between atoms: C_14  and  C_15
REMARK    5  A    between atoms: C_15  and  C_16
REMARK    6  A    between atoms: C_16  and  O_17
REMARK    7  A    between atoms: C_16  and  C_21
REMARK    8  A    between atoms: O_17  and  C_18
REMARK    9  A    between atoms: C_18  and  C_19
REMARK   10  A    between atoms: C_21  and  C_22
REMARK   11  A    between atoms: C_21  and  C_23
REMARK   12  A    between atoms: C_21  and  O_24
REMARK   13  A    between atoms: C_27  and  O_28
REMARK   14  A    between atoms: C_34  and  O_35
REMARK                            x       y       z     vdW  Elec       q    Type
REMARK                         _______ _______ _______ _____ _____    ______ ____
ROOT
ATOM      1  C   UNL     1      -0.149  11.912  18.846  0.00  0.00    +0.000 C 
ATOM      2  C   UNL     1      -0.121  12.240  20.341  0.00  0.00    +0.000 C 
ATOM      3  O   UNL     1      -0.164  11.089  21.188  0.00  0.00    +0.000 OA
ATOM      4  C   UNL     1       0.472   9.953  20.757  0.00  0.00    +0.000 A 
ATOM      5  C   UNL     1       0.433   8.876  21.655  0.00  0.00    +0.000 A 
ATOM      6  C   UNL     1      -0.226   8.959  23.002  0.00  0.00    +0.000 C 
ATOM      7  C   UNL     1       1.084   7.688  21.311  0.00  0.00    +0.000 A 
ATOM      8  C   UNL     1       1.755   7.574  20.095  0.00  0.00    +0.000 A 
ATOM      9  O   UNL     1       2.400   6.382  19.917  0.00  0.00    +0.000 OA
ATOM     10  C   UNL     1       3.254   6.237  18.858  0.00  0.00    +0.000 A 
ATOM     11  C   UNL     1       4.089   5.105  18.880  0.00  0.00    +0.000 A 
ATOM     12  C   UNL     1       4.947   4.886  17.790  0.00  0.00    +0.000 A 
ATOM     13  C   UNL     1       5.003   5.788  16.730  0.00  0.00    +0.000 A 
ATOM     14  C   UNL     1       4.210   6.933  16.752  0.00  0.00    +0.000 A 
ATOM     15  C   UNL     1       3.312   7.155  17.805  0.00  0.00    +0.000 A 
ATOM     16  C   UNL     1       2.442   8.351  17.886  0.00  0.00    +0.000 A 
ATOM     17  O   UNL     1       2.269   9.075  16.917  0.00  0.00    +0.000 OA
ATOM     18  C   UNL     1       1.753   8.621  19.174  0.00  0.00    +0.000 A 
ATOM     19  C   UNL     1       1.106   9.838  19.500  0.00  0.00    +0.000 A 
ATOM     20  C   UNL     1       1.099  11.045  18.590  0.00  0.00    +0.000 C 
ENDROOT
BRANCH   1  22
ATOM     21  C   UNL     1      -1.517  10.294  17.410  0.00  0.00    +0.000 C 
ATOM     22  C   UNL     1      -1.454  11.298  18.304  0.00  0.00    +0.000 C 
ATOM     23  C   UNL     1      -2.735  11.868  18.862  0.00  0.00    +0.000 C 
ENDBRANCH   1  22
BRANCH  14  24
ATOM     24  O   UNL     1       4.359   7.845  15.747  0.00  0.00    +0.000 OA
ATOM     25  H   UNL     1       4.949   8.561  16.026  0.00  0.00    +0.000 HD
ENDBRANCH  14  24
BRANCH  20  26
ATOM     26  O   UNL     1       2.269  11.844  18.830  0.00  0.00    +0.000 OA
ATOM     27  H   UNL     1       3.044  11.259  18.831  0.00  0.00    +0.000 HD
ENDBRANCH  20  26
BRANCH  11  28
ATOM     28  C   UNL     1       4.231   4.207  20.097  0.00  0.00    +0.000 C 
BRANCH  28  29
ATOM     29  C   UNL     1       3.221   3.066  20.368  0.00  0.00    +0.000 C 
BRANCH  29  30
ATOM     30  C   UNL     1       1.998   3.415  21.276  0.00  0.00    +0.000 C 
ATOM     31  C   UNL     1       0.762   3.852  20.485  0.00  0.00    +0.000 C 
ATOM     32  C   UNL     1       1.627   2.285  22.236  0.00  0.00    +0.000 C 
BRANCH  30  33
ATOM     33  O   UNL     1       2.359   4.535  22.111  0.00  0.00    +0.000 OA
ATOM     34  H   UNL     1       2.676   5.254  21.537  0.00  0.00    +0.000 HD
ENDBRANCH  30  33
ENDBRANCH  29  30
BRANCH  29  35
ATOM     35  O   UNL     1       2.742   2.406  19.139  0.00  0.00    +0.000 OA
BRANCH  35  36
ATOM     36  C   UNL     1       3.516   1.614  18.356  0.00  0.00    +0.000 C 
ATOM     37  C   UNL     1       3.382   1.992  16.910  0.00  0.00    +0.000 C 
ATOM     38  O   UNL     1       4.254   0.717  18.738  0.00  0.00    +0.000 OA
ENDBRANCH  35  36
ENDBRANCH  29  35
ENDBRANCH  28  29
ENDBRANCH  11  28
TORSDOF 9
ENDMDL
MODEL 2
REMARK VINA RESULT:      -6.5      5.665      9.356
REMARK  Name = 
REMARK  14 active torsions:
REMARK  status: ('A' for Active; 'I' for Inactive)
REMARK    1  A    between atoms: C_2  and  C_3
REMARK    2  A    between atoms: C_2  and  C_4
REMARK    3  A    between atoms: C_8  and  C_9
REMARK    4  A    between atoms: C_14  and  C_15
REMARK    5  A    between atoms: C_15  and  C_16
REMARK    6  A    between atoms: C_16  and  O_17
REMARK    7  A    between atoms: C_16  and  C_21
REMARK    8  A    between atoms: O_17  and  C_18
REMARK    9  A    between atoms: C_18  and  C_19
REMARK   10  A    between atoms: C_21  and  C_22
REMARK   11  A    between atoms: C_21  and  C_23
REMARK   12  A    between atoms: C_21  and  O_24
REMARK   13  A    between atoms: C_27  and  O_28
REMARK   14  A    between atoms: C_34  and  O_35
REMARK                            x       y       z     vdW  Elec       q    Type
REMARK                         _______ _______ _______ _____ _____    ______ ____
ROOT
ATOM      1  C   UNL     1      -6.957  11.120  18.475  0.00  0.00    +0.000 C 
ATOM      2  C   UNL     1      -7.536  12.538  18.497  0.00  0.00    +0.000 C 
ATOM      3  O   UNL     1      -6.920  13.402  19.454  0.00  0.00    +0.000 OA
ATOM      4  C   UNL     1      -5.578  13.242  19.690  0.00  0.00    +0.000 A 
ATOM      5  C   UNL     1      -5.026  14.152  20.604  0.00  0.00    +0.000 A 
ATOM      6  C   UNL     1      -5.826  15.242  21.257  0.00  0.00    +0.000 C 
ATOM      7  C   UNL     1      -3.657  14.081  20.880  0.00  0.00    +0.000 A 
ATOM      8  C   UNL     1      -2.858  13.121  20.262  0.00  0.00    +0.000 A 
ATOM      9  O   UNL     1      -1.530  13.209  20.574  0.00  0.00    +0.000 OA
ATOM     10  C   UNL     1      -0.629  12.453  19.875  0.00  0.00    +0.000 A 
ATOM     11  C   UNL     1       0.728  12.783  20.046  0.00  0.00    +0.000 A 
ATOM     12  C   UNL     1       1.694  12.004  19.387  0.00  0.00    +0.000 A 
ATOM     13  C   UNL     1       1.318  10.954  18.552  0.00  0.00    +0.000 A 
ATOM     14  C   UNL     1      -0.032  10.678  18.350  0.00  0.00    +0.000 A 
ATOM     15  C   UNL     1      -1.016  11.410  19.029  0.00  0.00    +0.000 A 
ATOM     16  C   UNL     1      -2.466  11.165  18.857  0.00  0.00    +0.000 A 
ATOM     17  O   UNL     1      -2.878  10.146  18.321  0.00  0.00    +0.000 OA
ATOM     18  C   UNL     1      -3.409  12.179  19.394  0.00  0.00    +0.000 A 
ATOM     19  C   UNL     1      -4.792  12.231  19.093  0.00  0.00    +0.000 A 
ATOM     20  C   UNL     1      -5.467  11.290  18.123  0.00  0.00    +0.000 C 
ENDROOT
BRANCH   1  22
ATOM     21  C   UNL     1      -7.752  10.712  20.874  0.00  0.00    +0.000 C 
ATOM     22  C   UNL     1      -7.206  10.261  19.730  0.00  0.00    +0.000 C 
ATOM     23  C   UNL     1      -6.824   8.804  19.620  0.00  0.00    +0.000 C 
ENDBRANCH   1  22
BRANCH  14  24
ATOM     24  O   UNL     1      -0.368   9.707  17.451  0.00  0.00    +0.000 OA
ATOM     25  H   UNL     1      -1.316   9.745  17.253  0.00  0.00    +0.000 HD
ENDBRANCH  14  24
BRANCH  20  26
ATOM     26  O   UNL     1      -5.368  11.811  16.788  0.00  0.00    +0.000 OA
ATOM     27  H   UNL     1      -4.435  12.002  16.601  0.00  0.00    +0.000 HD
ENDBRANCH  20  26
BRANCH  11  28
ATOM     28  C   UNL     1       1.189  14.040  20.764  0.00  0.00    +0.000 C 
BRANCH  28  29
ATOM     29  C   UNL     1       1.435  15.356  19.989  0.00  0.00    +0.000 C 
BRANCH  29  30
ATOM     30  C   UNL     1       2.891  15.609  19.482  0.00  0.00    +0.000 C 
ATOM     31  C   UNL     1       3.096  15.233  18.012  0.00  0.00    +0.000 C 
ATOM     32  C   UNL     1       3.366  17.043  19.722  0.00  0.00    +0.000 C 
BRANCH  30  33
ATOM     33  O   UNL     1       3.787  14.769  20.241  0.00  0.00    +0.000 OA
ATOM     34  H   UNL     1       4.133  15.290  20.987  0.00  0.00    +0.000 HD
ENDBRANCH  30  33
ENDBRANCH  29  30
BRANCH  29  35
ATOM     35  O   UNL     1       0.490  15.563  18.875  0.00  0.00    +0.000 OA
BRANCH  35  36
ATOM     36  C   UNL     1      -0.492  16.498  18.882  0.00  0.00    +0.000 C 
ATOM     37  C   UNL     1      -0.268  17.522  17.807  0.00  0.00    +0.000 C 
ATOM     38  O   UNL     1      -1.458  16.529  19.631  0.00  0.00    +0.000 OA
ENDBRANCH  35  36
ENDBRANCH  29  35
ENDBRANCH  28  29
ENDBRANCH  11  28
TORSDOF 9
ENDMDL
MODEL 3
REMARK VINA RESULT:      -6.3      2.275      8.825
REMARK  Name = 
REMARK  14 active torsions:
REMARK  status: ('A' for Active; 'I' for Inactive)
REMARK    1  A    between atoms: C_2  and  C_3
REMARK    2  A    between atoms: C_2  and  C_4
REMARK    3  A    between atoms: C_8  and  C_9
REMARK    4  A    between atoms: C_14  and  C_15
REMARK    5  A    between atoms: C_15  and  C_16
REMARK    6  A    between atoms: C_16  and  O_17
REMARK    7  A    between atoms: C_16  and  C_21
REMARK    8  A    between atoms: O_17  and  C_18
REMARK    9  A    between atoms: C_18  and  C_19
REMARK   10  A    between atoms: C_21  and  C_22
REMARK   11  A    between atoms: C_21  and  C_23
REMARK   12  A    between atoms: C_21  and  O_24
REMARK   13  A    between atoms: C_27  and  O_28
REMARK   14  A    between atoms: C_34  and  O_35
REMARK                            x       y       z     vdW  Elec       q    Type
REMARK                         _______ _______ _______ _____ _____    ______ ____
ROOT
ATOM      1  C   UNL     1       2.911   3.252  19.741  0.00  0.00    +0.000 C 
ATOM      2  C   UNL     1       4.373   3.303  19.288  0.00  0.00    +0.000 C 
ATOM      3  O   UNL     1       4.641   4.303  18.303  0.00  0.00    +0.000 OA
ATOM      4  C   UNL     1       3.940   5.479  18.378  0.00  0.00    +0.000 A 
ATOM      5  C   UNL     1       4.284   6.435  17.411  0.00  0.00    +0.000 A 
ATOM      6  C   UNL     1       5.358   6.211  16.386  0.00  0.00    +0.000 C 
ATOM      7  C   UNL     1       3.641   7.677  17.433  0.00  0.00    +0.000 A 
ATOM      8  C   UNL     1       2.673   7.956  18.395  0.00  0.00    +0.000 A 
ATOM      9  O   UNL     1       2.175   9.228  18.340  0.00  0.00    +0.000 OA
ATOM     10  C   UNL     1       1.374   9.676  19.354  0.00  0.00    +0.000 A 
ATOM     11  C   UNL     1       1.120  11.060  19.385  0.00  0.00    +0.000 A 
ATOM     12  C   UNL     1       0.262  11.560  20.378  0.00  0.00    +0.000 A 
ATOM     13  C   UNL     1      -0.293  10.716  21.337  0.00  0.00    +0.000 A 
ATOM     14  C   UNL     1       0.015   9.357  21.325  0.00  0.00    +0.000 A 
ATOM     15  C   UNL     1       0.832   8.823  20.320  0.00  0.00    +0.000 A 
ATOM     16  C   UNL     1       1.195   7.389  20.252  0.00  0.00    +0.000 A 
ATOM     17  O   UNL     1       0.596   6.551  20.911  0.00  0.00    +0.000 OA
ATOM     18  C   UNL     1       2.287   6.993  19.326  0.00  0.00    +0.000 A 
ATOM     19  C   UNL     1       2.926   5.729  19.330  0.00  0.00    +0.000 A 
ATOM     20  C   UNL     1       2.615   4.643  20.334  0.00  0.00    +0.000 C 
ENDROOT
BRANCH   1  22
ATOM     21  C   UNL     1       2.197   2.280  17.484  0.00  0.00    +0.000 C 
ATOM     22  C   UNL     1       1.884   2.793  18.688  0.00  0.00    +0.000 C 
ATOM     23  C   UNL     1       0.432   2.915  19.083  0.00  0.00    +0.000 C 
ENDBRANCH   1  22
BRANCH  14  24
ATOM     24  O   UNL     1      -0.466   8.575  22.335  0.00  0.00    +0.000 OA
ATOM     25  H   UNL     1       0.232   8.392  22.982  0.00  0.00    +0.000 HD
ENDBRANCH  14  24
BRANCH  20  26
ATOM     26  O   UNL     1       3.420   4.821  21.510  0.00  0.00    +0.000 OA
ATOM     27  H   UNL     1       2.869   5.229  22.199  0.00  0.00    +0.000 HD
ENDBRANCH  20  26
BRANCH  11  28
ATOM     28  C   UNL     1       1.860  12.055  18.508  0.00  0.00    +0.000 C 
BRANCH  28  29
ATOM     29  C   UNL     1       1.983  13.542  18.919  0.00  0.00    +0.000 C 
BRANCH  29  30
ATOM     30  C   UNL     1       3.309  14.270  18.525  0.00  0.00    +0.000 C 
ATOM     31  C   UNL     1       3.087  15.478  17.610  0.00  0.00    +0.000 C 
ATOM     32  C   UNL     1       4.146  14.683  19.736  0.00  0.00    +0.000 C 
BRANCH  30  33
ATOM     33  O   UNL     1       4.129  13.346  17.779  0.00  0.00    +0.000 OA
ATOM     34  H   UNL     1       5.059  13.612  17.883  0.00  0.00    +0.000 HD
ENDBRANCH  30  33
ENDBRANCH  29  30
BRANCH  29  35
ATOM     35  O   UNL     1       0.833  14.363  18.496  0.00  0.00    +0.000 OA
BRANCH  35  36
ATOM     36  C   UNL     1       0.175  15.219  19.315  0.00  0.00    +0.000 C 
ATOM     37  C   UNL     1      -0.440  16.345  18.535  0.00  0.00    +0.000 C 
ATOM     38  O   UNL     1       0.056  15.116  20.528  0.00  0.00    +0.000 OA
ENDBRANCH  35  36
ENDBRANCH  29  35
ENDBRANCH  28  29
ENDBRANCH  11  28
TORSDOF 9
ENDMDL
MODEL 4
REMARK VINA RESULT:      -6.3      1.031      2.192
REMARK  Name = 
REMARK  14 active torsions:
REMARK  status: ('A' for Active; 'I' for Inactive)
REMARK    1  A    between atoms: C_2  and  C_3
REMARK    2  A    between atoms: C_2  and  C_4
REMARK    3  A    between atoms: C_8  and  C_9
REMARK    4  A    between atoms: C_14  and  C_15
REMARK    5  A    between atoms: C_15  and  C_16
REMARK    6  A    between atoms: C_16  and  O_17
REMARK    7  A    between atoms: C_16  and  C_21
REMARK    8  A    between atoms: O_17  and  C_18
REMARK    9  A    between atoms: C_18  and  C_19
REMARK   10  A    between atoms: C_21  and  C_22
REMARK   11  A    between atoms: C_21  and  C_23
REMARK   12  A    between atoms: C_21  and  O_24
REMARK   13  A    between atoms: C_27  and  O_28
REMARK   14  A    between atoms: C_34  and  O_35
REMARK                            x       y       z     vdW  Elec       q    Type
REMARK                         _______ _______ _______ _____ _____    ______ ____
ROOT
ATOM      1  C   UNL     1      -0.445  12.222  19.016  0.00  0.00    +0.000 C 
ATOM      2  C   UNL     1      -0.375  12.600  20.498  0.00  0.00    +0.000 C 
ATOM      3  O   UNL     1      -0.402  11.480  21.385  0.00  0.00    +0.000 OA
ATOM      4  C   UNL     1       0.215  10.325  20.977  0.00  0.00    +0.000 A 
ATOM      5  C   UNL     1       0.192   9.280  21.912  0.00  0.00    +0.000 A 
ATOM      6  C   UNL     1      -0.430   9.414  23.273  0.00  0.00    +0.000 C 
ATOM      7  C   UNL     1       0.825   8.075  21.592  0.00  0.00    +0.000 A 
ATOM      8  C   UNL     1       1.462   7.915  20.363  0.00  0.00    +0.000 A 
ATOM      9  O   UNL     1       2.095   6.713  20.209  0.00  0.00    +0.000 OA
ATOM     10  C   UNL     1       2.918   6.525  19.134  0.00  0.00    +0.000 A 
ATOM     11  C   UNL     1       3.746   5.388  19.172  0.00  0.00    +0.000 A 
ATOM     12  C   UNL     1       4.574   5.125  18.068  0.00  0.00    +0.000 A 
ATOM     13  C   UNL     1       4.606   5.990  16.976  0.00  0.00    +0.000 A 
ATOM     14  C   UNL     1       3.822   7.141  16.980  0.00  0.00    +0.000 A 
ATOM     15  C   UNL     1       2.954   7.405  18.048  0.00  0.00    +0.000 A 
ATOM     16  C   UNL     1       2.095   8.610  18.111  0.00  0.00    +0.000 A 
ATOM     17  O   UNL     1       1.901   9.302  17.122  0.00  0.00    +0.000 OA
ATOM     18  C   UNL     1       1.443   8.930  19.407  0.00  0.00    +0.000 A 
ATOM     19  C   UNL     1       0.813  10.162  19.708  0.00  0.00    +0.000 A 
ATOM     20  C   UNL     1       0.790  11.337  18.758  0.00  0.00    +0.000 C 
ENDROOT
BRANCH   1  22
ATOM     21  C   UNL     1      -2.992  11.982  18.940  0.00  0.00    +0.000 C 
ATOM     22  C   UNL     1      -1.768  11.599  18.531  0.00  0.00    +0.000 C 
ATOM     23  C   UNL     1      -1.645  10.504  17.500  0.00  0.00    +0.000 C 
ENDBRANCH   1  22
BRANCH  14  24
ATOM     24  O   UNL     1       3.950   8.016  15.940  0.00  0.00    +0.000 OA
ATOM     25  H   UNL     1       3.560   7.642  15.135  0.00  0.00    +0.000 HD
ENDBRANCH  14  24
BRANCH  20  26
ATOM     26  O   UNL     1       1.971  12.135  18.938  0.00  0.00    +0.000 OA
ATOM     27  H   UNL     1       1.824  12.733  19.689  0.00  0.00    +0.000 HD
ENDBRANCH  20  26
BRANCH  11  28
ATOM     28  C   UNL     1       3.916   4.531  20.416  0.00  0.00    +0.000 C 
BRANCH  28  29
ATOM     29  C   UNL     1       3.409   3.069  20.451  0.00  0.00    +0.000 C 
BRANCH  29  30
ATOM     30  C   UNL     1       4.443   1.960  20.075  0.00  0.00    +0.000 C 
ATOM     31  C   UNL     1       4.961   1.179  21.285  0.00  0.00    +0.000 C 
ATOM     32  C   UNL     1       3.919   0.989  19.016  0.00  0.00    +0.000 C 
BRANCH  30  33
ATOM     33  O   UNL     1       5.596   2.598  19.483  0.00  0.00    +0.000 OA
ATOM     34  H   UNL     1       5.331   3.483  19.178  0.00  0.00    +0.000 HD
ENDBRANCH  30  33
ENDBRANCH  29  30
BRANCH  29  35
ATOM     35  O   UNL     1       2.751   2.709  21.721  0.00  0.00    +0.000 OA
BRANCH  35  36
ATOM     36  C   UNL     1       1.414   2.523  21.852  0.00  0.00    +0.000 C 
ATOM     37  C   UNL     1       0.681   3.002  20.633  0.00  0.00    +0.000 C 
ATOM     38  O   UNL     1       0.843   2.018  22.809  0.00  0.00    +0.000 OA
ENDBRANCH  35  36
ENDBRANCH  29  35
ENDBRANCH  28  29
ENDBRANCH  11  28
TORSDOF 9
ENDMDL
MODEL 5
REMARK VINA RESULT:      -6.3      2.223      8.698
REMARK  Name = 
REMARK  14 active torsions:
REMARK  status: ('A' for Active; 'I' for Inactive)
REMARK    1  A    between atoms: C_2  and  C_3
REMARK    2  A    between atoms: C_2  and  C_4
REMARK    3  A    between atoms: C_8  and  C_9
REMARK    4  A    between atoms: C_14  and  C_15
REMARK    5  A    between atoms: C_15  and  C_16
REMARK    6  A    between atoms: C_16  and  O_17
REMARK    7  A    between atoms: C_16  and  C_21
REMARK    8  A    between atoms: O_17  and  C_18
REMARK    9  A    between atoms: C_18  and  C_19
REMARK   10  A    between atoms: C_21  and  C_22
REMARK   11  A    between atoms: C_21  and  C_23
REMARK   12  A    between atoms: C_21  and  O_24
REMARK   13  A    between atoms: C_27  and  O_28
REMARK   14  A    between atoms: C_34  and  O_35
REMARK                            x       y       z     vdW  Elec       q    Type
REMARK                         _______ _______ _______ _____ _____    ______ ____
ROOT
ATOM      1  C   UNL     1       2.902   3.283  19.704  0.00  0.00    +0.000 C 
ATOM      2  C   UNL     1       4.348   3.427  19.221  0.00  0.00    +0.000 C 
ATOM      3  O   UNL     1       4.543   4.489  18.284  0.00  0.00    +0.000 OA
ATOM      4  C   UNL     1       3.791   5.625  18.439  0.00  0.00    +0.000 A 
ATOM      5  C   UNL     1       4.065   6.646  17.517  0.00  0.00    +0.000 A 
ATOM      6  C   UNL     1       5.122   6.527  16.456  0.00  0.00    +0.000 C 
ATOM      7  C   UNL     1       3.366   7.853  17.620  0.00  0.00    +0.000 A 
ATOM      8  C   UNL     1       2.411   8.035  18.618  0.00  0.00    +0.000 A 
ATOM      9  O   UNL     1       1.853   9.283  18.642  0.00  0.00    +0.000 OA
ATOM     10  C   UNL     1       1.059   9.638  19.697  0.00  0.00    +0.000 A 
ATOM     11  C   UNL     1       0.742  11.004  19.808  0.00  0.00    +0.000 A 
ATOM     12  C   UNL     1      -0.112  11.411  20.846  0.00  0.00    +0.000 A 
ATOM     13  C   UNL     1      -0.602  10.491  21.771  0.00  0.00    +0.000 A 
ATOM     14  C   UNL     1      -0.232   9.152  21.680  0.00  0.00    +0.000 A 
ATOM     15  C   UNL     1       0.582   8.710  20.628  0.00  0.00    +0.000 A 
ATOM     16  C   UNL     1       1.010   7.300  20.476  0.00  0.00    +0.000 A 
ATOM     17  O   UNL     1       0.467   6.402  21.103  0.00  0.00    +0.000 OA
ATOM     18  C   UNL     1       2.095   7.007  19.505  0.00  0.00    +0.000 A 
ATOM     19  C   UNL     1       2.791   5.776  19.426  0.00  0.00    +0.000 A 
ATOM     20  C   UNL     1       2.557   4.626  20.377  0.00  0.00    +0.000 C 
ENDROOT
BRANCH   1  22
ATOM     21  C   UNL     1       0.536   2.908  18.803  0.00  0.00    +0.000 C 
ATOM     22  C   UNL     1       1.871   2.831  18.652  0.00  0.00    +0.000 C 
ATOM     23  C   UNL     1       2.436   2.297  17.358  0.00  0.00    +0.000 C 
ENDBRANCH   1  22
BRANCH  14  24
ATOM     24  O   UNL     1      -0.651   8.295  22.657  0.00  0.00    +0.000 OA
ATOM     25  H   UNL     1      -0.767   7.403  22.296  0.00  0.00    +0.000 HD
ENDBRANCH  14  24
BRANCH  20  26
ATOM     26  O   UNL     1       3.383   4.780  21.542  0.00  0.00    +0.000 OA
ATOM     27  H   UNL     1       2.923   4.379  22.298  0.00  0.00    +0.000 HD
ENDBRANCH  20  26
BRANCH  11  28
ATOM     28  C   UNL     1       1.412  12.078  18.969  0.00  0.00    +0.000 C 
BRANCH  28  29
ATOM     29  C   UNL     1       1.680  13.489  19.546  0.00  0.00    +0.000 C 
BRANCH  29  30
ATOM     30  C   UNL     1       0.534  14.539  19.390  0.00  0.00    +0.000 C 
ATOM     31  C   UNL     1      -0.231  14.800  20.691  0.00  0.00    +0.000 C 
ATOM     32  C   UNL     1       1.014  15.864  18.796  0.00  0.00    +0.000 C 
BRANCH  30  33
ATOM     33  O   UNL     1      -0.433  14.018  18.452  0.00  0.00    +0.000 OA
ATOM     34  H   UNL     1      -0.772  13.176  18.801  0.00  0.00    +0.000 HD
ENDBRANCH  30  33
ENDBRANCH  29  30
BRANCH  29  35
ATOM     35  O   UNL     1       2.134  13.470  20.950  0.00  0.00    +0.000 OA
BRANCH  35  36
ATOM     36  C   UNL     1       3.102  14.282  21.441  0.00  0.00    +0.000 C 
ATOM     37  C   UNL     1       4.136  14.582  20.396  0.00  0.00    +0.000 C 
ATOM     38  O   UNL     1       3.153  14.747  22.572  0.00  0.00    +0.000 OA
ENDBRANCH  35  36
ENDBRANCH  29  35
ENDBRANCH  28  29
ENDBRANCH  11  28
TORSDOF 9
ENDMDL
MODEL 6
REMARK VINA RESULT:      -6.3      2.264      8.803
REMARK  Name = 
REMARK  14 active torsions:
REMARK  status: ('A' for Active; 'I' for Inactive)
REMARK    1  A    between atoms: C_2  and  C_3
REMARK    2  A    between atoms: C_2  and  C_4
REMARK    3  A    between atoms: C_8  and  C_9
REMARK    4  A    between atoms: C_14  and  C_15
REMARK    5  A    between atoms: C_15  and  C_16
REMARK    6  A    between atoms: C_16  and  O_17
REMARK    7  A    between atoms: C_16  and  C_21
REMARK    8  A    between atoms: O_17  and  C_18
REMARK    9  A    between atoms: C_18  and  C_19
REMARK   10  A    between atoms: C_21  and  C_22
REMARK   11  A    between atoms: C_21  and  C_23
REMARK   12  A    between atoms: C_21  and  O_24
REMARK   13  A    between atoms: C_27  and  O_28
REMARK   14  A    between atoms: C_34  and  O_35
REMARK                            x       y       z     vdW  Elec       q    Type
REMARK                         _______ _______ _______ _____ _____    ______ ____
ROOT
ATOM      1  C   UNL     1       2.781   3.378  19.782  0.00  0.00    +0.000 C 
ATOM      2  C   UNL     1       4.231   3.490  19.302  0.00  0.00    +0.000 C 
ATOM      3  O   UNL     1       4.450   4.538  18.356  0.00  0.00    +0.000 OA
ATOM      4  C   UNL     1       3.718   5.690  18.495  0.00  0.00    +0.000 A 
ATOM      5  C   UNL     1       4.015   6.696  17.564  0.00  0.00    +0.000 A 
ATOM      6  C   UNL     1       5.073   6.546  16.508  0.00  0.00    +0.000 C 
ATOM      7  C   UNL     1       3.339   7.916  17.652  0.00  0.00    +0.000 A 
ATOM      8  C   UNL     1       2.384   8.127  18.645  0.00  0.00    +0.000 A 
ATOM      9  O   UNL     1       1.850   9.385  18.654  0.00  0.00    +0.000 OA
ATOM     10  C   UNL     1       1.058   9.767  19.702  0.00  0.00    +0.000 A 
ATOM     11  C   UNL     1       0.767  11.140  19.798  0.00  0.00    +0.000 A 
ATOM     12  C   UNL     1      -0.083  11.573  20.829  0.00  0.00    +0.000 A 
ATOM     13  C   UNL     1      -0.594  10.673  21.761  0.00  0.00    +0.000 A 
ATOM     14  C   UNL     1      -0.248   9.326  21.685  0.00  0.00    +0.000 A 
ATOM     15  C   UNL     1       0.561   8.858  20.641  0.00  0.00    +0.000 A 
ATOM     16  C   UNL     1       0.962   7.439  20.505  0.00  0.00    +0.000 A 
ATOM     17  O   UNL     1       0.401   6.558  21.139  0.00  0.00    +0.000 OA
ATOM     18  C   UNL     1       2.045   7.114  19.541  0.00  0.00    +0.000 A 
ATOM     19  C   UNL     1       2.718   5.870  19.477  0.00  0.00    +0.000 A 
ATOM     20  C   UNL     1       2.459   4.734  20.440  0.00  0.00    +0.000 C 
ENDROOT
BRANCH   1  22
ATOM     21  C   UNL     1       0.411   2.984  18.900  0.00  0.00    +0.000 C 
ATOM     22  C   UNL     1       1.745   2.935  18.731  0.00  0.00    +0.000 C 
ATOM     23  C   UNL     1       2.304   2.445  17.417  0.00  0.00    +0.000 C 
ENDBRANCH   1  22
BRANCH  14  24
ATOM     24  O   UNL     1      -0.687   8.488  22.670  0.00  0.00    +0.000 OA
ATOM     25  H   UNL     1       0.034   8.286  23.286  0.00  0.00    +0.000 HD
ENDBRANCH  14  24
BRANCH  20  26
ATOM     26  O   UNL     1       3.283   4.885  21.606  0.00  0.00    +0.000 OA
ATOM     27  H   UNL     1       4.183   4.596  21.384  0.00  0.00    +0.000 HD
ENDBRANCH  20  26
BRANCH  11  28
ATOM     28  C   UNL     1       1.461  12.192  18.950  0.00  0.00    +0.000 C 
BRANCH  28  29
ATOM     29  C   UNL     1       2.064  13.464  19.594  0.00  0.00    +0.000 C 
BRANCH  29  30
ATOM     30  C   UNL     1       3.171  14.205  18.777  0.00  0.00    +0.000 C 
ATOM     31  C   UNL     1       2.633  15.377  17.952  0.00  0.00    +0.000 C 
ATOM     32  C   UNL     1       4.339  14.674  19.645  0.00  0.00    +0.000 C 
BRANCH  30  33
ATOM     33  O   UNL     1       3.736  13.273  17.831  0.00  0.00    +0.000 OA
ATOM     34  H   UNL     1       3.443  12.377  18.074  0.00  0.00    +0.000 HD
ENDBRANCH  30  33
ENDBRANCH  29  30
BRANCH  29  35
ATOM     35  O   UNL     1       1.045  14.438  20.028  0.00  0.00    +0.000 OA
BRANCH  35  36
ATOM     36  C   UNL     1       1.008  14.992  21.265  0.00  0.00    +0.000 C 
ATOM     37  C   UNL     1       0.320  16.325  21.238  0.00  0.00    +0.000 C 
ATOM     38  O   UNL     1       1.445  14.496  22.294  0.00  0.00    +0.000 OA
ENDBRANCH  35  36
ENDBRANCH  29  35
ENDBRANCH  28  29
ENDBRANCH  11  28
TORSDOF 9
ENDMDL
MODEL 7
REMARK VINA RESULT:      -6.2      0.920      1.079
REMARK  Name = 
REMARK  14 active torsions:
REMARK  status: ('A' for Active; 'I' for Inactive)
REMARK    1  A    between atoms: C_2  and  C_3
REMARK    2  A    between atoms: C_2  and  C_4
REMARK    3  A    between atoms: C_8  and  C_9
REMARK    4  A    between atoms: C_14  and  C_15
REMARK    5  A    between atoms: C_15  and  C_16
REMARK    6  A    between atoms: C_16  and  O_17
REMARK    7  A    between atoms: C_16  and  C_21
REMARK    8  A    between atoms: O_17  and  C_18
REMARK    9  A    between atoms: C_18  and  C_19
REMARK   10  A    between atoms: C_21  and  C_22
REMARK   11  A    between atoms: C_21  and  C_23
REMARK   12  A    between atoms: C_21  and  O_24
REMARK   13  A    between atoms: C_27  and  O_28
REMARK   14  A    between atoms: C_34  and  O_35
REMARK                            x       y       z     vdW  Elec       q    Type
REMARK                         _______ _______ _______ _____ _____    ______ ____
ROOT
ATOM      1  C   UNL     1      -0.231  12.559  19.116  0.00  0.00    +0.000 C 
ATOM      2  C   UNL     1      -0.162  12.914  20.605  0.00  0.00    +0.000 C 
ATOM      3  O   UNL     1      -0.280  11.788  21.476  0.00  0.00    +0.000 OA
ATOM      4  C   UNL     1       0.266  10.599  21.064  0.00  0.00    +0.000 A 
ATOM      5  C   UNL     1       0.158   9.547  21.985  0.00  0.00    +0.000 A 
ATOM      6  C   UNL     1      -0.478   9.706  23.336  0.00  0.00    +0.000 C 
ATOM      7  C   UNL     1       0.715   8.307  21.660  0.00  0.00    +0.000 A 
ATOM      8  C   UNL     1       1.362   8.119  20.440  0.00  0.00    +0.000 A 
ATOM      9  O   UNL     1       1.916   6.879  20.282  0.00  0.00    +0.000 OA
ATOM     10  C   UNL     1       2.745   6.649  19.218  0.00  0.00    +0.000 A 
ATOM     11  C   UNL     1       3.495   5.460  19.256  0.00  0.00    +0.000 A 
ATOM     12  C   UNL     1       4.322   5.155  18.163  0.00  0.00    +0.000 A 
ATOM     13  C   UNL     1       4.432   6.029  17.083  0.00  0.00    +0.000 A 
ATOM     14  C   UNL     1       3.726   7.229  17.089  0.00  0.00    +0.000 A 
ATOM     15  C   UNL     1       2.859   7.538  18.145  0.00  0.00    +0.000 A 
ATOM     16  C   UNL     1       2.080   8.797  18.209  0.00  0.00    +0.000 A 
ATOM     17  O   UNL     1       1.950   9.512  17.226  0.00  0.00    +0.000 OA
ATOM     18  C   UNL     1       1.428   9.144  19.497  0.00  0.00    +0.000 A 
ATOM     19  C   UNL     1       0.876  10.412  19.803  0.00  0.00    +0.000 A 
ATOM     20  C   UNL     1       0.947  11.597  18.868  0.00  0.00    +0.000 C 
ENDROOT
BRANCH   1  22
ATOM     21  C   UNL     1      -1.758  11.368  17.443  0.00  0.00    +0.000 C 
ATOM     22  C   UNL     1      -1.583  12.032  18.601  0.00  0.00    +0.000 C 
ATOM     23  C   UNL     1      -2.772  12.269  19.501  0.00  0.00    +0.000 C 
ENDBRANCH   1  22
BRANCH  14  24
ATOM     24  O   UNL     1       3.931   8.106  16.062  0.00  0.00    +0.000 OA
ATOM     25  H   UNL     1       4.837   8.028  15.727  0.00  0.00    +0.000 HD
ENDBRANCH  14  24
BRANCH  20  26
ATOM     26  O   UNL     1       2.175  12.312  19.079  0.00  0.00    +0.000 OA
ATOM     27  H   UNL     1       2.790  11.731  19.557  0.00  0.00    +0.000 HD
ENDBRANCH  20  26
BRANCH  11  28
ATOM     28  C   UNL     1       3.584   4.579  20.491  0.00  0.00    +0.000 C 
BRANCH  28  29
ATOM     29  C   UNL     1       2.967   3.160  20.503  0.00  0.00    +0.000 C 
BRANCH  29  30
ATOM     30  C   UNL     1       1.427   3.068  20.749  0.00  0.00    +0.000 C 
ATOM     31  C   UNL     1       0.662   2.451  19.575  0.00  0.00    +0.000 C 
ATOM     32  C   UNL     1       1.071   2.334  22.042  0.00  0.00    +0.000 C 
BRANCH  30  33
ATOM     33  O   UNL     1       0.913   4.407  20.906  0.00  0.00    +0.000 OA
ATOM     34  H   UNL     1       1.010   4.664  21.839  0.00  0.00    +0.000 HD
ENDBRANCH  30  33
ENDBRANCH  29  30
BRANCH  29  35
ATOM     35  O   UNL     1       3.319   2.359  19.316  0.00  0.00    +0.000 OA
BRANCH  35  36
ATOM     36  C   UNL     1       4.235   1.359  19.323  0.00  0.00    +0.000 C 
ATOM     37  C   UNL     1       5.027   1.363  20.598  0.00  0.00    +0.000 C 
ATOM     38  O   UNL     1       4.411   0.531  18.440  0.00  0.00    +0.000 OA
ENDBRANCH  35  36
ENDBRANCH  29  35
ENDBRANCH  28  29
ENDBRANCH  11  28
TORSDOF 9
ENDMDL
MODEL 8
REMARK VINA RESULT:      -6.2      2.265      8.852
REMARK  Name = 
REMARK  14 active torsions:
REMARK  status: ('A' for Active; 'I' for Inactive)
REMARK    1  A    between atoms: C_2  and  C_3
REMARK    2  A    between atoms: C_2  and  C_4
REMARK    3  A    between atoms: C_8  and  C_9
REMARK    4  A    between atoms: C_14  and  C_15
REMARK    5  A    between atoms: C_15  and  C_16
REMARK    6  A    between atoms: C_16  and  O_17
REMARK    7  A    between atoms: C_16  and  C_21
REMARK    8  A    between atoms: O_17  and  C_18
REMARK    9  A    between atoms: C_18  and  C_19
REMARK   10  A    between atoms: C_21  and  C_22
REMARK   11  A    between atoms: C_21  and  C_23
REMARK   12  A    between atoms: C_21  and  O_24
REMARK   13  A    between atoms: C_27  and  O_28
REMARK   14  A    between atoms: C_34  and  O_35
REMARK                            x       y       z     vdW  Elec       q    Type
REMARK                         _______ _______ _______ _____ _____    ______ ____
ROOT
ATOM      1  C   UNL     1       2.958   3.279  19.638  0.00  0.00    +0.000 C 
ATOM      2  C   UNL     1       4.403   3.426  19.154  0.00  0.00    +0.000 C 
ATOM      3  O   UNL     1       4.598   4.497  18.228  0.00  0.00    +0.000 OA
ATOM      4  C   UNL     1       3.848   5.633  18.395  0.00  0.00    +0.000 A 
ATOM      5  C   UNL     1       4.122   6.663  17.483  0.00  0.00    +0.000 A 
ATOM      6  C   UNL     1       5.177   6.553  16.420  0.00  0.00    +0.000 C 
ATOM      7  C   UNL     1       3.424   7.869  17.600  0.00  0.00    +0.000 A 
ATOM      8  C   UNL     1       2.471   8.042  18.601  0.00  0.00    +0.000 A 
ATOM      9  O   UNL     1       1.914   9.290  18.638  0.00  0.00    +0.000 OA
ATOM     10  C   UNL     1       1.122   9.636  19.698  0.00  0.00    +0.000 A 
ATOM     11  C   UNL     1       0.806  11.001  19.823  0.00  0.00    +0.000 A 
ATOM     12  C   UNL     1      -0.046  11.398  20.867  0.00  0.00    +0.000 A 
ATOM     13  C   UNL     1      -0.536  10.470  21.783  0.00  0.00    +0.000 A 
ATOM     14  C   UNL     1      -0.167   9.131  21.677  0.00  0.00    +0.000 A 
ATOM     15  C   UNL     1       0.645   8.699  20.620  0.00  0.00    +0.000 A 
ATOM     16  C   UNL     1       1.071   7.290  20.453  0.00  0.00    +0.000 A 
ATOM     17  O   UNL     1       0.528   6.387  21.071  0.00  0.00    +0.000 OA
ATOM     18  C   UNL     1       2.154   7.005  19.478  0.00  0.00    +0.000 A 
ATOM     19  C   UNL     1       2.849   5.774  19.385  0.00  0.00    +0.000 A 
ATOM     20  C   UNL     1       2.615   4.615  20.325  0.00  0.00    +0.000 C 
ENDROOT
BRANCH   1  22
ATOM     21  C   UNL     1       2.225   2.443  17.332  0.00  0.00    +0.000 C 
ATOM     22  C   UNL     1       1.925   2.839  18.583  0.00  0.00    +0.000 C 
ATOM     23  C   UNL     1       0.483   2.837  19.029  0.00  0.00    +0.000 C 
ENDBRANCH   1  22
BRANCH  14  24
ATOM     24  O   UNL     1      -0.586   8.265  22.647  0.00  0.00    +0.000 OA
ATOM     25  H   UNL     1       0.174   7.919  23.140  0.00  0.00    +0.000 HD
ENDBRANCH  14  24
BRANCH  20  26
ATOM     26  O   UNL     1       3.442   4.756  21.491  0.00  0.00    +0.000 OA
ATOM     27  H   UNL     1       3.796   5.660  21.508  0.00  0.00    +0.000 HD
ENDBRANCH  20  26
BRANCH  11  28
ATOM     28  C   UNL     1       1.477  12.083  18.994  0.00  0.00    +0.000 C 
BRANCH  28  29
ATOM     29  C   UNL     1       1.375  13.574  19.397  0.00  0.00    +0.000 C 
BRANCH  29  30
ATOM     30  C   UNL     1       2.721  14.357  19.533  0.00  0.00    +0.000 C 
ATOM     31  C   UNL     1       3.462  14.066  20.841  0.00  0.00    +0.000 C 
ATOM     32  C   UNL     1       3.659  14.140  18.346  0.00  0.00    +0.000 C 
BRANCH  30  33
ATOM     33  O   UNL     1       2.424  15.769  19.544  0.00  0.00    +0.000 OA
ATOM     34  H   UNL     1       3.264  16.257  19.597  0.00  0.00    +0.000 HD
ENDBRANCH  30  33
ENDBRANCH  29  30
BRANCH  29  35
ATOM     35  O   UNL     1       0.447  14.346  18.549  0.00  0.00    +0.000 OA
BRANCH  35  36
ATOM     36  C   UNL     1      -0.401  15.291  19.024  0.00  0.00    +0.000 C 
ATOM     37  C   UNL     1      -1.182  14.773  20.197  0.00  0.00    +0.000 C 
ATOM     38  O   UNL     1      -0.529  16.430  18.598  0.00  0.00    +0.000 OA
ENDBRANCH  35  36
ENDBRANCH  29  35
ENDBRANCH  28  29
ENDBRANCH  11  28
TORSDOF 9
ENDMDL
MODEL 9
REMARK VINA RESULT:      -6.1      2.456      8.893
REMARK  Name = 
REMARK  14 active torsions:
REMARK  status: ('A' for Active; 'I' for Inactive)
REMARK    1  A    between atoms: C_2  and  C_3
REMARK    2  A    between atoms: C_2  and  C_4
REMARK    3  A    between atoms: C_8  and  C_9
REMARK    4  A    between atoms: C_14  and  C_15
REMARK    5  A    between atoms: C_15  and  C_16
REMARK    6  A    between atoms: C_16  and  O_17
REMARK    7  A    between atoms: C_16  and  C_21
REMARK    8  A    between atoms: O_17  and  C_18
REMARK    9  A    between atoms: C_18  and  C_19
REMARK   10  A    between atoms: C_21  and  C_22
REMARK   11  A    between atoms: C_21  and  C_23
REMARK   12  A    between atoms: C_21  and  O_24
REMARK   13  A    between atoms: C_27  and  O_28
REMARK   14  A    between atoms: C_34  and  O_35
REMARK                            x       y       z     vdW  Elec       q    Type
REMARK                         _______ _______ _______ _____ _____    ______ ____
ROOT
ATOM      1  C   UNL     1       2.458   3.695  19.635  0.00  0.00    +0.000 C 
ATOM      2  C   UNL     1       3.895   3.791  19.115  0.00  0.00    +0.000 C 
ATOM      3  O   UNL     1       4.119   4.889  18.228  0.00  0.00    +0.000 OA
ATOM      4  C   UNL     1       3.432   6.052  18.462  0.00  0.00    +0.000 A 
ATOM      5  C   UNL     1       3.733   7.104  17.584  0.00  0.00    +0.000 A 
ATOM      6  C   UNL     1       4.751   6.987  16.486  0.00  0.00    +0.000 C 
ATOM      7  C   UNL     1       3.101   8.337  17.769  0.00  0.00    +0.000 A 
ATOM      8  C   UNL     1       2.185   8.516  18.804  0.00  0.00    +0.000 A 
ATOM      9  O   UNL     1       1.694   9.788  18.908  0.00  0.00    +0.000 OA
ATOM     10  C   UNL     1       0.949  10.128  20.003  0.00  0.00    +0.000 A 
ATOM     11  C   UNL     1       0.707  11.501  20.192  0.00  0.00    +0.000 A 
ATOM     12  C   UNL     1      -0.095  11.896  21.276  0.00  0.00    +0.000 A 
ATOM     13  C   UNL     1      -0.606  10.956  22.168  0.00  0.00    +0.000 A 
ATOM     14  C   UNL     1      -0.309   9.606  21.998  0.00  0.00    +0.000 A 
ATOM     15  C   UNL     1       0.451   9.178  20.901  0.00  0.00    +0.000 A 
ATOM     16  C   UNL     1       0.800   7.759  20.665  0.00  0.00    +0.000 A 
ATOM     17  O   UNL     1       0.230   6.858  21.263  0.00  0.00    +0.000 OA
ATOM     18  C   UNL     1       1.840   7.461  19.647  0.00  0.00    +0.000 A 
ATOM     19  C   UNL     1       2.470   6.202  19.485  0.00  0.00    +0.000 A 
ATOM     20  C   UNL     1       2.202   5.018  20.385  0.00  0.00    +0.000 C 
ENDROOT
BRANCH   1  22
ATOM     21  C   UNL     1       1.184   4.014  17.438  0.00  0.00    +0.000 C 
ATOM     22  C   UNL     1       1.376   3.352  18.594  0.00  0.00    +0.000 C 
ATOM     23  C   UNL     1       0.505   2.160  18.914  0.00  0.00    +0.000 C 
ENDBRANCH   1  22
BRANCH  14  24
ATOM     24  O   UNL     1      -0.744   8.722  22.944  0.00  0.00    +0.000 OA
ATOM     25  H   UNL     1      -1.312   8.049  22.540  0.00  0.00    +0.000 HD
ENDBRANCH  14  24
BRANCH  20  26
ATOM     26  O   UNL     1       3.068   5.069  21.530  0.00  0.00    +0.000 OA
ATOM     27  H   UNL     1       3.525   4.216  21.607  0.00  0.00    +0.000 HD
ENDBRANCH  20  26
BRANCH  11  28
ATOM     28  C   UNL     1       1.409  12.581  19.387  0.00  0.00    +0.000 C 
BRANCH  28  29
ATOM     29  C   UNL     1       1.360  14.063  19.831  0.00  0.00    +0.000 C 
BRANCH  29  30
ATOM     30  C   UNL     1       2.617  14.611  20.580  0.00  0.00    +0.000 C 
ATOM     31  C   UNL     1       3.696  15.152  19.639  0.00  0.00    +0.000 C 
ATOM     32  C   UNL     1       2.272  15.665  21.633  0.00  0.00    +0.000 C 
BRANCH  30  33
ATOM     33  O   UNL     1       3.224  13.520  21.305  0.00  0.00    +0.000 OA
ATOM     34  H   UNL     1       3.466  13.840  22.191  0.00  0.00    +0.000 HD
ENDBRANCH  30  33
ENDBRANCH  29  30
BRANCH  29  35
ATOM     35  O   UNL     1       1.003  14.989  18.739  0.00  0.00    +0.000 OA
BRANCH  35  36
ATOM     36  C   UNL     1      -0.035  15.860  18.797  0.00  0.00    +0.000 C 
ATOM     37  C   UNL     1      -1.014  15.461  19.863  0.00  0.00    +0.000 C 
ATOM     38  O   UNL     1      -0.181  16.859  18.107  0.00  0.00    +0.000 OA
ENDBRANCH  35  36
ENDBRANCH  29  35
ENDBRANCH  28  29
ENDBRANCH  11  28
TORSDOF 9
ENDMDL
