MODEL 1
REMARK VINA RESULT:      -7.8      0.000      0.000
REMARK  Name = 
REMARK  7 active torsions:
REMARK  status: ('A' for Active; 'I' for Inactive)
REMARK    1  A    between atoms: C_3  and  O_4
REMARK    2  A    between atoms: C_5  and  C_6
REMARK    3  A    between atoms: C_6  and  N_7
REMARK    4  A    between atoms: C_6  and  C_14
REMARK    5  A    between atoms: N_7  and  C_8
REMARK    6  A    between atoms: C_8  and  C_9
REMARK    7  A    between atoms: C_19  and  O_20
REMARK                            x       y       z     vdW  Elec       q    Type
REMARK                         _______ _______ _______ _____ _____    ______ ____
ROOT
ATOM      1  C   UNL     1       6.001   5.305  17.322  0.00  0.00    +0.000 C 
ENDROOT
BRANCH   1   5
ATOM      2  O   UNL     1       1.586   6.599  19.093  0.00  0.00    +0.000 OA
ATOM      3  C   UNL     1       2.506   5.795  19.109  0.00  0.00    +0.000 C 
ATOM      4  C   UNL     1       3.696   6.023  18.238  0.00  0.00    +0.000 C 
ATOM      5  C   UNL     1       4.749   5.148  18.231  0.00  0.00    +0.000 C 
ATOM      6  C   UNL     1       4.669   3.931  19.116  0.00  0.00    +0.000 C 
ATOM      7  O   UNL     1       5.594   3.131  19.133  0.00  0.00    +0.000 OA
ATOM      8  C   UNL     1       3.469   3.670  19.958  0.00  0.00    +0.000 A 
ATOM      9  C   UNL     1       3.358   2.508  20.750  0.00  0.00    +0.000 A 
ATOM     10  C   UNL     1       2.215   2.279  21.524  0.00  0.00    +0.000 A 
ATOM     11  C   UNL     1       1.175   3.208  21.531  0.00  0.00    +0.000 A 
ATOM     12  C   UNL     1       1.271   4.364  20.753  0.00  0.00    +0.000 A 
ATOM     13  C   UNL     1       2.411   4.595  19.959  0.00  0.00    +0.000 A 
BRANCH   4  14
ATOM     14  O   UNL     1       3.690   7.117  17.443  0.00  0.00    +0.000 OA
ATOM     15  H   UNL     1       3.691   8.021  17.786  0.00  0.00    +0.000 HD
ENDBRANCH   4  14
ENDBRANCH   1   5
BRANCH   1  16
ATOM     16  C   UNL     1       6.901   6.455  17.782  0.00  0.00    +0.000 A 
ATOM     17  C   UNL     1       6.875   7.686  17.098  0.00  0.00    +0.000 A 
ATOM     18  C   UNL     1       7.721   8.730  17.480  0.00  0.00    +0.000 A 
ATOM     19  C   UNL     1       8.601   8.565  18.550  0.00  0.00    +0.000 A 
ATOM     20  C   UNL     1       8.638   7.355  19.242  0.00  0.00    +0.000 A 
ATOM     21  C   UNL     1       7.796   6.296  18.867  0.00  0.00    +0.000 A 
BRANCH  21  22
ATOM     22  O   UNL     1       7.856   5.126  19.540  0.00  0.00    +0.000 OA
ATOM     23  H   UNL     1       8.329   4.354  19.196  0.00  0.00    +0.000 HD
ENDBRANCH  21  22
ENDBRANCH   1  16
BRANCH   1  24
ATOM     24  N   UNL     1       5.670   5.467  15.886  0.00  0.00    +0.000 NA
ATOM     25  H   UNL     1       6.370   6.095  15.424  0.00  0.00    +0.000 HD
BRANCH  24  26
ATOM     26  C   UNL     1       5.661   4.198  15.141  0.00  0.00    +0.000 C 
BRANCH  26  27
ATOM     27  C   UNL     1       6.428   4.350  13.861  0.00  0.00    +0.000 A 
ATOM     28  C   UNL     1       6.260   3.590  12.718  0.00  0.00    +0.000 A 
ATOM     29  C   UNL     1       7.163   4.083  11.804  0.00  0.00    +0.000 A 
ATOM     30  C   UNL     1       7.827   5.113  12.440  0.00  0.00    +0.000 A 
ATOM     31  O   UNL     1       7.369   5.247  13.664  0.00  0.00    +0.000 OA
ENDBRANCH  26  27
ENDBRANCH  24  26
ENDBRANCH   1  24
TORSDOF 7
ENDMDL
MODEL 2
REMARK VINA RESULT:      -7.8      2.694      5.587
REMARK  Name = 
REMARK  7 active torsions:
REMARK  status: ('A' for Active; 'I' for Inactive)
REMARK    1  A    between atoms: C_3  and  O_4
REMARK    2  A    between atoms: C_5  and  C_6
REMARK    3  A    between atoms: C_6  and  N_7
REMARK    4  A    between atoms: C_6  and  C_14
REMARK    5  A    between atoms: N_7  and  C_8
REMARK    6  A    between atoms: C_8  and  C_9
REMARK    7  A    between atoms: C_19  and  O_20
REMARK                            x       y       z     vdW  Elec       q    Type
REMARK                         _______ _______ _______ _____ _____    ______ ____
ROOT
ATOM      1  C   UNL     1       3.405   5.288  18.591  0.00  0.00    +0.000 C 
ENDROOT
BRANCH   1   5
ATOM      2  O   UNL     1       2.086   9.874  17.352  0.00  0.00    +0.000 OA
ATOM      3  C   UNL     1       2.081   8.995  18.202  0.00  0.00    +0.000 C 
ATOM      4  C   UNL     1       2.745   7.691  17.913  0.00  0.00    +0.000 C 
ATOM      5  C   UNL     1       2.765   6.684  18.840  0.00  0.00    +0.000 C 
ATOM      6  C   UNL     1       2.079   6.919  20.161  0.00  0.00    +0.000 C 
ATOM      7  O   UNL     1       2.081   6.039  21.011  0.00  0.00    +0.000 OA
ATOM      8  C   UNL     1       1.377   8.201  20.446  0.00  0.00    +0.000 A 
ATOM      9  C   UNL     1       0.686   8.414  21.657  0.00  0.00    +0.000 A 
ATOM     10  C   UNL     1       0.024   9.623  21.897  0.00  0.00    +0.000 A 
ATOM     11  C   UNL     1       0.051  10.639  20.941  0.00  0.00    +0.000 A 
ATOM     12  C   UNL     1       0.732  10.443  19.738  0.00  0.00    +0.000 A 
ATOM     13  C   UNL     1       1.389   9.224  19.482  0.00  0.00    +0.000 A 
BRANCH   4  14
ATOM     14  O   UNL     1       3.312   7.532  16.695  0.00  0.00    +0.000 OA
ATOM     15  H   UNL     1       3.633   8.271  16.161  0.00  0.00    +0.000 HD
ENDBRANCH   4  14
ENDBRANCH   1   5
BRANCH   1  16
ATOM     16  C   UNL     1       4.918   5.383  18.377  0.00  0.00    +0.000 A 
ATOM     17  C   UNL     1       5.780   5.494  19.486  0.00  0.00    +0.000 A 
ATOM     18  C   UNL     1       7.159   5.625  19.304  0.00  0.00    +0.000 A 
ATOM     19  C   UNL     1       7.699   5.642  18.018  0.00  0.00    +0.000 A 
ATOM     20  C   UNL     1       6.863   5.530  16.908  0.00  0.00    +0.000 A 
ATOM     21  C   UNL     1       5.474   5.402  17.076  0.00  0.00    +0.000 A 
BRANCH  21  22
ATOM     22  O   UNL     1       4.678   5.308  15.988  0.00  0.00    +0.000 OA
ATOM     23  H   UNL     1       4.673   5.980  15.291  0.00  0.00    +0.000 HD
ENDBRANCH  21  22
ENDBRANCH   1  16
BRANCH   1  24
ATOM     24  N   UNL     1       2.783   4.545  17.470  0.00  0.00    +0.000 NA
ATOM     25  H   UNL     1       3.395   4.595  16.622  0.00  0.00    +0.000 HD
BRANCH  24  26
ATOM     26  C   UNL     1       2.557   3.122  17.764  0.00  0.00    +0.000 C 
BRANCH  26  27
ATOM     27  C   UNL     1       2.253   2.943  19.222  0.00  0.00    +0.000 A 
ATOM     28  C   UNL     1       1.003   3.026  19.808  0.00  0.00    +0.000 A 
ATOM     29  C   UNL     1       1.201   2.788  21.149  0.00  0.00    +0.000 A 
ATOM     30  C   UNL     1       2.555   2.575  21.304  0.00  0.00    +0.000 A 
ATOM     31  O   UNL     1       3.157   2.676  20.140  0.00  0.00    +0.000 OA
ENDBRANCH  26  27
ENDBRANCH  24  26
ENDBRANCH   1  24
TORSDOF 7
ENDMDL
MODEL 3
REMARK VINA RESULT:      -7.8      2.602      4.985
REMARK  Name = 
REMARK  7 active torsions:
REMARK  status: ('A' for Active; 'I' for Inactive)
REMARK    1  A    between atoms: C_3  and  O_4
REMARK    2  A    between atoms: C_5  and  C_6
REMARK    3  A    between atoms: C_6  and  N_7
REMARK    4  A    between atoms: C_6  and  C_14
REMARK    5  A    between atoms: N_7  and  C_8
REMARK    6  A    between atoms: C_8  and  C_9
REMARK    7  A    between atoms: C_19  and  O_20
REMARK                            x       y       z     vdW  Elec       q    Type
REMARK                         _______ _______ _______ _____ _____    ______ ____
ROOT
ATOM      1  C   UNL     1       3.989   5.426  18.311  0.00  0.00    +0.000 C 
ENDROOT
BRANCH   1   5
ATOM      2  O   UNL     1       2.006   9.833  17.336  0.00  0.00    +0.000 OA
ATOM      3  C   UNL     1       2.129   8.912  18.130  0.00  0.00    +0.000 C 
ATOM      4  C   UNL     1       2.981   7.742  17.771  0.00  0.00    +0.000 C 
ATOM      5  C   UNL     1       3.147   6.693  18.636  0.00  0.00    +0.000 C 
ATOM      6  C   UNL     1       2.430   6.742  19.960  0.00  0.00    +0.000 C 
ATOM      7  O   UNL     1       2.560   5.822  20.755  0.00  0.00    +0.000 OA
ATOM      8  C   UNL     1       1.544   7.885  20.314  0.00  0.00    +0.000 A 
ATOM      9  C   UNL     1       0.825   7.918  21.526  0.00  0.00    +0.000 A 
ATOM     10  C   UNL     1      -0.011   8.998  21.831  0.00  0.00    +0.000 A 
ATOM     11  C   UNL     1      -0.132  10.064  20.939  0.00  0.00    +0.000 A 
ATOM     12  C   UNL     1       0.575  10.046  19.735  0.00  0.00    +0.000 A 
ATOM     13  C   UNL     1       1.407   8.956  19.414  0.00  0.00    +0.000 A 
BRANCH   4  14
ATOM     14  O   UNL     1       3.569   7.745  16.553  0.00  0.00    +0.000 OA
ATOM     15  H   UNL     1       3.071   7.733  15.725  0.00  0.00    +0.000 HD
ENDBRANCH   4  14
ENDBRANCH   1   5
BRANCH   1  16
ATOM     16  C   UNL     1       3.178   4.140  18.485  0.00  0.00    +0.000 A 
ATOM     17  C   UNL     1       1.808   4.122  18.156  0.00  0.00    +0.000 A 
ATOM     18  C   UNL     1       1.046   2.968  18.350  0.00  0.00    +0.000 A 
ATOM     19  C   UNL     1       1.636   1.815  18.870  0.00  0.00    +0.000 A 
ATOM     20  C   UNL     1       2.991   1.812  19.198  0.00  0.00    +0.000 A 
ATOM     21  C   UNL     1       3.769   2.967  19.012  0.00  0.00    +0.000 A 
BRANCH  21  22
ATOM     22  O   UNL     1       5.077   2.950  19.349  0.00  0.00    +0.000 OA
ATOM     23  H   UNL     1       5.384   3.156  20.244  0.00  0.00    +0.000 HD
ENDBRANCH  21  22
ENDBRANCH   1  16
BRANCH   1  24
ATOM     24  N   UNL     1       5.247   5.339  19.090  0.00  0.00    +0.000 NA
ATOM     25  H   UNL     1       5.458   4.340  19.322  0.00  0.00    +0.000 HD
BRANCH  24  26
ATOM     26  C   UNL     1       6.416   5.879  18.378  0.00  0.00    +0.000 C 
BRANCH  26  27
ATOM     27  C   UNL     1       6.388   5.440  16.944  0.00  0.00    +0.000 A 
ATOM     28  C   UNL     1       6.781   4.203  16.465  0.00  0.00    +0.000 A 
ATOM     29  C   UNL     1       6.577   4.247  15.105  0.00  0.00    +0.000 A 
ATOM     30  C   UNL     1       6.074   5.502  14.833  0.00  0.00    +0.000 A 
ATOM     31  O   UNL     1       5.975   6.191  15.947  0.00  0.00    +0.000 OA
ENDBRANCH  26  27
ENDBRANCH  24  26
ENDBRANCH   1  24
TORSDOF 7
ENDMDL
MODEL 4
REMARK VINA RESULT:      -7.7      2.878      5.520
REMARK  Name = 
REMARK  7 active torsions:
REMARK  status: ('A' for Active; 'I' for Inactive)
REMARK    1  A    between atoms: C_3  and  O_4
REMARK    2  A    between atoms: C_5  and  C_6
REMARK    3  A    between atoms: C_6  and  N_7
REMARK    4  A    between atoms: C_6  and  C_14
REMARK    5  A    between atoms: N_7  and  C_8
REMARK    6  A    between atoms: C_8  and  C_9
REMARK    7  A    between atoms: C_19  and  O_20
REMARK                            x       y       z     vdW  Elec       q    Type
REMARK                         _______ _______ _______ _____ _____    ______ ____
ROOT
ATOM      1  C   UNL     1       3.555   5.739  18.286  0.00  0.00    +0.000 C 
ENDROOT
BRANCH   1   5
ATOM      2  O   UNL     1       1.020   7.808  21.973  0.00  0.00    +0.000 OA
ATOM      3  C   UNL     1       1.414   7.895  20.820  0.00  0.00    +0.000 C 
ATOM      4  C   UNL     1       2.222   6.785  20.235  0.00  0.00    +0.000 C 
ATOM      5  C   UNL     1       2.678   6.842  18.946  0.00  0.00    +0.000 C 
ATOM      6  C   UNL     1       2.358   8.068  18.131  0.00  0.00    +0.000 C 
ATOM      7  O   UNL     1       2.750   8.149  16.975  0.00  0.00    +0.000 OA
ATOM      8  C   UNL     1       1.589   9.201  18.716  0.00  0.00    +0.000 A 
ATOM      9  C   UNL     1       1.329  10.378  17.983  0.00  0.00    +0.000 A 
ATOM     10  C   UNL     1       0.613  11.434  18.557  0.00  0.00    +0.000 A 
ATOM     11  C   UNL     1       0.137  11.328  19.865  0.00  0.00    +0.000 A 
ATOM     12  C   UNL     1       0.385  10.169  20.603  0.00  0.00    +0.000 A 
ATOM     13  C   UNL     1       1.117   9.107  20.036  0.00  0.00    +0.000 A 
BRANCH   4  14
ATOM     14  O   UNL     1       2.502   5.727  21.031  0.00  0.00    +0.000 OA
ATOM     15  H   UNL     1       2.657   4.836  20.691  0.00  0.00    +0.000 HD
ENDBRANCH   4  14
ENDBRANCH   1   5
BRANCH   1  16
ATOM     16  C   UNL     1       2.947   4.345  18.460  0.00  0.00    +0.000 A 
ATOM     17  C   UNL     1       1.573   4.142  18.223  0.00  0.00    +0.000 A 
ATOM     18  C   UNL     1       0.996   2.885  18.420  0.00  0.00    +0.000 A 
ATOM     19  C   UNL     1       1.778   1.813  18.848  0.00  0.00    +0.000 A 
ATOM     20  C   UNL     1       3.141   1.992  19.084  0.00  0.00    +0.000 A 
ATOM     21  C   UNL     1       3.734   3.252  18.896  0.00  0.00    +0.000 A 
BRANCH  21  22
ATOM     22  O   UNL     1       5.052   3.411  19.142  0.00  0.00    +0.000 OA
ATOM     23  H   UNL     1       5.434   4.267  19.386  0.00  0.00    +0.000 HD
ENDBRANCH  21  22
ENDBRANCH   1  16
BRANCH   1  24
ATOM     24  N   UNL     1       4.959   5.740  18.762  0.00  0.00    +0.000 NA
ATOM     25  H   UNL     1       5.262   4.764  18.991  0.00  0.00    +0.000 HD
BRANCH  24  26
ATOM     26  C   UNL     1       5.910   6.275  17.776  0.00  0.00    +0.000 C 
BRANCH  26  27
ATOM     27  C   UNL     1       5.915   5.412  16.549  0.00  0.00    +0.000 A 
ATOM     28  C   UNL     1       5.527   5.802  15.280  0.00  0.00    +0.000 A 
ATOM     29  C   UNL     1       5.704   4.698  14.478  0.00  0.00    +0.000 A 
ATOM     30  C   UNL     1       6.189   3.702  15.300  0.00  0.00    +0.000 A 
ATOM     31  O   UNL     1       6.302   4.156  16.528  0.00  0.00    +0.000 OA
ENDBRANCH  26  27
ENDBRANCH  24  26
ENDBRANCH   1  24
TORSDOF 7
ENDMDL
MODEL 5
REMARK VINA RESULT:      -7.6      2.779      5.001
REMARK  Name = 
REMARK  7 active torsions:
REMARK  status: ('A' for Active; 'I' for Inactive)
REMARK    1  A    between atoms: C_3  and  O_4
REMARK    2  A    between atoms: C_5  and  C_6
REMARK    3  A    between atoms: C_6  and  N_7
REMARK    4  A    between atoms: C_6  and  C_14
REMARK    5  A    between atoms: N_7  and  C_8
REMARK    6  A    between atoms: C_8  and  C_9
REMARK    7  A    between atoms: C_19  and  O_20
REMARK                            x       y       z     vdW  Elec       q    Type
REMARK                         _______ _______ _______ _____ _____    ______ ____
ROOT
ATOM      1  C   UNL     1       3.894   5.453  18.165  0.00  0.00    +0.000 C 
ENDROOT
BRANCH   1   5
ATOM      2  O   UNL     1       1.903   9.900  17.416  0.00  0.00    +0.000 OA
ATOM      3  C   UNL     1       2.038   8.946  18.168  0.00  0.00    +0.000 C 
ATOM      4  C   UNL     1       2.882   7.791  17.744  0.00  0.00    +0.000 C 
ATOM      5  C   UNL     1       3.061   6.705  18.559  0.00  0.00    +0.000 C 
ATOM      6  C   UNL     1       2.368   6.697  19.897  0.00  0.00    +0.000 C 
ATOM      7  O   UNL     1       2.509   5.743  20.649  0.00  0.00    +0.000 OA
ATOM      8  C   UNL     1       1.490   7.826  20.315  0.00  0.00    +0.000 A 
ATOM      9  C   UNL     1       0.792   7.807  21.541  0.00  0.00    +0.000 A 
ATOM     10  C   UNL     1      -0.036   8.874  21.907  0.00  0.00    +0.000 A 
ATOM     11  C   UNL     1      -0.170   9.977  21.064  0.00  0.00    +0.000 A 
ATOM     12  C   UNL     1       0.515  10.011  19.848  0.00  0.00    +0.000 A 
ATOM     13  C   UNL     1       1.339   8.935  19.465  0.00  0.00    +0.000 A 
BRANCH   4  14
ATOM     14  O   UNL     1       3.448   7.845  16.517  0.00  0.00    +0.000 OA
ATOM     15  H   UNL     1       4.395   7.725  16.366  0.00  0.00    +0.000 HD
ENDBRANCH   4  14
ENDBRANCH   1   5
BRANCH   1  16
ATOM     16  C   UNL     1       5.399   5.702  18.299  0.00  0.00    +0.000 A 
ATOM     17  C   UNL     1       6.054   5.416  19.512  0.00  0.00    +0.000 A 
ATOM     18  C   UNL     1       7.418   5.679  19.663  0.00  0.00    +0.000 A 
ATOM     19  C   UNL     1       8.149   6.223  18.607  0.00  0.00    +0.000 A 
ATOM     20  C   UNL     1       7.519   6.509  17.396  0.00  0.00    +0.000 A 
ATOM     21  C   UNL     1       6.148   6.254  17.232  0.00  0.00    +0.000 A 
BRANCH  21  22
ATOM     22  O   UNL     1       5.551   6.550  16.056  0.00  0.00    +0.000 OA
ATOM     23  H   UNL     1       5.014   7.347  15.935  0.00  0.00    +0.000 HD
ENDBRANCH  21  22
ENDBRANCH   1  16
BRANCH   1  24
ATOM     24  N   UNL     1       3.586   4.943  16.807  0.00  0.00    +0.000 NA
ATOM     25  H   UNL     1       4.368   5.175  16.150  0.00  0.00    +0.000 HD
BRANCH  24  26
ATOM     26  C   UNL     1       3.390   3.486  16.760  0.00  0.00    +0.000 C 
BRANCH  26  27
ATOM     27  C   UNL     1       2.488   3.055  17.878  0.00  0.00    +0.000 A 
ATOM     28  C   UNL     1       2.874   2.368  19.014  0.00  0.00    +0.000 A 
ATOM     29  C   UNL     1       1.727   2.195  19.756  0.00  0.00    +0.000 A 
ATOM     30  C   UNL     1       0.711   2.786  19.032  0.00  0.00    +0.000 A 
ATOM     31  O   UNL     1       1.194   3.287  17.917  0.00  0.00    +0.000 OA
ENDBRANCH  26  27
ENDBRANCH  24  26
ENDBRANCH   1  24
TORSDOF 7
ENDMDL
MODEL 6
REMARK VINA RESULT:      -7.5      2.743      4.793
REMARK  Name = 
REMARK  7 active torsions:
REMARK  status: ('A' for Active; 'I' for Inactive)
REMARK    1  A    between atoms: C_3  and  O_4
REMARK    2  A    between atoms: C_5  and  C_6
REMARK    3  A    between atoms: C_6  and  N_7
REMARK    4  A    between atoms: C_6  and  C_14
REMARK    5  A    between atoms: N_7  and  C_8
REMARK    6  A    between atoms: C_8  and  C_9
REMARK    7  A    between atoms: C_19  and  O_20
REMARK                            x       y       z     vdW  Elec       q    Type
REMARK                         _______ _______ _______ _____ _____    ______ ____
ROOT
ATOM      1  C   UNL     1       4.008   5.631  18.200  0.00  0.00    +0.000 C 
ENDROOT
BRANCH   1   5
ATOM      2  O   UNL     1       1.771   9.946  17.377  0.00  0.00    +0.000 OA
ATOM      3  C   UNL     1       1.953   9.010  18.142  0.00  0.00    +0.000 C 
ATOM      4  C   UNL     1       2.866   7.901  17.740  0.00  0.00    +0.000 C 
ATOM      5  C   UNL     1       3.098   6.837  18.570  0.00  0.00    +0.000 C 
ATOM      6  C   UNL     1       2.391   6.804  19.900  0.00  0.00    +0.000 C 
ATOM      7  O   UNL     1       2.579   5.868  20.665  0.00  0.00    +0.000 OA
ATOM      8  C   UNL     1       1.445   7.884  20.295  0.00  0.00    +0.000 A 
ATOM      9  C   UNL     1       0.735   7.838  21.513  0.00  0.00    +0.000 A 
ATOM     10  C   UNL     1      -0.158   8.859  21.857  0.00  0.00    +0.000 A 
ATOM     11  C   UNL     1      -0.346   9.944  21.000  0.00  0.00    +0.000 A 
ATOM     12  C   UNL     1       0.350  10.003  19.792  0.00  0.00    +0.000 A 
ATOM     13  C   UNL     1       1.240   8.973  19.431  0.00  0.00    +0.000 A 
BRANCH   4  14
ATOM     14  O   UNL     1       3.443   7.975  16.519  0.00  0.00    +0.000 OA
ATOM     15  H   UNL     1       3.772   7.202  16.042  0.00  0.00    +0.000 HD
ENDBRANCH   4  14
ENDBRANCH   1   5
BRANCH   1  16
ATOM     16  C   UNL     1       5.494   5.970  18.341  0.00  0.00    +0.000 A 
ATOM     17  C   UNL     1       6.078   6.938  17.500  0.00  0.00    +0.000 A 
ATOM     18  C   UNL     1       7.442   7.227  17.588  0.00  0.00    +0.000 A 
ATOM     19  C   UNL     1       8.241   6.562  18.518  0.00  0.00    +0.000 A 
ATOM     20  C   UNL     1       7.681   5.605  19.363  0.00  0.00    +0.000 A 
ATOM     21  C   UNL     1       6.312   5.300  19.282  0.00  0.00    +0.000 A 
BRANCH  21  22
ATOM     22  O   UNL     1       5.790   4.360  20.099  0.00  0.00    +0.000 OA
ATOM     23  H   UNL     1       6.320   3.634  20.459  0.00  0.00    +0.000 HD
ENDBRANCH  21  22
ENDBRANCH   1  16
BRANCH   1  24
ATOM     24  N   UNL     1       3.742   5.085  16.848  0.00  0.00    +0.000 NA
ATOM     25  H   UNL     1       4.483   5.402  16.180  0.00  0.00    +0.000 HD
BRANCH  24  26
ATOM     26  C   UNL     1       3.712   3.615  16.806  0.00  0.00    +0.000 C 
BRANCH  26  27
ATOM     27  C   UNL     1       2.712   3.095  17.796  0.00  0.00    +0.000 A 
ATOM     28  C   UNL     1       2.998   2.339  18.919  0.00  0.00    +0.000 A 
ATOM     29  C   UNL     1       1.787   2.099  19.527  0.00  0.00    +0.000 A 
ATOM     30  C   UNL     1       0.836   2.720  18.744  0.00  0.00    +0.000 A 
ATOM     31  O   UNL     1       1.416   3.302  17.719  0.00  0.00    +0.000 OA
ENDBRANCH  26  27
ENDBRANCH  24  26
ENDBRANCH   1  24
TORSDOF 7
ENDMDL
MODEL 7
REMARK VINA RESULT:      -7.5      2.780      5.269
REMARK  Name = 
REMARK  7 active torsions:
REMARK  status: ('A' for Active; 'I' for Inactive)
REMARK    1  A    between atoms: C_3  and  O_4
REMARK    2  A    between atoms: C_5  and  C_6
REMARK    3  A    between atoms: C_6  and  N_7
REMARK    4  A    between atoms: C_6  and  C_14
REMARK    5  A    between atoms: N_7  and  C_8
REMARK    6  A    between atoms: C_8  and  C_9
REMARK    7  A    between atoms: C_19  and  O_20
REMARK                            x       y       z     vdW  Elec       q    Type
REMARK                         _______ _______ _______ _____ _____    ______ ____
ROOT
ATOM      1  C   UNL     1       4.024   5.336  18.165  0.00  0.00    +0.000 C 
ENDROOT
BRANCH   1   5
ATOM      2  O   UNL     1       1.143   7.234  21.686  0.00  0.00    +0.000 OA
ATOM      3  C   UNL     1       1.638   7.369  20.576  0.00  0.00    +0.000 C 
ATOM      4  C   UNL     1       2.509   6.291  20.025  0.00  0.00    +0.000 C 
ATOM      5  C   UNL     1       3.077   6.403  18.784  0.00  0.00    +0.000 C 
ATOM      6  C   UNL     1       2.815   7.657  17.992  0.00  0.00    +0.000 C 
ATOM      7  O   UNL     1       3.307   7.787  16.880  0.00  0.00    +0.000 OA
ATOM      8  C   UNL     1       1.982   8.759  18.548  0.00  0.00    +0.000 A 
ATOM      9  C   UNL     1       1.773   9.961  17.840  0.00  0.00    +0.000 A 
ATOM     10  C   UNL     1       0.995  10.986  18.388  0.00  0.00    +0.000 A 
ATOM     11  C   UNL     1       0.406  10.824  19.642  0.00  0.00    +0.000 A 
ATOM     12  C   UNL     1       0.602   9.640  20.355  0.00  0.00    +0.000 A 
ATOM     13  C   UNL     1       1.396   8.608  19.816  0.00  0.00    +0.000 A 
BRANCH   4  14
ATOM     14  O   UNL     1       2.731   5.206  20.801  0.00  0.00    +0.000 OA
ATOM     15  H   UNL     1       3.219   4.429  20.498  0.00  0.00    +0.000 HD
ENDBRANCH   4  14
ENDBRANCH   1   5
BRANCH   1  16
ATOM     16  C   UNL     1       5.497   5.734  18.294  0.00  0.00    +0.000 A 
ATOM     17  C   UNL     1       6.205   5.434  19.474  0.00  0.00    +0.000 A 
ATOM     18  C   UNL     1       7.537   5.829  19.624  0.00  0.00    +0.000 A 
ATOM     19  C   UNL     1       8.183   6.522  18.600  0.00  0.00    +0.000 A 
ATOM     20  C   UNL     1       7.500   6.824  17.422  0.00  0.00    +0.000 A 
ATOM     21  C   UNL     1       6.159   6.437  17.260  0.00  0.00    +0.000 A 
BRANCH  21  22
ATOM     22  O   UNL     1       5.509   6.750  16.118  0.00  0.00    +0.000 OA
ATOM     23  H   UNL     1       5.972   6.887  15.279  0.00  0.00    +0.000 HD
ENDBRANCH  21  22
ENDBRANCH   1  16
BRANCH   1  24
ATOM     24  N   UNL     1       3.710   5.018  16.752  0.00  0.00    +0.000 NA
ATOM     25  H   UNL     1       4.505   5.304  16.133  0.00  0.00    +0.000 HD
BRANCH  24  26
ATOM     26  C   UNL     1       3.463   3.587  16.515  0.00  0.00    +0.000 C 
BRANCH  26  27
ATOM     27  C   UNL     1       2.567   3.039  17.585  0.00  0.00    +0.000 A 
ATOM     28  C   UNL     1       2.924   2.110  18.546  0.00  0.00    +0.000 A 
ATOM     29  C   UNL     1       1.797   1.911  19.311  0.00  0.00    +0.000 A 
ATOM     30  C   UNL     1       0.822   2.727  18.775  0.00  0.00    +0.000 A 
ATOM     31  O   UNL     1       1.308   3.384  17.747  0.00  0.00    +0.000 OA
ENDBRANCH  26  27
ENDBRANCH  24  26
ENDBRANCH   1  24
TORSDOF 7
ENDMDL
MODEL 8
REMARK VINA RESULT:      -7.5      2.907      6.005
REMARK  Name = 
REMARK  7 active torsions:
REMARK  status: ('A' for Active; 'I' for Inactive)
REMARK    1  A    between atoms: C_3  and  O_4
REMARK    2  A    between atoms: C_5  and  C_6
REMARK    3  A    between atoms: C_6  and  N_7
REMARK    4  A    between atoms: C_6  and  C_14
REMARK    5  A    between atoms: N_7  and  C_8
REMARK    6  A    between atoms: C_8  and  C_9
REMARK    7  A    between atoms: C_19  and  O_20
REMARK                            x       y       z     vdW  Elec       q    Type
REMARK                         _______ _______ _______ _____ _____    ______ ____
ROOT
ATOM      1  C   UNL     1       3.403   5.421  18.993  0.00  0.00    +0.000 C 
ENDROOT
BRANCH   1   5
ATOM      2  O   UNL     1       2.017   9.858  17.352  0.00  0.00    +0.000 OA
ATOM      3  C   UNL     1       1.981   9.038  18.258  0.00  0.00    +0.000 C 
ATOM      4  C   UNL     1       2.710   7.745  18.107  0.00  0.00    +0.000 C 
ATOM      5  C   UNL     1       2.697   6.803  19.100  0.00  0.00    +0.000 C 
ATOM      6  C   UNL     1       1.911   7.098  20.351  0.00  0.00    +0.000 C 
ATOM      7  O   UNL     1       1.881   6.277  21.257  0.00  0.00    +0.000 OA
ATOM      8  C   UNL     1       1.145   8.367  20.497  0.00  0.00    +0.000 A 
ATOM      9  C   UNL     1       0.361   8.632  21.639  0.00  0.00    +0.000 A 
ATOM     10  C   UNL     1      -0.359   9.827  21.749  0.00  0.00    +0.000 A 
ATOM     11  C   UNL     1      -0.298  10.777  20.730  0.00  0.00    +0.000 A 
ATOM     12  C   UNL     1       0.475  10.530  19.594  0.00  0.00    +0.000 A 
ATOM     13  C   UNL     1       1.191   9.323  19.469  0.00  0.00    +0.000 A 
BRANCH   4  14
ATOM     14  O   UNL     1       3.368   7.529  16.945  0.00  0.00    +0.000 OA
ATOM     15  H   UNL     1       2.965   7.097  16.181  0.00  0.00    +0.000 HD
ENDBRANCH   4  14
ENDBRANCH   1   5
BRANCH   1  16
ATOM     16  C   UNL     1       2.455   4.268  19.333  0.00  0.00    +0.000 A 
ATOM     17  C   UNL     1       2.597   3.576  20.552  0.00  0.00    +0.000 A 
ATOM     18  C   UNL     1       1.767   2.494  20.857  0.00  0.00    +0.000 A 
ATOM     19  C   UNL     1       0.782   2.089  19.956  0.00  0.00    +0.000 A 
ATOM     20  C   UNL     1       0.623   2.764  18.746  0.00  0.00    +0.000 A 
ATOM     21  C   UNL     1       1.453   3.850  18.424  0.00  0.00    +0.000 A 
BRANCH  21  22
ATOM     22  O   UNL     1       1.294   4.483  17.241  0.00  0.00    +0.000 OA
ATOM     23  H   UNL     1       1.202   5.445  17.177  0.00  0.00    +0.000 HD
ENDBRANCH  21  22
ENDBRANCH   1  16
BRANCH   1  24
ATOM     24  N   UNL     1       4.633   5.322  19.814  0.00  0.00    +0.000 NA
ATOM     25  H   UNL     1       4.474   4.676  20.623  0.00  0.00    +0.000 HD
BRANCH  24  26
ATOM     26  C   UNL     1       5.795   4.814  19.069  0.00  0.00    +0.000 C 
BRANCH  26  27
ATOM     27  C   UNL     1       6.585   5.961  18.511  0.00  0.00    +0.000 A 
ATOM     28  C   UNL     1       7.841   6.361  18.930  0.00  0.00    +0.000 A 
ATOM     29  C   UNL     1       8.174   7.437  18.138  0.00  0.00    +0.000 A 
ATOM     30  C   UNL     1       7.107   7.629  17.286  0.00  0.00    +0.000 A 
ATOM     31  O   UNL     1       6.175   6.737  17.532  0.00  0.00    +0.000 OA
ENDBRANCH  26  27
ENDBRANCH  24  26
ENDBRANCH   1  24
TORSDOF 7
ENDMDL
MODEL 9
REMARK VINA RESULT:      -7.5      1.658      4.542
REMARK  Name = 
REMARK  7 active torsions:
REMARK  status: ('A' for Active; 'I' for Inactive)
REMARK    1  A    between atoms: C_3  and  O_4
REMARK    2  A    between atoms: C_5  and  C_6
REMARK    3  A    between atoms: C_6  and  N_7
REMARK    4  A    between atoms: C_6  and  C_14
REMARK    5  A    between atoms: N_7  and  C_8
REMARK    6  A    between atoms: C_8  and  C_9
REMARK    7  A    between atoms: C_19  and  O_20
REMARK                            x       y       z     vdW  Elec       q    Type
REMARK                         _______ _______ _______ _____ _____    ______ ____
ROOT
ATOM      1  C   UNL     1       6.287   5.385  15.916  0.00  0.00    +0.000 C 
ENDROOT
BRANCH   1   5
ATOM      2  O   UNL     1       2.121   6.696  18.202  0.00  0.00    +0.000 OA
ATOM      3  C   UNL     1       2.869   5.790  17.865  0.00  0.00    +0.000 C 
ATOM      4  C   UNL     1       4.120   6.111  17.119  0.00  0.00    +0.000 C 
ATOM      5  C   UNL     1       4.986   5.124  16.728  0.00  0.00    +0.000 C 
ATOM      6  C   UNL     1       4.634   3.696  17.055  0.00  0.00    +0.000 C 
ATOM      7  O   UNL     1       5.387   2.793  16.720  0.00  0.00    +0.000 OA
ATOM      8  C   UNL     1       3.367   3.359  17.762  0.00  0.00    +0.000 A 
ATOM      9  C   UNL     1       2.999   2.024  18.027  0.00  0.00    +0.000 A 
ATOM     10  C   UNL     1       1.798   1.732  18.683  0.00  0.00    +0.000 A 
ATOM     11  C   UNL     1       0.955   2.764  19.095  0.00  0.00    +0.000 A 
ATOM     12  C   UNL     1       1.307   4.091  18.841  0.00  0.00    +0.000 A 
ATOM     13  C   UNL     1       2.507   4.394  18.168  0.00  0.00    +0.000 A 
BRANCH   4  14
ATOM     14  O   UNL     1       4.361   7.409  16.827  0.00  0.00    +0.000 OA
ATOM     15  H   UNL     1       3.929   8.143  17.285  0.00  0.00    +0.000 HD
ENDBRANCH   4  14
ENDBRANCH   1   5
BRANCH   1  16
ATOM     16  C   UNL     1       6.210   4.792  14.506  0.00  0.00    +0.000 A 
ATOM     17  C   UNL     1       5.083   4.040  14.120  0.00  0.00    +0.000 A 
ATOM     18  C   UNL     1       5.018   3.457  12.852  0.00  0.00    +0.000 A 
ATOM     19  C   UNL     1       6.070   3.618  11.950  0.00  0.00    +0.000 A 
ATOM     20  C   UNL     1       7.192   4.363  12.312  0.00  0.00    +0.000 A 
ATOM     21  C   UNL     1       7.273   4.950  13.586  0.00  0.00    +0.000 A 
BRANCH  21  22
ATOM     22  O   UNL     1       8.374   5.656  13.924  0.00  0.00    +0.000 OA
ATOM     23  H   UNL     1       8.419   6.620  13.835  0.00  0.00    +0.000 HD
ENDBRANCH  21  22
ENDBRANCH   1  16
BRANCH   1  24
ATOM     24  N   UNL     1       7.513   4.906  16.598  0.00  0.00    +0.000 NA
ATOM     25  H   UNL     1       8.363   5.247  16.090  0.00  0.00    +0.000 HD
BRANCH  24  26
ATOM     26  C   UNL     1       7.623   5.362  17.992  0.00  0.00    +0.000 C 
BRANCH  26  27
ATOM     27  C   UNL     1       7.849   6.844  18.030  0.00  0.00    +0.000 A 
ATOM     28  C   UNL     1       8.542   7.535  19.007  0.00  0.00    +0.000 A 
ATOM     29  C   UNL     1       8.502   8.859  18.629  0.00  0.00    +0.000 A 
ATOM     30  C   UNL     1       7.789   8.898  17.449  0.00  0.00    +0.000 A 
ATOM     31  O   UNL     1       7.411   7.684  17.117  0.00  0.00    +0.000 OA
ENDBRANCH  26  27
ENDBRANCH  24  26
ENDBRANCH   1  24
TORSDOF 7
ENDMDL
