MODEL 1
REMARK VINA RESULT:      -9.8      0.000      0.000
REMARK  Name = 
REMARK  5 active torsions:
REMARK  status: ('A' for Active; 'I' for Inactive)
REMARK    1  A    between atoms: N_5  and  C_6
REMARK    2  A    between atoms: C_6  and  C_7
REMARK    3  A    between atoms: N_11  and  C_12
REMARK    4  A    between atoms: C_12  and  C_13
REMARK    5  A    between atoms: C_24  and  C_25
REMARK                            x       y       z     vdW  Elec       q    Type
REMARK                         _______ _______ _______ _____ _____    ______ ____
ROOT
ATOM      1  N   UNL     1       0.947  10.597  18.001  0.00  0.00    +0.000 N 
ATOM      2  C   UNL     1       1.083   9.786  19.100  0.00  0.00    +0.000 A 
ATOM      3  N   UNL     1       1.713   8.651  19.060  0.00  0.00    +0.000 NA
ATOM      4  C   UNL     1       1.769   7.879  20.207  0.00  0.00    +0.000 A 
ATOM      5  N   UNL     1       2.353   6.661  20.060  0.00  0.00    +0.000 N 
ATOM      6  N   UNL     1       1.291   8.243  21.368  0.00  0.00    +0.000 NA
ATOM      7  C   UNL     1       0.695   9.451  21.438  0.00  0.00    +0.000 A 
ATOM      8  N   UNL     1       0.182  10.120  22.446  0.00  0.00    +0.000 NA
ATOM      9  C   UNL     1      -0.295  11.274  21.858  0.00  0.00    +0.000 A 
ATOM     10  N   UNL     1      -0.085  11.367  20.534  0.00  0.00    +0.000 NA
ATOM     11  N   UNL     1       0.548  10.201  20.314  0.00  0.00    +0.000 N 
ATOM     12  H   UNL     1       1.628  10.447  17.266  0.00  0.00    +0.000 HD
ATOM     13  H   UNL     1       0.720  11.570  18.195  0.00  0.00    +0.000 HD
ATOM     14  H   UNL     1       2.714   6.452  19.138  0.00  0.00    +0.000 HD
ENDROOT
BRANCH   9  15
ATOM     15  C   UNL     1      -0.995  12.329  22.647  0.00  0.00    +0.000 A 
ATOM     16  C   UNL     1      -2.356  12.381  22.887  0.00  0.00    +0.000 A 
ATOM     17  C   UNL     1      -2.593  13.540  23.663  0.00  0.00    +0.000 A 
ATOM     18  C   UNL     1      -1.366  14.135  23.839  0.00  0.00    +0.000 A 
ATOM     19  O   UNL     1      -0.391  13.401  23.246  0.00  0.00    +0.000 OA
ENDBRANCH   9  15
BRANCH   5  20
ATOM     20  C   UNL     1       1.987   5.505  20.859  0.00  0.00    +0.000 C 
BRANCH  20  21
ATOM     21  C   UNL     1       2.689   4.226  20.344  0.00  0.00    +0.000 C 
ATOM     22  C   UNL     1       1.875   2.983  20.687  0.00  0.00    +0.000 C 
ATOM     23  C   UNL     1       0.840   2.920  19.581  0.00  0.00    +0.000 C 
ATOM     24  C   UNL     1       1.479   3.644  18.398  0.00  0.00    +0.000 C 
ATOM     25  N   UNL     1       2.770   4.207  18.855  0.00  0.00    +0.000 NA
BRANCH  25  26
ATOM     26  C   UNL     1       3.875   3.355  18.370  0.00  0.00    +0.000 C 
BRANCH  26  27
ATOM     27  C   UNL     1       4.928   4.077  17.564  0.00  0.00    +0.000 A 
ATOM     28  C   UNL     1       4.955   4.001  16.162  0.00  0.00    +0.000 A 
ATOM     29  C   UNL     1       5.990   4.602  15.436  0.00  0.00    +0.000 A 
ATOM     30  C   UNL     1       7.003   5.293  16.101  0.00  0.00    +0.000 A 
ATOM     31  C   UNL     1       6.964   5.396  17.487  0.00  0.00    +0.000 A 
ATOM     32  F   UNL     1       7.935   6.066  18.122  0.00  0.00    +0.000 F 
ATOM     33  C   UNL     1       5.940   4.795  18.212  0.00  0.00    +0.000 A 
ATOM     34  F   UNL     1       5.933   4.900  19.550  0.00  0.00    +0.000 F 
ENDBRANCH  26  27
ENDBRANCH  25  26
ENDBRANCH  20  21
ENDBRANCH   5  20
TORSDOF 5
ENDMDL
MODEL 2
REMARK VINA RESULT:      -9.4      1.109      1.412
REMARK  Name = 
REMARK  5 active torsions:
REMARK  status: ('A' for Active; 'I' for Inactive)
REMARK    1  A    between atoms: N_5  and  C_6
REMARK    2  A    between atoms: C_6  and  C_7
REMARK    3  A    between atoms: N_11  and  C_12
REMARK    4  A    between atoms: C_12  and  C_13
REMARK    5  A    between atoms: C_24  and  C_25
REMARK                            x       y       z     vdW  Elec       q    Type
REMARK                         _______ _______ _______ _____ _____    ______ ____
ROOT
ATOM      1  N   UNL     1       0.823  10.911  18.182  0.00  0.00    +0.000 N 
ATOM      2  C   UNL     1       0.927  10.079  19.269  0.00  0.00    +0.000 A 
ATOM      3  N   UNL     1       1.522   8.925  19.215  0.00  0.00    +0.000 NA
ATOM      4  C   UNL     1       1.547   8.134  20.349  0.00  0.00    +0.000 A 
ATOM      5  N   UNL     1       2.095   6.901  20.186  0.00  0.00    +0.000 N 
ATOM      6  N   UNL     1       1.072   8.494  21.513  0.00  0.00    +0.000 NA
ATOM      7  C   UNL     1       0.513   9.719  21.599  0.00  0.00    +0.000 A 
ATOM      8  N   UNL     1       0.014  10.386  22.614  0.00  0.00    +0.000 NA
ATOM      9  C   UNL     1      -0.424  11.564  22.042  0.00  0.00    +0.000 A 
ATOM     10  N   UNL     1      -0.202  11.671  20.721  0.00  0.00    +0.000 NA
ATOM     11  N   UNL     1       0.397  10.490  20.486  0.00  0.00    +0.000 N 
ATOM     12  H   UNL     1       1.504  10.752  17.450  0.00  0.00    +0.000 HD
ATOM     13  H   UNL     1       0.625  11.888  18.391  0.00  0.00    +0.000 HD
ATOM     14  H   UNL     1       2.455   6.696  19.263  0.00  0.00    +0.000 HD
ENDROOT
BRANCH   9  15
ATOM     15  C   UNL     1      -1.097  12.627  22.844  0.00  0.00    +0.000 A 
ATOM     16  C   UNL     1      -2.456  12.710  23.086  0.00  0.00    +0.000 A 
ATOM     17  C   UNL     1      -2.663  13.866  23.875  0.00  0.00    +0.000 A 
ATOM     18  C   UNL     1      -1.422  14.428  24.057  0.00  0.00    +0.000 A 
ATOM     19  O   UNL     1      -0.465  13.676  23.455  0.00  0.00    +0.000 OA
ENDBRANCH   9  15
BRANCH   5  20
ATOM     20  C   UNL     1       1.688   5.745  20.964  0.00  0.00    +0.000 C 
BRANCH  20  21
ATOM     21  C   UNL     1       2.584   4.522  20.654  0.00  0.00    +0.000 C 
ATOM     22  C   UNL     1       1.839   3.219  20.923  0.00  0.00    +0.000 C 
ATOM     23  C   UNL     1       1.027   3.007  19.660  0.00  0.00    +0.000 C 
ATOM     24  C   UNL     1       1.798   3.741  18.566  0.00  0.00    +0.000 C 
ATOM     25  N   UNL     1       2.930   4.449  19.206  0.00  0.00    +0.000 NA
BRANCH  25  26
ATOM     26  C   UNL     1       4.177   3.692  18.971  0.00  0.00    +0.000 C 
BRANCH  26  27
ATOM     27  C   UNL     1       5.261   4.458  18.251  0.00  0.00    +0.000 A 
ATOM     28  C   UNL     1       6.303   5.083  18.953  0.00  0.00    +0.000 A 
ATOM     29  C   UNL     1       7.249   5.864  18.278  0.00  0.00    +0.000 A 
ATOM     30  C   UNL     1       7.169   6.020  16.894  0.00  0.00    +0.000 A 
ATOM     31  C   UNL     1       6.156   5.378  16.192  0.00  0.00    +0.000 A 
ATOM     32  F   UNL     1       6.086   5.524  14.861  0.00  0.00    +0.000 F 
ATOM     33  C   UNL     1       5.211   4.606  16.860  0.00  0.00    +0.000 A 
ATOM     34  F   UNL     1       4.237   4.007  16.158  0.00  0.00    +0.000 F 
ENDBRANCH  26  27
ENDBRANCH  25  26
ENDBRANCH  20  21
ENDBRANCH   5  20
TORSDOF 5
ENDMDL
MODEL 3
REMARK VINA RESULT:      -9.3      0.878      1.010
REMARK  Name = 
REMARK  5 active torsions:
REMARK  status: ('A' for Active; 'I' for Inactive)
REMARK    1  A    between atoms: N_5  and  C_6
REMARK    2  A    between atoms: C_6  and  C_7
REMARK    3  A    between atoms: N_11  and  C_12
REMARK    4  A    between atoms: C_12  and  C_13
REMARK    5  A    between atoms: C_24  and  C_25
REMARK                            x       y       z     vdW  Elec       q    Type
REMARK                         _______ _______ _______ _____ _____    ______ ____
ROOT
ATOM      1  N   UNL     1       0.956  11.261  18.595  0.00  0.00    +0.000 N 
ATOM      2  C   UNL     1       0.891  10.279  19.552  0.00  0.00    +0.000 A 
ATOM      3  N   UNL     1       1.550   9.163  19.457  0.00  0.00    +0.000 NA
ATOM      4  C   UNL     1       1.397   8.212  20.450  0.00  0.00    +0.000 A 
ATOM      5  N   UNL     1       2.036   7.033  20.229  0.00  0.00    +0.000 N 
ATOM      6  N   UNL     1       0.684   8.381  21.533  0.00  0.00    +0.000 NA
ATOM      7  C   UNL     1       0.051   9.564  21.676  0.00  0.00    +0.000 A 
ATOM      8  N   UNL     1      -0.675  10.058  22.653  0.00  0.00    +0.000 NA
ATOM      9  C   UNL     1      -1.058  11.296  22.176  0.00  0.00    +0.000 A 
ATOM     10  N   UNL     1      -0.588  11.605  20.955  0.00  0.00    +0.000 NA
ATOM     11  N   UNL     1       0.111  10.490  20.683  0.00  0.00    +0.000 N 
ATOM     12  H   UNL     1       1.775  11.232  18.000  0.00  0.00    +0.000 HD
ATOM     13  H   UNL     1       0.665  12.190  18.895  0.00  0.00    +0.000 HD
ATOM     14  H   UNL     1       2.580   6.978  19.378  0.00  0.00    +0.000 HD
ENDROOT
BRANCH   9  15
ATOM     15  C   UNL     1      -1.934  12.208  22.967  0.00  0.00    +0.000 A 
ATOM     16  C   UNL     1      -1.647  13.525  23.280  0.00  0.00    +0.000 A 
ATOM     17  C   UNL     1      -2.734  14.012  24.044  0.00  0.00    +0.000 A 
ATOM     18  C   UNL     1      -3.613  12.962  24.165  0.00  0.00    +0.000 A 
ATOM     19  O   UNL     1      -3.148  11.873  23.501  0.00  0.00    +0.000 OA
ENDBRANCH   9  15
BRANCH   5  20
ATOM     20  C   UNL     1       1.551   5.763  20.738  0.00  0.00    +0.000 C 
BRANCH  20  21
ATOM     21  C   UNL     1       2.642   4.670  20.639  0.00  0.00    +0.000 C 
ATOM     22  C   UNL     1       2.267   3.450  21.473  0.00  0.00    +0.000 C 
ATOM     23  C   UNL     1       1.335   2.671  20.564  0.00  0.00    +0.000 C 
ATOM     24  C   UNL     1       1.734   3.077  19.147  0.00  0.00    +0.000 C 
ATOM     25  N   UNL     1       2.761   4.138  19.252  0.00  0.00    +0.000 NA
BRANCH  25  26
ATOM     26  C   UNL     1       4.094   3.557  18.992  0.00  0.00    +0.000 C 
BRANCH  26  27
ATOM     27  C   UNL     1       4.917   4.287  17.959  0.00  0.00    +0.000 A 
ATOM     28  C   UNL     1       4.671   4.131  16.585  0.00  0.00    +0.000 A 
ATOM     29  C   UNL     1       5.500   4.745  15.639  0.00  0.00    +0.000 A 
ATOM     30  C   UNL     1       6.577   5.529  16.054  0.00  0.00    +0.000 A 
ATOM     31  C   UNL     1       6.805   5.711  17.414  0.00  0.00    +0.000 A 
ATOM     32  F   UNL     1       7.836   6.470  17.809  0.00  0.00    +0.000 F 
ATOM     33  C   UNL     1       5.987   5.098  18.357  0.00  0.00    +0.000 A 
ATOM     34  F   UNL     1       6.238   5.280  19.662  0.00  0.00    +0.000 F 
ENDBRANCH  26  27
ENDBRANCH  25  26
ENDBRANCH  20  21
ENDBRANCH   5  20
TORSDOF 5
ENDMDL
MODEL 4
REMARK VINA RESULT:      -9.1      1.234      1.584
REMARK  Name = 
REMARK  5 active torsions:
REMARK  status: ('A' for Active; 'I' for Inactive)
REMARK    1  A    between atoms: N_5  and  C_6
REMARK    2  A    between atoms: C_6  and  C_7
REMARK    3  A    between atoms: N_11  and  C_12
REMARK    4  A    between atoms: C_12  and  C_13
REMARK    5  A    between atoms: C_24  and  C_25
REMARK                            x       y       z     vdW  Elec       q    Type
REMARK                         _______ _______ _______ _____ _____    ______ ____
ROOT
ATOM      1  N   UNL     1       1.312  10.722  17.945  0.00  0.00    +0.000 N 
ATOM      2  C   UNL     1       1.203   9.853  19.002  0.00  0.00    +0.000 A 
ATOM      3  N   UNL     1       1.866   8.737  19.062  0.00  0.00    +0.000 NA
ATOM      4  C   UNL     1       1.668   7.902  20.148  0.00  0.00    +0.000 A 
ATOM      5  N   UNL     1       2.315   6.709  20.088  0.00  0.00    +0.000 N 
ATOM      6  N   UNL     1       0.907   8.188  21.171  0.00  0.00    +0.000 NA
ATOM      7  C   UNL     1       0.267   9.375  21.152  0.00  0.00    +0.000 A 
ATOM      8  N   UNL     1      -0.501   9.973  22.035  0.00  0.00    +0.000 NA
ATOM      9  C   UNL     1      -0.862  11.147  21.405  0.00  0.00    +0.000 A 
ATOM     10  N   UNL     1      -0.338  11.321  20.180  0.00  0.00    +0.000 NA
ATOM     11  N   UNL     1       0.373  10.185  20.066  0.00  0.00    +0.000 N 
ATOM     12  H   UNL     1       2.156  10.631  17.395  0.00  0.00    +0.000 HD
ATOM     13  H   UNL     1       1.008  11.677  18.126  0.00  0.00    +0.000 HD
ATOM     14  H   UNL     1       2.898   6.562  19.275  0.00  0.00    +0.000 HD
ENDROOT
BRANCH   9  15
ATOM     15  C   UNL     1      -1.773  12.138  22.049  0.00  0.00    +0.000 A 
ATOM     16  C   UNL     1      -1.548  12.766  23.260  0.00  0.00    +0.000 A 
ATOM     17  C   UNL     1      -2.657  13.612  23.497  0.00  0.00    +0.000 A 
ATOM     18  C   UNL     1      -3.500  13.441  22.425  0.00  0.00    +0.000 A 
ATOM     19  O   UNL     1      -2.967  12.566  21.534  0.00  0.00    +0.000 OA
ENDBRANCH   9  15
BRANCH   5  20
ATOM     20  C   UNL     1       1.807   5.501  20.714  0.00  0.00    +0.000 C 
BRANCH  20  21
ATOM     21  C   UNL     1       2.594   4.255  20.241  0.00  0.00    +0.000 C 
ATOM     22  C   UNL     1       1.818   2.977  20.537  0.00  0.00    +0.000 C 
ATOM     23  C   UNL     1       0.853   2.870  19.372  0.00  0.00    +0.000 C 
ATOM     24  C   UNL     1       1.527   3.624  18.228  0.00  0.00    +0.000 C 
ATOM     25  N   UNL     1       2.763   4.243  18.760  0.00  0.00    +0.000 NA
BRANCH  25  26
ATOM     26  C   UNL     1       3.931   3.442  18.340  0.00  0.00    +0.000 C 
BRANCH  26  27
ATOM     27  C   UNL     1       5.195   4.234  18.106  0.00  0.00    +0.000 A 
ATOM     28  C   UNL     1       5.863   4.873  19.163  0.00  0.00    +0.000 A 
ATOM     29  C   UNL     1       6.982   5.677  18.916  0.00  0.00    +0.000 A 
ATOM     30  C   UNL     1       7.452   5.843  17.613  0.00  0.00    +0.000 A 
ATOM     31  C   UNL     1       6.811   5.187  16.567  0.00  0.00    +0.000 A 
ATOM     32  F   UNL     1       7.268   5.343  15.317  0.00  0.00    +0.000 F 
ATOM     33  C   UNL     1       5.695   4.393  16.808  0.00  0.00    +0.000 A 
ATOM     34  F   UNL     1       5.089   3.782  15.779  0.00  0.00    +0.000 F 
ENDBRANCH  26  27
ENDBRANCH  25  26
ENDBRANCH  20  21
ENDBRANCH   5  20
TORSDOF 5
ENDMDL
MODEL 5
REMARK VINA RESULT:      -9.1      1.600      1.826
REMARK  Name = 
REMARK  5 active torsions:
REMARK  status: ('A' for Active; 'I' for Inactive)
REMARK    1  A    between atoms: N_5  and  C_6
REMARK    2  A    between atoms: C_6  and  C_7
REMARK    3  A    between atoms: N_11  and  C_12
REMARK    4  A    between atoms: C_12  and  C_13
REMARK    5  A    between atoms: C_24  and  C_25
REMARK                            x       y       z     vdW  Elec       q    Type
REMARK                         _______ _______ _______ _____ _____    ______ ____
ROOT
ATOM      1  N   UNL     1       0.405  11.183  18.608  0.00  0.00    +0.000 N 
ATOM      2  C   UNL     1       0.490  10.281  19.639  0.00  0.00    +0.000 A 
ATOM      3  N   UNL     1       1.217   9.207  19.572  0.00  0.00    +0.000 NA
ATOM      4  C   UNL     1       1.215   8.333  20.645  0.00  0.00    +0.000 A 
ATOM      5  N   UNL     1       1.916   7.184  20.458  0.00  0.00    +0.000 N 
ATOM      6  N   UNL     1       0.584   8.544  21.770  0.00  0.00    +0.000 NA
ATOM      7  C   UNL     1      -0.119   9.690  21.877  0.00  0.00    +0.000 A 
ATOM      8  N   UNL     1      -0.794  10.216  22.874  0.00  0.00    +0.000 NA
ATOM      9  C   UNL     1      -1.303  11.383  22.339  0.00  0.00    +0.000 A 
ATOM     10  N   UNL     1      -0.959  11.620  21.062  0.00  0.00    +0.000 NA
ATOM     11  N   UNL     1      -0.207  10.534  20.815  0.00  0.00    +0.000 N 
ATOM     12  H   UNL     1       1.171  11.158  17.947  0.00  0.00    +0.000 HD
ATOM     13  H   UNL     1       0.074  12.113  18.860  0.00  0.00    +0.000 HD
ATOM     14  H   UNL     1       2.391   7.094  19.570  0.00  0.00    +0.000 HD
ENDROOT
BRANCH   9  15
ATOM     15  C   UNL     1      -2.173  12.298  23.132  0.00  0.00    +0.000 A 
ATOM     16  C   UNL     1      -1.855  13.595  23.495  0.00  0.00    +0.000 A 
ATOM     17  C   UNL     1      -2.949  14.093  24.241  0.00  0.00    +0.000 A 
ATOM     18  C   UNL     1      -3.864  13.070  24.303  0.00  0.00    +0.000 A 
ATOM     19  O   UNL     1      -3.414  11.986  23.620  0.00  0.00    +0.000 OA
ENDBRANCH   9  15
BRANCH   5  20
ATOM     20  C   UNL     1       1.566   5.930  21.104  0.00  0.00    +0.000 C 
BRANCH  20  21
ATOM     21  C   UNL     1       2.497   4.785  20.637  0.00  0.00    +0.000 C 
ATOM     22  C   UNL     1       1.931   3.427  21.038  0.00  0.00    +0.000 C 
ATOM     23  C   UNL     1       0.926   3.124  19.943  0.00  0.00    +0.000 C 
ATOM     24  C   UNL     1       1.419   3.904  18.727  0.00  0.00    +0.000 C 
ATOM     25  N   UNL     1       2.581   4.719  19.151  0.00  0.00    +0.000 NA
BRANCH  25  26
ATOM     26  C   UNL     1       3.827   4.069  18.694  0.00  0.00    +0.000 C 
BRANCH  26  27
ATOM     27  C   UNL     1       4.470   4.706  17.485  0.00  0.00    +0.000 A 
ATOM     28  C   UNL     1       4.518   6.101  17.332  0.00  0.00    +0.000 A 
ATOM     29  C   UNL     1       5.037   6.671  16.164  0.00  0.00    +0.000 A 
ATOM     30  C   UNL     1       5.522   5.856  15.141  0.00  0.00    +0.000 A 
ATOM     31  C   UNL     1       5.504   4.475  15.302  0.00  0.00    +0.000 A 
ATOM     32  F   UNL     1       5.977   3.695  14.321  0.00  0.00    +0.000 F 
ATOM     33  C   UNL     1       4.984   3.904  16.459  0.00  0.00    +0.000 A 
ATOM     34  F   UNL     1       4.968   2.568  16.582  0.00  0.00    +0.000 F 
ENDBRANCH  26  27
ENDBRANCH  25  26
ENDBRANCH  20  21
ENDBRANCH   5  20
TORSDOF 5
ENDMDL
MODEL 6
REMARK VINA RESULT:      -9.0      1.424      1.832
REMARK  Name = 
REMARK  5 active torsions:
REMARK  status: ('A' for Active; 'I' for Inactive)
REMARK    1  A    between atoms: N_5  and  C_6
REMARK    2  A    between atoms: C_6  and  C_7
REMARK    3  A    between atoms: N_11  and  C_12
REMARK    4  A    between atoms: C_12  and  C_13
REMARK    5  A    between atoms: C_24  and  C_25
REMARK                            x       y       z     vdW  Elec       q    Type
REMARK                         _______ _______ _______ _____ _____    ______ ____
ROOT
ATOM      1  N   UNL     1       0.497  11.174  18.349  0.00  0.00    +0.000 N 
ATOM      2  C   UNL     1       0.650  10.252  19.354  0.00  0.00    +0.000 A 
ATOM      3  N   UNL     1       1.414   9.207  19.237  0.00  0.00    +0.000 NA
ATOM      4  C   UNL     1       1.480   8.309  20.287  0.00  0.00    +0.000 A 
ATOM      5  N   UNL     1       2.216   7.192  20.050  0.00  0.00    +0.000 N 
ATOM      6  N   UNL     1       0.879   8.469  21.437  0.00  0.00    +0.000 NA
ATOM      7  C   UNL     1       0.138   9.585  21.595  0.00  0.00    +0.000 A 
ATOM      8  N   UNL     1      -0.523  10.061  22.626  0.00  0.00    +0.000 NA
ATOM      9  C   UNL     1      -1.093  11.220  22.137  0.00  0.00    +0.000 A 
ATOM     10  N   UNL     1      -0.800  11.500  20.855  0.00  0.00    +0.000 NA
ATOM     11  N   UNL     1      -0.017  10.449  20.557  0.00  0.00    +0.000 N 
ATOM     12  H   UNL     1       1.242  11.194  17.663  0.00  0.00    +0.000 HD
ATOM     13  H   UNL     1       0.141  12.084  18.635  0.00  0.00    +0.000 HD
ATOM     14  H   UNL     1       2.665   7.141  19.145  0.00  0.00    +0.000 HD
ENDROOT
BRANCH   9  15
ATOM     15  C   UNL     1      -1.970  12.083  22.980  0.00  0.00    +0.000 A 
ATOM     16  C   UNL     1      -1.713  13.398  23.321  0.00  0.00    +0.000 A 
ATOM     17  C   UNL     1      -2.790  13.830  24.131  0.00  0.00    +0.000 A 
ATOM     18  C   UNL     1      -3.633  12.751  24.249  0.00  0.00    +0.000 A 
ATOM     19  O   UNL     1      -3.157  11.695  23.542  0.00  0.00    +0.000 OA
ENDBRANCH   9  15
BRANCH   5  20
ATOM     20  C   UNL     1       1.936   5.911  20.675  0.00  0.00    +0.000 C 
BRANCH  20  21
ATOM     21  C   UNL     1       2.799   4.787  20.054  0.00  0.00    +0.000 C 
ATOM     22  C   UNL     1       2.003   3.491  19.939  0.00  0.00    +0.000 C 
ATOM     23  C   UNL     1       1.220   3.668  18.653  0.00  0.00    +0.000 C 
ATOM     24  C   UNL     1       2.044   4.645  17.818  0.00  0.00    +0.000 C 
ATOM     25  N   UNL     1       3.182   5.103  18.648  0.00  0.00    +0.000 NA
BRANCH  25  26
ATOM     26  C   UNL     1       4.408   4.392  18.234  0.00  0.00    +0.000 C 
BRANCH  26  27
ATOM     27  C   UNL     1       5.675   5.210  18.310  0.00  0.00    +0.000 A 
ATOM     28  C   UNL     1       6.667   4.935  19.265  0.00  0.00    +0.000 A 
ATOM     29  C   UNL     1       7.793   5.759  19.379  0.00  0.00    +0.000 A 
ATOM     30  C   UNL     1       7.945   6.859  18.535  0.00  0.00    +0.000 A 
ATOM     31  C   UNL     1       6.980   7.117  17.568  0.00  0.00    +0.000 A 
ATOM     32  F   UNL     1       7.132   8.171  16.755  0.00  0.00    +0.000 F 
ATOM     33  C   UNL     1       5.857   6.304  17.455  0.00  0.00    +0.000 A 
ATOM     34  F   UNL     1       4.935   6.583  16.521  0.00  0.00    +0.000 F 
ENDBRANCH  26  27
ENDBRANCH  25  26
ENDBRANCH  20  21
ENDBRANCH   5  20
TORSDOF 5
ENDMDL
MODEL 7
REMARK VINA RESULT:      -8.9      1.438      1.599
REMARK  Name = 
REMARK  5 active torsions:
REMARK  status: ('A' for Active; 'I' for Inactive)
REMARK    1  A    between atoms: N_5  and  C_6
REMARK    2  A    between atoms: C_6  and  C_7
REMARK    3  A    between atoms: N_11  and  C_12
REMARK    4  A    between atoms: C_12  and  C_13
REMARK    5  A    between atoms: C_24  and  C_25
REMARK                            x       y       z     vdW  Elec       q    Type
REMARK                         _______ _______ _______ _____ _____    ______ ____
ROOT
ATOM      1  N   UNL     1       0.391  11.109  18.447  0.00  0.00    +0.000 N 
ATOM      2  C   UNL     1       0.523  10.216  19.482  0.00  0.00    +0.000 A 
ATOM      3  N   UNL     1       1.254   9.146  19.395  0.00  0.00    +0.000 NA
ATOM      4  C   UNL     1       1.301   8.281  20.474  0.00  0.00    +0.000 A 
ATOM      5  N   UNL     1       2.002   7.136  20.269  0.00  0.00    +0.000 N 
ATOM      6  N   UNL     1       0.713   8.498  21.621  0.00  0.00    +0.000 NA
ATOM      7  C   UNL     1       0.007   9.640  21.747  0.00  0.00    +0.000 A 
ATOM      8  N   UNL     1      -0.633  10.169  22.765  0.00  0.00    +0.000 NA
ATOM      9  C   UNL     1      -1.171  11.327  22.242  0.00  0.00    +0.000 A 
ATOM     10  N   UNL     1      -0.879  11.557  20.949  0.00  0.00    +0.000 NA
ATOM     11  N   UNL     1      -0.129  10.473  20.682  0.00  0.00    +0.000 N 
ATOM     12  H   UNL     1       1.131  11.084  17.757  0.00  0.00    +0.000 HD
ATOM     13  H   UNL     1       0.063  12.038  18.705  0.00  0.00    +0.000 HD
ATOM     14  H   UNL     1       2.443   7.042  19.364  0.00  0.00    +0.000 HD
ENDROOT
BRANCH   9  15
ATOM     15  C   UNL     1      -2.016  12.244  23.061  0.00  0.00    +0.000 A 
ATOM     16  C   UNL     1      -1.665  13.521  23.457  0.00  0.00    +0.000 A 
ATOM     17  C   UNL     1      -2.744  14.027  24.219  0.00  0.00    +0.000 A 
ATOM     18  C   UNL     1      -3.685  13.026  24.255  0.00  0.00    +0.000 A 
ATOM     19  O   UNL     1      -3.263  11.950  23.542  0.00  0.00    +0.000 OA
ENDBRANCH   9  15
BRANCH   5  20
ATOM     20  C   UNL     1       1.688   5.886  20.939  0.00  0.00    +0.000 C 
BRANCH  20  21
ATOM     21  C   UNL     1       2.678   4.769  20.527  0.00  0.00    +0.000 C 
ATOM     22  C   UNL     1       2.097   3.391  20.823  0.00  0.00    +0.000 C 
ATOM     23  C   UNL     1       1.211   3.114  19.625  0.00  0.00    +0.000 C 
ATOM     24  C   UNL     1       1.808   3.943  18.490  0.00  0.00    +0.000 C 
ATOM     25  N   UNL     1       2.909   4.757  19.055  0.00  0.00    +0.000 NA
BRANCH  25  26
ATOM     26  C   UNL     1       4.205   4.140  18.701  0.00  0.00    +0.000 C 
BRANCH  26  27
ATOM     27  C   UNL     1       4.699   4.451  17.309  0.00  0.00    +0.000 A 
ATOM     28  C   UNL     1       5.355   3.482  16.533  0.00  0.00    +0.000 A 
ATOM     29  C   UNL     1       5.886   3.813  15.280  0.00  0.00    +0.000 A 
ATOM     30  C   UNL     1       5.758   5.112  14.786  0.00  0.00    +0.000 A 
ATOM     31  C   UNL     1       5.083   6.066  15.539  0.00  0.00    +0.000 A 
ATOM     32  F   UNL     1       4.956   7.310  15.058  0.00  0.00    +0.000 F 
ATOM     33  C   UNL     1       4.559   5.742  16.786  0.00  0.00    +0.000 A 
ATOM     34  F   UNL     1       3.923   6.686  17.496  0.00  0.00    +0.000 F 
ENDBRANCH  26  27
ENDBRANCH  25  26
ENDBRANCH  20  21
ENDBRANCH   5  20
TORSDOF 5
ENDMDL
MODEL 8
REMARK VINA RESULT:      -8.7      1.350      1.726
REMARK  Name = 
REMARK  5 active torsions:
REMARK  status: ('A' for Active; 'I' for Inactive)
REMARK    1  A    between atoms: N_5  and  C_6
REMARK    2  A    between atoms: C_6  and  C_7
REMARK    3  A    between atoms: N_11  and  C_12
REMARK    4  A    between atoms: C_12  and  C_13
REMARK    5  A    between atoms: C_24  and  C_25
REMARK                            x       y       z     vdW  Elec       q    Type
REMARK                         _______ _______ _______ _____ _____    ______ ____
ROOT
ATOM      1  N   UNL     1      -0.980  11.255  17.766  0.00  0.00    +0.000 N 
ATOM      2  C   UNL     1      -0.261  10.620  18.748  0.00  0.00    +0.000 A 
ATOM      3  N   UNL     1       0.557   9.643  18.497  0.00  0.00    +0.000 NA
ATOM      4  C   UNL     1       1.214   9.035  19.553  0.00  0.00    +0.000 A 
ATOM      5  N   UNL     1       1.971   7.956  19.223  0.00  0.00    +0.000 N 
ATOM      6  N   UNL     1       1.128   9.422  20.799  0.00  0.00    +0.000 NA
ATOM      7  C   UNL     1       0.334  10.481  21.062  0.00  0.00    +0.000 A 
ATOM      8  N   UNL     1       0.089  11.139  22.173  0.00  0.00    +0.000 NA
ATOM      9  C   UNL     1      -0.829  12.095  21.785  0.00  0.00    +0.000 A 
ATOM     10  N   UNL     1      -1.152  12.077  20.481  0.00  0.00    +0.000 NA
ATOM     11  N   UNL     1      -0.389  11.051  20.064  0.00  0.00    +0.000 N 
ATOM     12  H   UNL     1      -0.604  11.167  16.830  0.00  0.00    +0.000 HD
ATOM     13  H   UNL     1      -1.341  12.176  18.008  0.00  0.00    +0.000 HD
ATOM     14  H   UNL     1       2.003   7.723  18.239  0.00  0.00    +0.000 HD
ENDROOT
BRANCH   9  15
ATOM     15  C   UNL     1      -1.414  13.064  22.756  0.00  0.00    +0.000 A 
ATOM     16  C   UNL     1      -2.764  13.248  22.993  0.00  0.00    +0.000 A 
ATOM     17  C   UNL     1      -2.876  14.261  23.974  0.00  0.00    +0.000 A 
ATOM     18  C   UNL     1      -1.590  14.647  24.269  0.00  0.00    +0.000 A 
ATOM     19  O   UNL     1      -0.698  13.917  23.553  0.00  0.00    +0.000 OA
ENDBRANCH   9  15
BRANCH   5  20
ATOM     20  C   UNL     1       2.209   6.848  20.131  0.00  0.00    +0.000 C 
BRANCH  20  21
ATOM     21  C   UNL     1       3.167   5.809  19.502  0.00  0.00    +0.000 C 
ATOM     22  C   UNL     1       2.859   4.406  20.013  0.00  0.00    +0.000 C 
ATOM     23  C   UNL     1       1.711   3.952  19.131  0.00  0.00    +0.000 C 
ATOM     24  C   UNL     1       1.865   4.749  17.838  0.00  0.00    +0.000 C 
ATOM     25  N   UNL     1       2.977   5.709  18.028  0.00  0.00    +0.000 NA
BRANCH  25  26
ATOM     26  C   UNL     1       4.185   5.200  17.345  0.00  0.00    +0.000 C 
BRANCH  26  27
ATOM     27  C   UNL     1       5.466   5.914  17.702  0.00  0.00    +0.000 A 
ATOM     28  C   UNL     1       5.814   7.135  17.102  0.00  0.00    +0.000 A 
ATOM     29  C   UNL     1       7.047   7.738  17.377  0.00  0.00    +0.000 A 
ATOM     30  C   UNL     1       7.940   7.134  18.262  0.00  0.00    +0.000 A 
ATOM     31  C   UNL     1       7.587   5.941  18.881  0.00  0.00    +0.000 A 
ATOM     32  F   UNL     1       8.445   5.367  19.736  0.00  0.00    +0.000 F 
ATOM     33  C   UNL     1       6.365   5.335  18.606  0.00  0.00    +0.000 A 
ATOM     34  F   UNL     1       6.055   4.178  19.208  0.00  0.00    +0.000 F 
ENDBRANCH  26  27
ENDBRANCH  25  26
ENDBRANCH  20  21
ENDBRANCH   5  20
TORSDOF 5
ENDMDL
MODEL 9
REMARK VINA RESULT:      -8.4      1.455      1.649
REMARK  Name = 
REMARK  5 active torsions:
REMARK  status: ('A' for Active; 'I' for Inactive)
REMARK    1  A    between atoms: N_5  and  C_6
REMARK    2  A    between atoms: C_6  and  C_7
REMARK    3  A    between atoms: N_11  and  C_12
REMARK    4  A    between atoms: C_12  and  C_13
REMARK    5  A    between atoms: C_24  and  C_25
REMARK                            x       y       z     vdW  Elec       q    Type
REMARK                         _______ _______ _______ _____ _____    ______ ____
ROOT
ATOM      1  N   UNL     1       1.045  11.405  18.805  0.00  0.00    +0.000 N 
ATOM      2  C   UNL     1       0.942  10.416  19.751  0.00  0.00    +0.000 A 
ATOM      3  N   UNL     1       1.570   9.283  19.651  0.00  0.00    +0.000 NA
ATOM      4  C   UNL     1       1.379   8.326  20.632  0.00  0.00    +0.000 A 
ATOM      5  N   UNL     1       1.986   7.132  20.404  0.00  0.00    +0.000 N 
ATOM      6  N   UNL     1       0.658   8.504  21.708  0.00  0.00    +0.000 NA
ATOM      7  C   UNL     1       0.057   9.702  21.857  0.00  0.00    +0.000 A 
ATOM      8  N   UNL     1      -0.665  10.207  22.832  0.00  0.00    +0.000 NA
ATOM      9  C   UNL     1      -1.007  11.459  22.365  0.00  0.00    +0.000 A 
ATOM     10  N   UNL     1      -0.515  11.769  21.153  0.00  0.00    +0.000 NA
ATOM     11  N   UNL     1       0.155  10.636  20.875  0.00  0.00    +0.000 N 
ATOM     12  H   UNL     1       1.869  11.360  18.219  0.00  0.00    +0.000 HD
ATOM     13  H   UNL     1       0.777  12.339  19.113  0.00  0.00    +0.000 HD
ATOM     14  H   UNL     1       2.538   7.070  19.559  0.00  0.00    +0.000 HD
ENDROOT
BRANCH   9  15
ATOM     15  C   UNL     1      -1.865  12.388  23.156  0.00  0.00    +0.000 A 
ATOM     16  C   UNL     1      -3.177  12.151  23.525  0.00  0.00    +0.000 A 
ATOM     17  C   UNL     1      -3.611  13.284  24.252  0.00  0.00    +0.000 A 
ATOM     18  C   UNL     1      -2.546  14.152  24.272  0.00  0.00    +0.000 A 
ATOM     19  O   UNL     1      -1.479  13.613  23.630  0.00  0.00    +0.000 OA
ENDBRANCH   9  15
BRANCH   5  20
ATOM     20  C   UNL     1       1.459   5.870  20.894  0.00  0.00    +0.000 C 
BRANCH  20  21
ATOM     21  C   UNL     1       2.464   4.717  20.657  0.00  0.00    +0.000 C 
ATOM     22  C   UNL     1       2.360   3.670  21.760  0.00  0.00    +0.000 C 
ATOM     23  C   UNL     1       1.192   2.808  21.322  0.00  0.00    +0.000 C 
ATOM     24  C   UNL     1       1.137   2.957  19.804  0.00  0.00    +0.000 C 
ATOM     25  N   UNL     1       2.149   3.963  19.410  0.00  0.00    +0.000 NA
BRANCH  25  26
ATOM     26  C   UNL     1       3.337   3.276  18.863  0.00  0.00    +0.000 C 
BRANCH  26  27
ATOM     27  C   UNL     1       4.397   4.189  18.296  0.00  0.00    +0.000 A 
ATOM     28  C   UNL     1       5.749   4.047  18.647  0.00  0.00    +0.000 A 
ATOM     29  C   UNL     1       6.705   4.958  18.183  0.00  0.00    +0.000 A 
ATOM     30  C   UNL     1       6.323   6.014  17.356  0.00  0.00    +0.000 A 
ATOM     31  C   UNL     1       4.990   6.141  16.981  0.00  0.00    +0.000 A 
ATOM     32  F   UNL     1       4.627   7.153  16.181  0.00  0.00    +0.000 F 
ATOM     33  C   UNL     1       4.036   5.241  17.445  0.00  0.00    +0.000 A 
ATOM     34  F   UNL     1       2.755   5.394  17.078  0.00  0.00    +0.000 F 
ENDBRANCH  26  27
ENDBRANCH  25  26
ENDBRANCH  20  21
ENDBRANCH   5  20
TORSDOF 5
ENDMDL
