MODEL 1
REMARK VINA RESULT:      -6.2      0.000      0.000
REMARK  Name = 
REMARK  4 active torsions:
REMARK  status: ('A' for Active; 'I' for Inactive)
REMARK    1  A    between atoms: C_1  and  C_2
REMARK    2  A    between atoms: C_2  and  C_3
REMARK    3  A    between atoms: C_5  and  C_6
REMARK    4  A    between atoms: C_9  and  C_10
REMARK                            x       y       z     vdW  Elec       q    Type
REMARK                         _______ _______ _______ _____ _____    ______ ____
ROOT
ATOM      1  C   UNL     1       4.168   4.025  17.517  0.00  0.00    +0.000 A 
ATOM      2  C   UNL     1       2.910   3.525  17.147  0.00  0.00    +0.000 A 
ATOM      3  C   UNL     1       1.848   3.507  18.059  0.00  0.00    +0.000 A 
ATOM      4  C   UNL     1       2.019   3.992  19.359  0.00  0.00    +0.000 A 
ATOM      5  C   UNL     1       0.880   4.014  20.336  0.00  0.00    +0.000 C 
ATOM      6  C   UNL     1       3.280   4.465  19.744  0.00  0.00    +0.000 A 
ATOM      7  C   UNL     1       4.345   4.482  18.835  0.00  0.00    +0.000 A 
ATOM      8 CL   UNL     1       5.866   5.096  19.385  0.00  0.00    +0.000 Cl
ENDROOT
BRANCH   1  11
ATOM      9  C   UNL     1       4.943   6.574  16.122  0.00  0.00    +0.000 C 
ATOM     10  C   UNL     1       5.582   5.233  15.873  0.00  0.00    +0.000 C 
ATOM     11  C   UNL     1       5.233   4.093  16.501  0.00  0.00    +0.000 C 
BRANCH  10  12
ATOM     12  C   UNL     1       6.714   5.231  14.859  0.00  0.00    +0.000 C 
ATOM     13  N   UNL     1       7.654   5.229  14.018  0.00  0.00    +0.000 NA
ENDBRANCH  10  12
ENDBRANCH   1  11
TORSDOF 2
ENDMDL
MODEL 2
REMARK VINA RESULT:      -6.1      1.417      1.568
REMARK  Name = 
REMARK  4 active torsions:
REMARK  status: ('A' for Active; 'I' for Inactive)
REMARK    1  A    between atoms: C_1  and  C_2
REMARK    2  A    between atoms: C_2  and  C_3
REMARK    3  A    between atoms: C_5  and  C_6
REMARK    4  A    between atoms: C_9  and  C_10
REMARK                            x       y       z     vdW  Elec       q    Type
REMARK                         _______ _______ _______ _____ _____    ______ ____
ROOT
ATOM      1  C   UNL     1       3.876   4.103  17.454  0.00  0.00    +0.000 A 
ATOM      2  C   UNL     1       3.680   2.753  17.783  0.00  0.00    +0.000 A 
ATOM      3  C   UNL     1       2.801   2.384  18.808  0.00  0.00    +0.000 A 
ATOM      4  C   UNL     1       2.095   3.356  19.524  0.00  0.00    +0.000 A 
ATOM      5  C   UNL     1       1.121   2.975  20.600  0.00  0.00    +0.000 C 
ATOM      6  C   UNL     1       2.308   4.707  19.220  0.00  0.00    +0.000 A 
ATOM      7  C   UNL     1       3.189   5.078  18.197  0.00  0.00    +0.000 A 
ATOM      8 CL   UNL     1       3.385   6.767  17.874  0.00  0.00    +0.000 Cl
ENDROOT
BRANCH   1  11
ATOM      9  C   UNL     1       6.811   4.678  17.763  0.00  0.00    +0.000 C 
ATOM     10  C   UNL     1       6.069   4.696  16.454  0.00  0.00    +0.000 C 
ATOM     11  C   UNL     1       4.753   4.437  16.318  0.00  0.00    +0.000 C 
BRANCH  10  12
ATOM     12  C   UNL     1       6.917   5.001  15.229  0.00  0.00    +0.000 C 
ATOM     13  N   UNL     1       7.621   5.254  14.214  0.00  0.00    +0.000 NA
ENDBRANCH  10  12
ENDBRANCH   1  11
TORSDOF 2
ENDMDL
MODEL 3
REMARK VINA RESULT:      -5.9      2.107      2.504
REMARK  Name = 
REMARK  4 active torsions:
REMARK  status: ('A' for Active; 'I' for Inactive)
REMARK    1  A    between atoms: C_1  and  C_2
REMARK    2  A    between atoms: C_2  and  C_3
REMARK    3  A    between atoms: C_5  and  C_6
REMARK    4  A    between atoms: C_9  and  C_10
REMARK                            x       y       z     vdW  Elec       q    Type
REMARK                         _______ _______ _______ _____ _____    ______ ____
ROOT
ATOM      1  C   UNL     1       3.685   5.031  17.760  0.00  0.00    +0.000 A 
ATOM      2  C   UNL     1       3.689   3.751  17.186  0.00  0.00    +0.000 A 
ATOM      3  C   UNL     1       2.692   2.820  17.498  0.00  0.00    +0.000 A 
ATOM      4  C   UNL     1       1.666   3.148  18.389  0.00  0.00    +0.000 A 
ATOM      5  C   UNL     1       0.569   2.174  18.705  0.00  0.00    +0.000 C 
ATOM      6  C   UNL     1       1.672   4.415  18.989  0.00  0.00    +0.000 A 
ATOM      7  C   UNL     1       2.670   5.347  18.680  0.00  0.00    +0.000 A 
ATOM      8 CL   UNL     1       2.596   6.893  19.452  0.00  0.00    +0.000 Cl
ENDROOT
BRANCH   1  11
ATOM      9  C   UNL     1       6.343   5.300  19.140  0.00  0.00    +0.000 C 
ATOM     10  C   UNL     1       5.904   6.125  17.959  0.00  0.00    +0.000 C 
ATOM     11  C   UNL     1       4.712   6.001  17.343  0.00  0.00    +0.000 C 
BRANCH  10  12
ATOM     12  C   UNL     1       6.927   7.127  17.450  0.00  0.00    +0.000 C 
ATOM     13  N   UNL     1       7.776   7.958  17.027  0.00  0.00    +0.000 NA
ENDBRANCH  10  12
ENDBRANCH   1  11
TORSDOF 2
ENDMDL
MODEL 4
REMARK VINA RESULT:      -5.7      2.200      2.746
REMARK  Name = 
REMARK  4 active torsions:
REMARK  status: ('A' for Active; 'I' for Inactive)
REMARK    1  A    between atoms: C_1  and  C_2
REMARK    2  A    between atoms: C_2  and  C_3
REMARK    3  A    between atoms: C_5  and  C_6
REMARK    4  A    between atoms: C_9  and  C_10
REMARK                            x       y       z     vdW  Elec       q    Type
REMARK                         _______ _______ _______ _____ _____    ______ ____
ROOT
ATOM      1  C   UNL     1       3.869   5.317  17.544  0.00  0.00    +0.000 A 
ATOM      2  C   UNL     1       2.798   5.663  18.381  0.00  0.00    +0.000 A 
ATOM      3  C   UNL     1       1.827   4.719  18.733  0.00  0.00    +0.000 A 
ATOM      4  C   UNL     1       1.907   3.406  18.259  0.00  0.00    +0.000 A 
ATOM      5  C   UNL     1       0.894   2.372  18.657  0.00  0.00    +0.000 C 
ATOM      6  C   UNL     1       2.958   3.061  17.399  0.00  0.00    +0.000 A 
ATOM      7  C   UNL     1       3.929   4.005  17.044  0.00  0.00    +0.000 A 
ATOM      8 CL   UNL     1       5.202   3.495  15.989  0.00  0.00    +0.000 Cl
ENDROOT
BRANCH   1  11
ATOM      9  C   UNL     1       6.502   5.408  18.995  0.00  0.00    +0.000 C 
ATOM     10  C   UNL     1       6.087   6.369  17.913  0.00  0.00    +0.000 C 
ATOM     11  C   UNL     1       4.907   6.325  17.263  0.00  0.00    +0.000 C 
BRANCH  10  12
ATOM     12  C   UNL     1       7.122   7.420  17.544  0.00  0.00    +0.000 C 
ATOM     13  N   UNL     1       7.980   8.292  17.238  0.00  0.00    +0.000 NA
ENDBRANCH  10  12
ENDBRANCH   1  11
TORSDOF 2
ENDMDL
MODEL 5
REMARK VINA RESULT:      -5.6      2.130      2.506
REMARK  Name = 
REMARK  4 active torsions:
REMARK  status: ('A' for Active; 'I' for Inactive)
REMARK    1  A    between atoms: C_1  and  C_2
REMARK    2  A    between atoms: C_2  and  C_3
REMARK    3  A    between atoms: C_5  and  C_6
REMARK    4  A    between atoms: C_9  and  C_10
REMARK                            x       y       z     vdW  Elec       q    Type
REMARK                         _______ _______ _______ _____ _____    ______ ____
ROOT
ATOM      1  C   UNL     1       4.016   4.932  18.613  0.00  0.00    +0.000 A 
ATOM      2  C   UNL     1       4.242   3.564  18.833  0.00  0.00    +0.000 A 
ATOM      3  C   UNL     1       3.176   2.658  18.874  0.00  0.00    +0.000 A 
ATOM      4  C   UNL     1       1.862   3.097  18.692  0.00  0.00    +0.000 A 
ATOM      5  C   UNL     1       0.712   2.132  18.697  0.00  0.00    +0.000 C 
ATOM      6  C   UNL     1       1.626   4.465  18.501  0.00  0.00    +0.000 A 
ATOM      7  C   UNL     1       2.691   5.374  18.462  0.00  0.00    +0.000 A 
ATOM      8 CL   UNL     1       2.316   7.044  18.207  0.00  0.00    +0.000 Cl
ENDROOT
BRANCH   1  11
ATOM      9  C   UNL     1       5.223   5.737  15.978  0.00  0.00    +0.000 C 
ATOM     10  C   UNL     1       5.719   6.197  17.324  0.00  0.00    +0.000 C 
ATOM     11  C   UNL     1       5.175   5.835  18.503  0.00  0.00    +0.000 C 
BRANCH  10  12
ATOM     12  C   UNL     1       6.894   7.160  17.289  0.00  0.00    +0.000 C 
ATOM     13  N   UNL     1       7.869   7.959  17.260  0.00  0.00    +0.000 NA
ENDBRANCH  10  12
ENDBRANCH   1  11
TORSDOF 2
ENDMDL
MODEL 6
REMARK VINA RESULT:      -5.6      1.698      2.159
REMARK  Name = 
REMARK  4 active torsions:
REMARK  status: ('A' for Active; 'I' for Inactive)
REMARK    1  A    between atoms: C_1  and  C_2
REMARK    2  A    between atoms: C_2  and  C_3
REMARK    3  A    between atoms: C_5  and  C_6
REMARK    4  A    between atoms: C_9  and  C_10
REMARK                            x       y       z     vdW  Elec       q    Type
REMARK                         _______ _______ _______ _____ _____    ______ ____
ROOT
ATOM      1  C   UNL     1       4.453   4.420  19.245  0.00  0.00    +0.000 A 
ATOM      2  C   UNL     1       4.568   3.113  19.742  0.00  0.00    +0.000 A 
ATOM      3  C   UNL     1       3.553   2.551  20.525  0.00  0.00    +0.000 A 
ATOM      4  C   UNL     1       2.400   3.281  20.826  0.00  0.00    +0.000 A 
ATOM      5  C   UNL     1       1.286   2.679  21.633  0.00  0.00    +0.000 C 
ATOM      6  C   UNL     1       2.292   4.598  20.358  0.00  0.00    +0.000 A 
ATOM      7  C   UNL     1       3.307   5.163  19.576  0.00  0.00    +0.000 A 
ATOM      8 CL   UNL     1       3.090   6.788  19.025  0.00  0.00    +0.000 Cl
ENDROOT
BRANCH   1  11
ATOM      9  C   UNL     1       4.490   3.954  16.274  0.00  0.00    +0.000 C 
ATOM     10  C   UNL     1       5.533   4.733  17.032  0.00  0.00    +0.000 C 
ATOM     11  C   UNL     1       5.513   4.941  18.363  0.00  0.00    +0.000 C 
BRANCH  10  12
ATOM     12  C   UNL     1       6.643   5.330  16.182  0.00  0.00    +0.000 C 
ATOM     13  N   UNL     1       7.563   5.826  15.478  0.00  0.00    +0.000 NA
ENDBRANCH  10  12
ENDBRANCH   1  11
TORSDOF 2
ENDMDL
MODEL 7
REMARK VINA RESULT:      -5.5      1.577      1.699
REMARK  Name = 
REMARK  4 active torsions:
REMARK  status: ('A' for Active; 'I' for Inactive)
REMARK    1  A    between atoms: C_1  and  C_2
REMARK    2  A    between atoms: C_2  and  C_3
REMARK    3  A    between atoms: C_5  and  C_6
REMARK    4  A    between atoms: C_9  and  C_10
REMARK                            x       y       z     vdW  Elec       q    Type
REMARK                         _______ _______ _______ _____ _____    ______ ____
ROOT
ATOM      1  C   UNL     1       4.156   4.341  17.441  0.00  0.00    +0.000 A 
ATOM      2  C   UNL     1       3.931   3.109  18.073  0.00  0.00    +0.000 A 
ATOM      3  C   UNL     1       3.317   3.047  19.329  0.00  0.00    +0.000 A 
ATOM      4  C   UNL     1       2.909   4.215  19.980  0.00  0.00    +0.000 A 
ATOM      5  C   UNL     1       2.216   4.162  21.310  0.00  0.00    +0.000 C 
ATOM      6  C   UNL     1       3.157   5.451  19.369  0.00  0.00    +0.000 A 
ATOM      7  C   UNL     1       3.774   5.516  18.113  0.00  0.00    +0.000 A 
ATOM      8 CL   UNL     1       4.030   7.080  17.420  0.00  0.00    +0.000 Cl
ENDROOT
BRANCH   1  11
ATOM      9  C   UNL     1       7.110   4.575  16.927  0.00  0.00    +0.000 C 
ATOM     10  C   UNL     1       6.060   4.456  15.854  0.00  0.00    +0.000 C 
ATOM     11  C   UNL     1       4.737   4.351  16.087  0.00  0.00    +0.000 C 
BRANCH  10  12
ATOM     12  C   UNL     1       6.588   4.425  14.428  0.00  0.00    +0.000 C 
ATOM     13  N   UNL     1       7.027   4.399  13.246  0.00  0.00    +0.000 NA
ENDBRANCH  10  12
ENDBRANCH   1  11
TORSDOF 2
ENDMDL
MODEL 8
REMARK VINA RESULT:      -5.5      1.956      2.334
REMARK  Name = 
REMARK  4 active torsions:
REMARK  status: ('A' for Active; 'I' for Inactive)
REMARK    1  A    between atoms: C_1  and  C_2
REMARK    2  A    between atoms: C_2  and  C_3
REMARK    3  A    between atoms: C_5  and  C_6
REMARK    4  A    between atoms: C_9  and  C_10
REMARK                            x       y       z     vdW  Elec       q    Type
REMARK                         _______ _______ _______ _____ _____    ______ ____
ROOT
ATOM      1  C   UNL     1       3.592   3.525  18.348  0.00  0.00    +0.000 A 
ATOM      2  C   UNL     1       4.263   2.899  19.410  0.00  0.00    +0.000 A 
ATOM      3  C   UNL     1       3.587   2.566  20.590  0.00  0.00    +0.000 A 
ATOM      4  C   UNL     1       2.226   2.849  20.734  0.00  0.00    +0.000 A 
ATOM      5  C   UNL     1       1.480   2.465  21.978  0.00  0.00    +0.000 C 
ATOM      6  C   UNL     1       1.556   3.501  19.690  0.00  0.00    +0.000 A 
ATOM      7  C   UNL     1       2.230   3.836  18.509  0.00  0.00    +0.000 A 
ATOM      8 CL   UNL     1       1.328   4.626  17.262  0.00  0.00    +0.000 Cl
ENDROOT
BRANCH   1  11
ATOM      9  C   UNL     1       4.987   6.128  17.780  0.00  0.00    +0.000 C 
ATOM     10  C   UNL     1       4.952   4.952  16.840  0.00  0.00    +0.000 C 
ATOM     11  C   UNL     1       4.327   3.786  17.098  0.00  0.00    +0.000 C 
BRANCH  10  12
ATOM     12  C   UNL     1       5.719   5.136  15.541  0.00  0.00    +0.000 C 
ATOM     13  N   UNL     1       6.356   5.288  14.463  0.00  0.00    +0.000 NA
ENDBRANCH  10  12
ENDBRANCH   1  11
TORSDOF 2
ENDMDL
MODEL 9
REMARK VINA RESULT:      -5.5      2.053      2.844
REMARK  Name = 
REMARK  4 active torsions:
REMARK  status: ('A' for Active; 'I' for Inactive)
REMARK    1  A    between atoms: C_1  and  C_2
REMARK    2  A    between atoms: C_2  and  C_3
REMARK    3  A    between atoms: C_5  and  C_6
REMARK    4  A    between atoms: C_9  and  C_10
REMARK                            x       y       z     vdW  Elec       q    Type
REMARK                         _______ _______ _______ _____ _____    ______ ____
ROOT
ATOM      1  C   UNL     1       2.616   4.465  18.809  0.00  0.00    +0.000 A 
ATOM      2  C   UNL     1       2.376   5.154  20.007  0.00  0.00    +0.000 A 
ATOM      3  C   UNL     1       1.900   4.482  21.139  0.00  0.00    +0.000 A 
ATOM      4  C   UNL     1       1.657   3.106  21.099  0.00  0.00    +0.000 A 
ATOM      5  C   UNL     1       1.183   2.365  22.315  0.00  0.00    +0.000 C 
ATOM      6  C   UNL     1       1.867   2.417  19.897  0.00  0.00    +0.000 A 
ATOM      7  C   UNL     1       2.341   3.088  18.763  0.00  0.00    +0.000 A 
ATOM      8 CL   UNL     1       2.587   2.162  17.323  0.00  0.00    +0.000 Cl
ENDROOT
BRANCH   1  11
ATOM      9  C   UNL     1       5.574   4.666  18.303  0.00  0.00    +0.000 C 
ATOM     10  C   UNL     1       4.513   5.295  17.439  0.00  0.00    +0.000 C 
ATOM     11  C   UNL     1       3.188   5.202  17.668  0.00  0.00    +0.000 C 
BRANCH  10  12
ATOM     12  C   UNL     1       5.026   6.045  16.221  0.00  0.00    +0.000 C 
ATOM     13  N   UNL     1       5.452   6.667  15.210  0.00  0.00    +0.000 NA
ENDBRANCH  10  12
ENDBRANCH   1  11
TORSDOF 2
ENDMDL
