MODEL 1
REMARK VINA RESULT:      -8.2      0.000      0.000
REMARK  Name = 
REMARK  6 active torsions:
REMARK  status: ('A' for Active; 'I' for Inactive)
REMARK    1  A    between atoms: C_1  and  N_2
REMARK    2  A    between atoms: C_7  and  C_8
REMARK    3  A    between atoms: C_11  and  N_12
REMARK    4  A    between atoms: N_12  and  S_13
REMARK    5  A    between atoms: S_13  and  C_14
REMARK    6  A    between atoms: N_21  and  C_22
REMARK                            x       y       z     vdW  Elec       q    Type
REMARK                         _______ _______ _______ _____ _____    ______ ____
ROOT
ATOM      1  C   UNL     1       0.037  10.080  20.977  0.00  0.00    +0.000 C 
ATOM      2  N   UNL     1       0.928   9.364  20.086  0.00  0.00    +0.000 N 
ATOM      3  C   UNL     1       1.374   9.956  18.935  0.00  0.00    +0.000 A 
ATOM      4  N   UNL     1       2.150   9.383  18.076  0.00  0.00    +0.000 NA
ATOM      5  C   UNL     1       2.570   8.072  18.351  0.00  0.00    +0.000 A 
ATOM      6  C   UNL     1       3.393   7.453  17.425  0.00  0.00    +0.000 A 
ATOM      7  C   UNL     1       3.814   6.149  17.652  0.00  0.00    +0.000 A 
ATOM      8  N   UNL     1       3.435   5.457  18.765  0.00  0.00    +0.000 NA
ATOM      9  C   UNL     1       2.634   6.057  19.687  0.00  0.00    +0.000 A 
ATOM     10  N   UNL     1       2.330   5.373  20.898  0.00  0.00    +0.000 N 
ATOM     11  C   UNL     1       2.190   7.371  19.493  0.00  0.00    +0.000 A 
ATOM     12  C   UNL     1       1.268   8.057  20.416  0.00  0.00    +0.000 A 
ATOM     13  O   UNL     1       0.812   7.471  21.396  0.00  0.00    +0.000 OA
ATOM     14  H   UNL     1       1.540   5.825  21.371  0.00  0.00    +0.000 HD
ENDROOT
BRANCH   7  15
ATOM     15  C   UNL     1       4.656   5.434  16.667  0.00  0.00    +0.000 A 
ATOM     16  C   UNL     1       5.260   6.102  15.581  0.00  0.00    +0.000 A 
ATOM     17  C   UNL     1       5.983   5.408  14.608  0.00  0.00    +0.000 A 
ATOM     18  C   UNL     1       6.126   4.027  14.695  0.00  0.00    +0.000 A 
ATOM     19  C   UNL     1       5.572   3.341  15.775  0.00  0.00    +0.000 A 
ATOM     20  C   UNL     1       4.849   4.044  16.752  0.00  0.00    +0.000 A 
BRANCH  18  21
ATOM     21  N   UNL     1       6.840   3.363  13.663  0.00  0.00    +0.000 N 
ATOM     22  H   UNL     1       7.858   3.434  13.685  0.00  0.00    +0.000 HD
BRANCH  21  23
ATOM     23  S   UNL     1       6.250   3.444  12.088  0.00  0.00    +0.000 S 
ATOM     24  C   UNL     1       6.746   1.860  11.439  0.00  0.00    +0.000 C 
ATOM     25  O   UNL     1       4.807   3.523  12.093  0.00  0.00    +0.000 OA
ATOM     26  O   UNL     1       7.054   4.450  11.426  0.00  0.00    +0.000 OA
ENDBRANCH  21  23
ENDBRANCH  18  21
ENDBRANCH   7  15
BRANCH  10  27
ATOM     27  C   UNL     1       2.365   3.912  20.958  0.00  0.00    +0.000 C 
ATOM     28  C   UNL     1       1.432   3.156  21.874  0.00  0.00    +0.000 C 
ATOM     29  C   UNL     1       1.246   3.085  20.389  0.00  0.00    +0.000 C 
ENDBRANCH  10  27
TORSDOF 4
ENDMDL
MODEL 2
REMARK VINA RESULT:      -7.9      3.902      8.471
REMARK  Name = 
REMARK  6 active torsions:
REMARK  status: ('A' for Active; 'I' for Inactive)
REMARK    1  A    between atoms: C_1  and  N_2
REMARK    2  A    between atoms: C_7  and  C_8
REMARK    3  A    between atoms: C_11  and  N_12
REMARK    4  A    between atoms: N_12  and  S_13
REMARK    5  A    between atoms: S_13  and  C_14
REMARK    6  A    between atoms: N_21  and  C_22
REMARK                            x       y       z     vdW  Elec       q    Type
REMARK                         _______ _______ _______ _____ _____    ______ ____
ROOT
ATOM      1  C   UNL     1       6.132   3.677  15.610  0.00  0.00    +0.000 C 
ATOM      2  N   UNL     1       5.326   4.734  16.187  0.00  0.00    +0.000 N 
ATOM      3  C   UNL     1       5.408   6.009  15.696  0.00  0.00    +0.000 A 
ATOM      4  N   UNL     1       4.743   7.013  16.165  0.00  0.00    +0.000 NA
ATOM      5  C   UNL     1       3.872   6.772  17.239  0.00  0.00    +0.000 A 
ATOM      6  C   UNL     1       3.168   7.850  17.751  0.00  0.00    +0.000 A 
ATOM      7  C   UNL     1       2.311   7.655  18.826  0.00  0.00    +0.000 A 
ATOM      8  N   UNL     1       2.145   6.428  19.398  0.00  0.00    +0.000 NA
ATOM      9  C   UNL     1       2.826   5.359  18.900  0.00  0.00    +0.000 A 
ATOM     10  N   UNL     1       2.569   4.062  19.428  0.00  0.00    +0.000 N 
ATOM     11  C   UNL     1       3.698   5.516  17.816  0.00  0.00    +0.000 A 
ATOM     12  C   UNL     1       4.515   4.417  17.270  0.00  0.00    +0.000 A 
ATOM     13  O   UNL     1       4.488   3.301  17.786  0.00  0.00    +0.000 OA
ATOM     14  H   UNL     1       3.309   3.411  19.142  0.00  0.00    +0.000 HD
ENDROOT
BRANCH   7  15
ATOM     15  C   UNL     1       1.574   8.787  19.432  0.00  0.00    +0.000 A 
ATOM     16  C   UNL     1       1.168   8.772  20.783  0.00  0.00    +0.000 A 
ATOM     17  C   UNL     1       0.399   9.804  21.326  0.00  0.00    +0.000 A 
ATOM     18  C   UNL     1       0.018  10.883  20.534  0.00  0.00    +0.000 A 
ATOM     19  C   UNL     1       0.433  10.945  19.205  0.00  0.00    +0.000 A 
ATOM     20  C   UNL     1       1.208   9.906  18.665  0.00  0.00    +0.000 A 
BRANCH  18  21
ATOM     21  N   UNL     1      -0.793  11.889  21.122  0.00  0.00    +0.000 N 
ATOM     22  H   UNL     1      -1.694  12.072  20.681  0.00  0.00    +0.000 HD
BRANCH  21  23
ATOM     23  S   UNL     1      -0.063  13.313  21.650  0.00  0.00    +0.000 S 
ATOM     24  C   UNL     1      -0.502  14.443  20.344  0.00  0.00    +0.000 C 
ATOM     25  O   UNL     1      -0.664  13.759  22.886  0.00  0.00    +0.000 OA
ATOM     26  O   UNL     1       1.362  13.075  21.551  0.00  0.00    +0.000 OA
ENDBRANCH  21  23
ENDBRANCH  18  21
ENDBRANCH   7  15
BRANCH  10  27
ATOM     27  C   UNL     1       2.058   3.897  20.788  0.00  0.00    +0.000 C 
ATOM     28  C   UNL     1       1.143   2.746  21.134  0.00  0.00    +0.000 C 
ATOM     29  C   UNL     1       2.543   2.780  21.669  0.00  0.00    +0.000 C 
ENDBRANCH  10  27
TORSDOF 4
ENDMDL
MODEL 3
REMARK VINA RESULT:      -7.7      3.840      8.369
REMARK  Name = 
REMARK  6 active torsions:
REMARK  status: ('A' for Active; 'I' for Inactive)
REMARK    1  A    between atoms: C_1  and  N_2
REMARK    2  A    between atoms: C_7  and  C_8
REMARK    3  A    between atoms: C_11  and  N_12
REMARK    4  A    between atoms: N_12  and  S_13
REMARK    5  A    between atoms: S_13  and  C_14
REMARK    6  A    between atoms: N_21  and  C_22
REMARK                            x       y       z     vdW  Elec       q    Type
REMARK                         _______ _______ _______ _____ _____    ______ ____
ROOT
ATOM      1  C   UNL     1       6.309   3.714  15.643  0.00  0.00    +0.000 C 
ATOM      2  N   UNL     1       5.468   4.749  16.210  0.00  0.00    +0.000 N 
ATOM      3  C   UNL     1       5.495   6.018  15.695  0.00  0.00    +0.000 A 
ATOM      4  N   UNL     1       4.796   7.004  16.153  0.00  0.00    +0.000 NA
ATOM      5  C   UNL     1       3.947   6.749  17.241  0.00  0.00    +0.000 A 
ATOM      6  C   UNL     1       3.207   7.808  17.740  0.00  0.00    +0.000 A 
ATOM      7  C   UNL     1       2.370   7.601  18.829  0.00  0.00    +0.000 A 
ATOM      8  N   UNL     1       2.258   6.379  19.426  0.00  0.00    +0.000 NA
ATOM      9  C   UNL     1       2.974   5.328  18.939  0.00  0.00    +0.000 A 
ATOM     10  N   UNL     1       2.774   4.032  19.494  0.00  0.00    +0.000 N 
ATOM     11  C   UNL     1       3.828   5.498  17.843  0.00  0.00    +0.000 A 
ATOM     12  C   UNL     1       4.681   4.421  17.308  0.00  0.00    +0.000 A 
ATOM     13  O   UNL     1       4.704   3.315  17.845  0.00  0.00    +0.000 OA
ATOM     14  H   UNL     1       3.536   3.405  19.212  0.00  0.00    +0.000 HD
ENDROOT
BRANCH   7  15
ATOM     15  C   UNL     1       1.595   8.714  19.422  0.00  0.00    +0.000 A 
ATOM     16  C   UNL     1       1.109   8.659  20.746  0.00  0.00    +0.000 A 
ATOM     17  C   UNL     1       0.307   9.675  21.271  0.00  0.00    +0.000 A 
ATOM     18  C   UNL     1      -0.028  10.777  20.490  0.00  0.00    +0.000 A 
ATOM     19  C   UNL     1       0.467  10.878  19.191  0.00  0.00    +0.000 A 
ATOM     20  C   UNL     1       1.275   9.856  18.668  0.00  0.00    +0.000 A 
BRANCH  18  21
ATOM     21  N   UNL     1      -0.874  11.766  21.057  0.00  0.00    +0.000 N 
ATOM     22  H   UNL     1      -1.354  11.521  21.924  0.00  0.00    +0.000 HD
BRANCH  21  23
ATOM     23  S   UNL     1      -1.864  12.667  20.036  0.00  0.00    +0.000 S 
ATOM     24  C   UNL     1      -3.053  13.329  21.187  0.00  0.00    +0.000 C 
ATOM     25  O   UNL     1      -1.121  13.756  19.444  0.00  0.00    +0.000 OA
ATOM     26  O   UNL     1      -2.557  11.696  19.215  0.00  0.00    +0.000 OA
ENDBRANCH  21  23
ENDBRANCH  18  21
ENDBRANCH   7  15
BRANCH  10  27
ATOM     27  C   UNL     1       2.284   3.873  20.862  0.00  0.00    +0.000 C 
ATOM     28  C   UNL     1       1.132   2.945  21.166  0.00  0.00    +0.000 C 
ATOM     29  C   UNL     1       2.515   2.599  21.626  0.00  0.00    +0.000 C 
ENDBRANCH  10  27
TORSDOF 4
ENDMDL
MODEL 4
REMARK VINA RESULT:      -7.7      3.878      8.453
REMARK  Name = 
REMARK  6 active torsions:
REMARK  status: ('A' for Active; 'I' for Inactive)
REMARK    1  A    between atoms: C_1  and  N_2
REMARK    2  A    between atoms: C_7  and  C_8
REMARK    3  A    between atoms: C_11  and  N_12
REMARK    4  A    between atoms: N_12  and  S_13
REMARK    5  A    between atoms: S_13  and  C_14
REMARK    6  A    between atoms: N_21  and  C_22
REMARK                            x       y       z     vdW  Elec       q    Type
REMARK                         _______ _______ _______ _____ _____    ______ ____
ROOT
ATOM      1  C   UNL     1       6.114   3.597  15.617  0.00  0.00    +0.000 C 
ATOM      2  N   UNL     1       5.342   4.698  16.155  0.00  0.00    +0.000 N 
ATOM      3  C   UNL     1       5.611   5.983  15.767  0.00  0.00    +0.000 A 
ATOM      4  N   UNL     1       4.988   7.024  16.213  0.00  0.00    +0.000 NA
ATOM      5  C   UNL     1       3.962   6.816  17.148  0.00  0.00    +0.000 A 
ATOM      6  C   UNL     1       3.301   7.932  17.636  0.00  0.00    +0.000 A 
ATOM      7  C   UNL     1       2.292   7.769  18.577  0.00  0.00    +0.000 A 
ATOM      8  N   UNL     1       1.935   6.536  19.039  0.00  0.00    +0.000 NA
ATOM      9  C   UNL     1       2.570   5.431  18.561  0.00  0.00    +0.000 A 
ATOM     10  N   UNL     1       2.122   4.141  18.962  0.00  0.00    +0.000 N 
ATOM     11  C   UNL     1       3.592   5.555  17.611  0.00  0.00    +0.000 A 
ATOM     12  C   UNL     1       4.366   4.409  17.102  0.00  0.00    +0.000 A 
ATOM     13  O   UNL     1       4.164   3.275  17.533  0.00  0.00    +0.000 OA
ATOM     14  H   UNL     1       2.828   3.433  18.731  0.00  0.00    +0.000 HD
ENDROOT
BRANCH   7  15
ATOM     15  C   UNL     1       1.592   8.936  19.158  0.00  0.00    +0.000 A 
ATOM     16  C   UNL     1       1.420  10.135  18.435  0.00  0.00    +0.000 A 
ATOM     17  C   UNL     1       0.834  11.261  19.018  0.00  0.00    +0.000 A 
ATOM     18  C   UNL     1       0.399  11.219  20.339  0.00  0.00    +0.000 A 
ATOM     19  C   UNL     1       0.523  10.038  21.069  0.00  0.00    +0.000 A 
ATOM     20  C   UNL     1       1.110   8.909  20.477  0.00  0.00    +0.000 A 
BRANCH  18  21
ATOM     21  N   UNL     1      -0.157  12.400  20.897  0.00  0.00    +0.000 N 
ATOM     22  H   UNL     1       0.273  12.754  21.752  0.00  0.00    +0.000 HD
BRANCH  21  23
ATOM     23  S   UNL     1      -1.832  12.567  20.935  0.00  0.00    +0.000 S 
ATOM     24  C   UNL     1      -2.013  14.340  20.951  0.00  0.00    +0.000 C 
ATOM     25  O   UNL     1      -2.420  12.041  19.724  0.00  0.00    +0.000 OA
ATOM     26  O   UNL     1      -2.239  12.083  22.238  0.00  0.00    +0.000 OA
ENDBRANCH  21  23
ENDBRANCH  18  21
ENDBRANCH   7  15
BRANCH  10  27
ATOM     27  C   UNL     1       1.419   3.956  20.231  0.00  0.00    +0.000 C 
ATOM     28  C   UNL     1       1.417   2.614  20.923  0.00  0.00    +0.000 C 
ATOM     29  C   UNL     1       2.175   3.763  21.516  0.00  0.00    +0.000 C 
ENDBRANCH  10  27
TORSDOF 4
ENDMDL
MODEL 5
REMARK VINA RESULT:      -7.7      3.967      8.424
REMARK  Name = 
REMARK  6 active torsions:
REMARK  status: ('A' for Active; 'I' for Inactive)
REMARK    1  A    between atoms: C_1  and  N_2
REMARK    2  A    between atoms: C_7  and  C_8
REMARK    3  A    between atoms: C_11  and  N_12
REMARK    4  A    between atoms: N_12  and  S_13
REMARK    5  A    between atoms: S_13  and  C_14
REMARK    6  A    between atoms: N_21  and  C_22
REMARK                            x       y       z     vdW  Elec       q    Type
REMARK                         _______ _______ _______ _____ _____    ______ ____
ROOT
ATOM      1  C   UNL     1       6.927   4.083  16.153  0.00  0.00    +0.000 C 
ATOM      2  N   UNL     1       5.942   5.057  16.577  0.00  0.00    +0.000 N 
ATOM      3  C   UNL     1       5.927   6.309  16.022  0.00  0.00    +0.000 A 
ATOM      4  N   UNL     1       5.100   7.243  16.357  0.00  0.00    +0.000 NA
ATOM      5  C   UNL     1       4.149   6.947  17.346  0.00  0.00    +0.000 A 
ATOM      6  C   UNL     1       3.269   7.951  17.714  0.00  0.00    +0.000 A 
ATOM      7  C   UNL     1       2.326   7.702  18.703  0.00  0.00    +0.000 A 
ATOM      8  N   UNL     1       2.244   6.492  19.327  0.00  0.00    +0.000 NA
ATOM      9  C   UNL     1       3.097   5.493  18.968  0.00  0.00    +0.000 A 
ATOM     10  N   UNL     1       2.938   4.201  19.542  0.00  0.00    +0.000 N 
ATOM     11  C   UNL     1       4.061   5.707  17.975  0.00  0.00    +0.000 A 
ATOM     12  C   UNL     1       5.058   4.693  17.585  0.00  0.00    +0.000 A 
ATOM     13  O   UNL     1       5.105   3.608  18.161  0.00  0.00    +0.000 OA
ATOM     14  H   UNL     1       3.777   3.634  19.376  0.00  0.00    +0.000 HD
ENDROOT
BRANCH   7  15
ATOM     15  C   UNL     1       1.397   8.761  19.159  0.00  0.00    +0.000 A 
ATOM     16  C   UNL     1       0.933   9.768  18.287  0.00  0.00    +0.000 A 
ATOM     17  C   UNL     1       0.125  10.812  18.743  0.00  0.00    +0.000 A 
ATOM     18  C   UNL     1      -0.245  10.877  20.082  0.00  0.00    +0.000 A 
ATOM     19  C   UNL     1       0.168   9.878  20.962  0.00  0.00    +0.000 A 
ATOM     20  C   UNL     1       0.977   8.829  20.498  0.00  0.00    +0.000 A 
BRANCH  18  21
ATOM     21  N   UNL     1      -1.038  11.976  20.504  0.00  0.00    +0.000 N 
ATOM     22  H   UNL     1      -1.685  12.369  19.820  0.00  0.00    +0.000 HD
BRANCH  21  23
ATOM     23  S   UNL     1      -0.322  13.181  21.438  0.00  0.00    +0.000 S 
ATOM     24  C   UNL     1      -1.143  12.954  23.003  0.00  0.00    +0.000 C 
ATOM     25  O   UNL     1       1.091  12.920  21.601  0.00  0.00    +0.000 OA
ATOM     26  O   UNL     1      -0.795  14.432  20.882  0.00  0.00    +0.000 OA
ENDBRANCH  21  23
ENDBRANCH  18  21
ENDBRANCH   7  15
BRANCH  10  27
ATOM     27  C   UNL     1       2.300   4.037  20.848  0.00  0.00    +0.000 C 
ATOM     28  C   UNL     1       1.173   3.050  21.038  0.00  0.00    +0.000 C 
ATOM     29  C   UNL     1       2.510   2.792  21.664  0.00  0.00    +0.000 C 
ENDBRANCH  10  27
TORSDOF 4
ENDMDL
MODEL 6
REMARK VINA RESULT:      -7.5      3.837      8.591
REMARK  Name = 
REMARK  6 active torsions:
REMARK  status: ('A' for Active; 'I' for Inactive)
REMARK    1  A    between atoms: C_1  and  N_2
REMARK    2  A    between atoms: C_7  and  C_8
REMARK    3  A    between atoms: C_11  and  N_12
REMARK    4  A    between atoms: N_12  and  S_13
REMARK    5  A    between atoms: S_13  and  C_14
REMARK    6  A    between atoms: N_21  and  C_22
REMARK                            x       y       z     vdW  Elec       q    Type
REMARK                         _______ _______ _______ _____ _____    ______ ____
ROOT
ATOM      1  C   UNL     1       6.262   3.661  15.616  0.00  0.00    +0.000 C 
ATOM      2  N   UNL     1       5.437   4.702  16.194  0.00  0.00    +0.000 N 
ATOM      3  C   UNL     1       5.669   6.016  15.887  0.00  0.00    +0.000 A 
ATOM      4  N   UNL     1       4.998   7.007  16.374  0.00  0.00    +0.000 NA
ATOM      5  C   UNL     1       3.955   6.710  17.265  0.00  0.00    +0.000 A 
ATOM      6  C   UNL     1       3.241   7.772  17.796  0.00  0.00    +0.000 A 
ATOM      7  C   UNL     1       2.214   7.520  18.696  0.00  0.00    +0.000 A 
ATOM      8  N   UNL     1       1.889   6.252  19.077  0.00  0.00    +0.000 NA
ATOM      9  C   UNL     1       2.576   5.198  18.555  0.00  0.00    +0.000 A 
ATOM     10  N   UNL     1       2.164   3.873  18.869  0.00  0.00    +0.000 N 
ATOM     11  C   UNL     1       3.618   5.412  17.644  0.00  0.00    +0.000 A 
ATOM     12  C   UNL     1       4.446   4.325  17.093  0.00  0.00    +0.000 A 
ATOM     13  O   UNL     1       4.273   3.162  17.453  0.00  0.00    +0.000 OA
ATOM     14  H   UNL     1       2.901   3.204  18.619  0.00  0.00    +0.000 HD
ENDROOT
BRANCH   7  15
ATOM     15  C   UNL     1       1.457   8.627  19.322  0.00  0.00    +0.000 A 
ATOM     16  C   UNL     1       0.967   8.540  20.643  0.00  0.00    +0.000 A 
ATOM     17  C   UNL     1       0.180   9.552  21.197  0.00  0.00    +0.000 A 
ATOM     18  C   UNL     1      -0.135  10.683  20.451  0.00  0.00    +0.000 A 
ATOM     19  C   UNL     1       0.363  10.816  19.155  0.00  0.00    +0.000 A 
ATOM     20  C   UNL     1       1.156   9.797  18.603  0.00  0.00    +0.000 A 
BRANCH  18  21
ATOM     21  N   UNL     1      -0.966  11.667  21.047  0.00  0.00    +0.000 N 
ATOM     22  H   UNL     1      -1.066  12.551  20.547  0.00  0.00    +0.000 HD
BRANCH  21  23
ATOM     23  S   UNL     1      -0.875  11.905  22.711  0.00  0.00    +0.000 S 
ATOM     24  C   UNL     1      -2.583  12.206  23.122  0.00  0.00    +0.000 C 
ATOM     25  O   UNL     1      -0.434  10.697  23.371  0.00  0.00    +0.000 OA
ATOM     26  O   UNL     1      -0.165  13.156  22.883  0.00  0.00    +0.000 OA
ENDBRANCH  21  23
ENDBRANCH  18  21
ENDBRANCH   7  15
BRANCH  10  27
ATOM     27  C   UNL     1       1.434   3.591  20.105  0.00  0.00    +0.000 C 
ATOM     28  C   UNL     1       1.776   2.383  20.944  0.00  0.00    +0.000 C 
ATOM     29  C   UNL     1       2.087   3.759  21.448  0.00  0.00    +0.000 C 
ENDBRANCH  10  27
TORSDOF 4
ENDMDL
MODEL 7
REMARK VINA RESULT:      -7.5      3.804      8.352
REMARK  Name = 
REMARK  6 active torsions:
REMARK  status: ('A' for Active; 'I' for Inactive)
REMARK    1  A    between atoms: C_1  and  N_2
REMARK    2  A    between atoms: C_7  and  C_8
REMARK    3  A    between atoms: C_11  and  N_12
REMARK    4  A    between atoms: N_12  and  S_13
REMARK    5  A    between atoms: S_13  and  C_14
REMARK    6  A    between atoms: N_21  and  C_22
REMARK                            x       y       z     vdW  Elec       q    Type
REMARK                         _______ _______ _______ _____ _____    ______ ____
ROOT
ATOM      1  C   UNL     1       7.047   3.960  15.715  0.00  0.00    +0.000 C 
ATOM      2  N   UNL     1       6.132   4.950  16.245  0.00  0.00    +0.000 N 
ATOM      3  C   UNL     1       6.459   6.279  16.211  0.00  0.00    +0.000 A 
ATOM      4  N   UNL     1       5.713   7.224  16.681  0.00  0.00    +0.000 NA
ATOM      5  C   UNL     1       4.483   6.860  17.251  0.00  0.00    +0.000 A 
ATOM      6  C   UNL     1       3.688   7.871  17.765  0.00  0.00    +0.000 A 
ATOM      7  C   UNL     1       2.472   7.548  18.355  0.00  0.00    +0.000 A 
ATOM      8  N   UNL     1       2.039   6.258  18.444  0.00  0.00    +0.000 NA
ATOM      9  C   UNL     1       2.807   5.256  17.935  0.00  0.00    +0.000 A 
ATOM     10  N   UNL     1       2.304   3.925  17.932  0.00  0.00    +0.000 N 
ATOM     11  C   UNL     1       4.038   5.542  17.333  0.00  0.00    +0.000 A 
ATOM     12  C   UNL     1       4.949   4.502  16.822  0.00  0.00    +0.000 A 
ATOM     13  O   UNL     1       4.671   3.310  16.944  0.00  0.00    +0.000 OA
ATOM     14  H   UNL     1       3.064   3.259  17.755  0.00  0.00    +0.000 HD
ENDROOT
BRANCH   7  15
ATOM     15  C   UNL     1       1.613   8.592  18.957  0.00  0.00    +0.000 A 
ATOM     16  C   UNL     1       1.099   9.663  18.195  0.00  0.00    +0.000 A 
ATOM     17  C   UNL     1       0.360  10.690  18.787  0.00  0.00    +0.000 A 
ATOM     18  C   UNL     1       0.109  10.674  20.155  0.00  0.00    +0.000 A 
ATOM     19  C   UNL     1       0.573   9.612  20.930  0.00  0.00    +0.000 A 
ATOM     20  C   UNL     1       1.313   8.580  20.330  0.00  0.00    +0.000 A 
BRANCH  18  21
ATOM     21  N   UNL     1      -0.616  11.758  20.714  0.00  0.00    +0.000 N 
ATOM     22  H   UNL     1      -1.551  11.930  20.343  0.00  0.00    +0.000 HD
BRANCH  21  23
ATOM     23  S   UNL     1       0.196  13.199  21.031  0.00  0.00    +0.000 S 
ATOM     24  C   UNL     1      -0.601  13.735  22.532  0.00  0.00    +0.000 C 
ATOM     25  O   UNL     1       1.593  12.943  21.301  0.00  0.00    +0.000 OA
ATOM     26  O   UNL     1      -0.211  14.110  19.981  0.00  0.00    +0.000 OA
ENDBRANCH  21  23
ENDBRANCH  18  21
ENDBRANCH   7  15
BRANCH  10  27
ATOM     27  C   UNL     1       1.297   3.505  18.907  0.00  0.00    +0.000 C 
ATOM     28  C   UNL     1       0.715   2.112  18.863  0.00  0.00    +0.000 C 
ATOM     29  C   UNL     1       1.627   2.510  19.984  0.00  0.00    +0.000 C 
ENDBRANCH  10  27
TORSDOF 4
ENDMDL
MODEL 8
REMARK VINA RESULT:      -7.5      3.918      8.377
REMARK  Name = 
REMARK  6 active torsions:
REMARK  status: ('A' for Active; 'I' for Inactive)
REMARK    1  A    between atoms: C_1  and  N_2
REMARK    2  A    between atoms: C_7  and  C_8
REMARK    3  A    between atoms: C_11  and  N_12
REMARK    4  A    between atoms: N_12  and  S_13
REMARK    5  A    between atoms: S_13  and  C_14
REMARK    6  A    between atoms: N_21  and  C_22
REMARK                            x       y       z     vdW  Elec       q    Type
REMARK                         _______ _______ _______ _____ _____    ______ ____
ROOT
ATOM      1  C   UNL     1       6.339   3.788  15.635  0.00  0.00    +0.000 C 
ATOM      2  N   UNL     1       5.477   4.823  16.169  0.00  0.00    +0.000 N 
ATOM      3  C   UNL     1       5.504   6.084  15.638  0.00  0.00    +0.000 A 
ATOM      4  N   UNL     1       4.787   7.070  16.067  0.00  0.00    +0.000 NA
ATOM      5  C   UNL     1       3.916   6.823  17.140  0.00  0.00    +0.000 A 
ATOM      6  C   UNL     1       3.156   7.882  17.608  0.00  0.00    +0.000 A 
ATOM      7  C   UNL     1       2.297   7.681  18.681  0.00  0.00    +0.000 A 
ATOM      8  N   UNL     1       2.183   6.467  19.291  0.00  0.00    +0.000 NA
ATOM      9  C   UNL     1       2.919   5.416  18.835  0.00  0.00    +0.000 A 
ATOM     10  N   UNL     1       2.718   4.126  19.403  0.00  0.00    +0.000 N 
ATOM     11  C   UNL     1       3.795   5.579  17.756  0.00  0.00    +0.000 A 
ATOM     12  C   UNL     1       4.669   4.503  17.254  0.00  0.00    +0.000 A 
ATOM     13  O   UNL     1       4.690   3.405  17.807  0.00  0.00    +0.000 OA
ATOM     14  H   UNL     1       3.491   3.502  19.146  0.00  0.00    +0.000 HD
ENDROOT
BRANCH   7  15
ATOM     15  C   UNL     1       1.500   8.796  19.241  0.00  0.00    +0.000 A 
ATOM     16  C   UNL     1       1.142   8.841  20.606  0.00  0.00    +0.000 A 
ATOM     17  C   UNL     1       0.319   9.850  21.110  0.00  0.00    +0.000 A 
ATOM     18  C   UNL     1      -0.166  10.845  20.268  0.00  0.00    +0.000 A 
ATOM     19  C   UNL     1       0.198  10.849  18.922  0.00  0.00    +0.000 A 
ATOM     20  C   UNL     1       1.028   9.834  18.420  0.00  0.00    +0.000 A 
BRANCH  18  21
ATOM     21  N   UNL     1      -1.028  11.828  20.821  0.00  0.00    +0.000 N 
ATOM     22  H   UNL     1      -2.031  11.675  20.717  0.00  0.00    +0.000 HD
BRANCH  21  23
ATOM     23  S   UNL     1      -0.629  13.454  20.634  0.00  0.00    +0.000 S 
ATOM     24  C   UNL     1       1.047  13.482  21.238  0.00  0.00    +0.000 C 
ATOM     25  O   UNL     1      -0.636  13.817  19.235  0.00  0.00    +0.000 OA
ATOM     26  O   UNL     1      -1.444  14.164  21.598  0.00  0.00    +0.000 OA
ENDBRANCH  21  23
ENDBRANCH  18  21
ENDBRANCH   7  15
BRANCH  10  27
ATOM     27  C   UNL     1       2.199   3.981  20.763  0.00  0.00    +0.000 C 
ATOM     28  C   UNL     1       1.151   2.942  21.081  0.00  0.00    +0.000 C 
ATOM     29  C   UNL     1       2.547   2.784  21.602  0.00  0.00    +0.000 C 
ENDBRANCH  10  27
TORSDOF 4
ENDMDL
MODEL 9
REMARK VINA RESULT:      -7.4      3.696      6.531
REMARK  Name = 
REMARK  6 active torsions:
REMARK  status: ('A' for Active; 'I' for Inactive)
REMARK    1  A    between atoms: C_1  and  N_2
REMARK    2  A    between atoms: C_7  and  C_8
REMARK    3  A    between atoms: C_11  and  N_12
REMARK    4  A    between atoms: N_12  and  S_13
REMARK    5  A    between atoms: S_13  and  C_14
REMARK    6  A    between atoms: N_21  and  C_22
REMARK                            x       y       z     vdW  Elec       q    Type
REMARK                         _______ _______ _______ _____ _____    ______ ____
ROOT
ATOM      1  C   UNL     1      -3.092  14.234  22.440  0.00  0.00    +0.000 C 
ATOM      2  N   UNL     1      -2.200  13.176  22.012  0.00  0.00    +0.000 N 
ATOM      3  C   UNL     1      -1.210  12.729  22.846  0.00  0.00    +0.000 A 
ATOM      4  N   UNL     1      -0.358  11.808  22.537  0.00  0.00    +0.000 NA
ATOM      5  C   UNL     1      -0.467  11.221  21.267  0.00  0.00    +0.000 A 
ATOM      6  C   UNL     1       0.452  10.242  20.930  0.00  0.00    +0.000 A 
ATOM      7  C   UNL     1       0.389   9.651  19.674  0.00  0.00    +0.000 A 
ATOM      8  N   UNL     1      -0.554  10.012  18.758  0.00  0.00    +0.000 NA
ATOM      9  C   UNL     1      -1.469  10.968  19.080  0.00  0.00    +0.000 A 
ATOM     10  N   UNL     1      -2.518  11.265  18.165  0.00  0.00    +0.000 N 
ATOM     11  C   UNL     1      -1.438  11.586  20.336  0.00  0.00    +0.000 A 
ATOM     12  C   UNL     1      -2.355  12.673  20.725  0.00  0.00    +0.000 A 
ATOM     13  O   UNL     1      -3.177  13.116  19.925  0.00  0.00    +0.000 OA
ATOM     14  H   UNL     1      -2.970  12.150  18.420  0.00  0.00    +0.000 HD
ENDROOT
BRANCH   7  15
ATOM     15  C   UNL     1       1.379   8.633  19.257  0.00  0.00    +0.000 A 
ATOM     16  C   UNL     1       1.770   7.581  20.112  0.00  0.00    +0.000 A 
ATOM     17  C   UNL     1       2.767   6.674  19.745  0.00  0.00    +0.000 A 
ATOM     18  C   UNL     1       3.398   6.790  18.510  0.00  0.00    +0.000 A 
ATOM     19  C   UNL     1       3.011   7.797  17.628  0.00  0.00    +0.000 A 
ATOM     20  C   UNL     1       2.006   8.704  18.001  0.00  0.00    +0.000 A 
BRANCH  18  21
ATOM     21  N   UNL     1       4.429   5.865  18.198  0.00  0.00    +0.000 N 
ATOM     22  H   UNL     1       5.237   6.228  17.691  0.00  0.00    +0.000 HD
BRANCH  21  23
ATOM     23  S   UNL     1       4.004   4.327  17.661  0.00  0.00    +0.000 S 
ATOM     24  C   UNL     1       4.419   3.327  19.076  0.00  0.00    +0.000 C 
ATOM     25  O   UNL     1       2.579   4.250  17.427  0.00  0.00    +0.000 OA
ATOM     26  O   UNL     1       4.954   4.008  16.615  0.00  0.00    +0.000 OA
ENDBRANCH  21  23
ENDBRANCH  18  21
ENDBRANCH   7  15
BRANCH  10  27
ATOM     27  C   UNL     1      -2.352  11.018  16.733  0.00  0.00    +0.000 C 
ATOM     28  C   UNL     1      -2.945   9.787  16.089  0.00  0.00    +0.000 C 
ATOM     29  C   UNL     1      -3.512  11.141  15.784  0.00  0.00    +0.000 C 
ENDBRANCH  10  27
TORSDOF 4
ENDMDL
