MODEL 1
REMARK VINA RESULT:      -8.1      0.000      0.000
REMARK  Name = 
REMARK  9 active torsions:
REMARK  status: ('A' for Active; 'I' for Inactive)
REMARK    1  A    between atoms: C_1  and  O_2
REMARK    2  A    between atoms: O_2  and  C_3
REMARK    3  A    between atoms: N_10  and  C_11
REMARK    4  A    between atoms: C_21  and  C_22
REMARK    5  A    between atoms: C_22  and  C_23
REMARK    6  A    between atoms: C_23  and  C_24
REMARK    7  A    between atoms: C_24  and  C_25
REMARK    8  A    between atoms: C_25  and  C_26
REMARK    9  A    between atoms: N_28  and  O_29
REMARK                            x       y       z     vdW  Elec       q    Type
REMARK                         _______ _______ _______ _____ _____    ______ ____
ROOT
ATOM      1  C   UNL     1       3.380   5.418  19.007  0.00  0.00    +0.000 A 
ATOM      2  C   UNL     1       3.320   6.495  18.113  0.00  0.00    +0.000 A 
ATOM      3  C   UNL     1       2.615   7.650  18.403  0.00  0.00    +0.000 A 
ATOM      4  N   UNL     1       2.711   8.685  17.562  0.00  0.00    +0.000 NA
ATOM      5  C   UNL     1       2.075   9.806  17.914  0.00  0.00    +0.000 A 
ATOM      6  N   UNL     1       1.344   9.978  19.017  0.00  0.00    +0.000 NA
ATOM      7  C   UNL     1       1.247   8.928  19.856  0.00  0.00    +0.000 A 
ATOM      8  N   UNL     1       0.530   9.092  21.076  0.00  0.00    +0.000 N 
ATOM      9  C   UNL     1       1.872   7.700  19.587  0.00  0.00    +0.000 A 
ATOM     10  C   UNL     1       1.815   6.563  20.426  0.00  0.00    +0.000 A 
ATOM     11  C   UNL     1       2.593   5.428  20.164  0.00  0.00    +0.000 A 
ATOM     12  H   UNL     1       1.155   8.879  21.848  0.00  0.00    +0.000 HD
ENDROOT
BRANCH   8  13
ATOM     13  C   UNL     1      -0.311  10.195  21.348  0.00  0.00    +0.000 A 
ATOM     14  C   UNL     1      -0.429  10.695  22.656  0.00  0.00    +0.000 A 
ATOM     15  C   UNL     1      -1.303  11.738  22.947  0.00  0.00    +0.000 A 
ATOM     16  C   UNL     1      -2.062  12.294  21.931  0.00  0.00    +0.000 A 
ATOM     17  F   UNL     1      -2.925  13.276  22.236  0.00  0.00    +0.000 F 
ATOM     18  C   UNL     1      -1.937  11.836  20.621  0.00  0.00    +0.000 A 
ATOM     19 CL   UNL     1      -2.880  12.527  19.357  0.00  0.00    +0.000 Cl
ATOM     20  C   UNL     1      -1.052  10.795  20.324  0.00  0.00    +0.000 A 
ENDBRANCH   8  13
BRANCH   1  22
ATOM     21  C   UNL     1       5.594   4.616  18.766  0.00  0.00    +0.000 C 
ATOM     22  O   UNL     1       4.196   4.335  18.813  0.00  0.00    +0.000 OA
ENDBRANCH   1  22
BRANCH  11  23
ATOM     23  C   UNL     1       2.627   4.325  21.196  0.00  0.00    +0.000 C 
BRANCH  23  24
ATOM     24  C   UNL     1       1.512   3.284  21.080  0.00  0.00    +0.000 C 
BRANCH  24  25
ATOM     25  C   UNL     1       0.627   3.437  19.840  0.00  0.00    +0.000 C 
BRANCH  25  26
ATOM     26  C   UNL     1       0.772   2.201  18.950  0.00  0.00    +0.000 C 
BRANCH  26  27
ATOM     27  C   UNL     1       1.988   2.240  18.051  0.00  0.00    +0.000 C 
ATOM     28  O   UNL     1       2.080   2.894  17.017  0.00  0.00    +0.000 OA
ATOM     29  N   UNL     1       3.012   1.438  18.506  0.00  0.00    +0.000 N 
ATOM     30  H   UNL     1       3.092   1.149  19.475  0.00  0.00    +0.000 HD
BRANCH  29  31
ATOM     31  O   UNL     1       4.217   1.510  17.770  0.00  0.00    +0.000 OA
ATOM     32  H   UNL     1       4.041   2.253  17.152  0.00  0.00    +0.000 HD
ENDBRANCH  29  31
ENDBRANCH  26  27
ENDBRANCH  25  26
ENDBRANCH  24  25
ENDBRANCH  23  24
ENDBRANCH  11  23
TORSDOF 8
ENDMDL
MODEL 2
REMARK VINA RESULT:      -8.1      0.960      1.322
REMARK  Name = 
REMARK  9 active torsions:
REMARK  status: ('A' for Active; 'I' for Inactive)
REMARK    1  A    between atoms: C_1  and  O_2
REMARK    2  A    between atoms: O_2  and  C_3
REMARK    3  A    between atoms: N_10  and  C_11
REMARK    4  A    between atoms: C_21  and  C_22
REMARK    5  A    between atoms: C_22  and  C_23
REMARK    6  A    between atoms: C_23  and  C_24
REMARK    7  A    between atoms: C_24  and  C_25
REMARK    8  A    between atoms: C_25  and  C_26
REMARK    9  A    between atoms: N_28  and  O_29
REMARK                            x       y       z     vdW  Elec       q    Type
REMARK                         _______ _______ _______ _____ _____    ______ ____
ROOT
ATOM      1  C   UNL     1       3.486   5.342  19.207  0.00  0.00    +0.000 A 
ATOM      2  C   UNL     1       3.553   6.348  18.236  0.00  0.00    +0.000 A 
ATOM      3  C   UNL     1       2.831   7.525  18.348  0.00  0.00    +0.000 A 
ATOM      4  N   UNL     1       3.045   8.493  17.451  0.00  0.00    +0.000 NA
ATOM      5  C   UNL     1       2.383   9.639  17.635  0.00  0.00    +0.000 A 
ATOM      6  N   UNL     1       1.522   9.895  18.621  0.00  0.00    +0.000 NA
ATOM      7  C   UNL     1       1.306   8.912  19.516  0.00  0.00    +0.000 A 
ATOM      8  N   UNL     1       0.444   9.170  20.620  0.00  0.00    +0.000 N 
ATOM      9  C   UNL     1       1.945   7.666  19.421  0.00  0.00    +0.000 A 
ATOM     10  C   UNL     1       1.769   6.596  20.328  0.00  0.00    +0.000 A 
ATOM     11  C   UNL     1       2.560   5.442  20.252  0.00  0.00    +0.000 A 
ATOM     12  H   UNL     1       0.964   9.013  21.479  0.00  0.00    +0.000 HD
ENDROOT
BRANCH   8  13
ATOM     13  C   UNL     1      -0.411  10.292  20.702  0.00  0.00    +0.000 A 
ATOM     14  C   UNL     1      -1.194  10.674  19.599  0.00  0.00    +0.000 A 
ATOM     15  C   UNL     1      -1.989  11.814  19.646  0.00  0.00    +0.000 A 
ATOM     16  C   UNL     1      -2.015  12.580  20.801  0.00  0.00    +0.000 A 
ATOM     17  F   UNL     1      -2.762  13.694  20.817  0.00  0.00    +0.000 F 
ATOM     18  C   UNL     1      -1.273  12.202  21.918  0.00  0.00    +0.000 A 
ATOM     19 CL   UNL     1      -1.304  13.153  23.353  0.00  0.00    +0.000 Cl
ATOM     20  C   UNL     1      -0.480  11.050  21.876  0.00  0.00    +0.000 A 
ENDBRANCH   8  13
BRANCH   1  22
ATOM     21  C   UNL     1       5.661   4.490  18.824  0.00  0.00    +0.000 C 
ATOM     22  O   UNL     1       4.307   4.245  19.200  0.00  0.00    +0.000 OA
ENDBRANCH   1  22
BRANCH  11  23
ATOM     23  C   UNL     1       2.449   4.419  21.359  0.00  0.00    +0.000 C 
BRANCH  23  24
ATOM     24  C   UNL     1       1.473   3.271  21.097  0.00  0.00    +0.000 C 
BRANCH  24  25
ATOM     25  C   UNL     1       0.624   3.436  19.833  0.00  0.00    +0.000 C 
BRANCH  25  26
ATOM     26  C   UNL     1       0.792   2.207  18.939  0.00  0.00    +0.000 C 
BRANCH  26  27
ATOM     27  C   UNL     1       2.021   2.260  18.059  0.00  0.00    +0.000 C 
ATOM     28  O   UNL     1       2.139   2.954  17.053  0.00  0.00    +0.000 OA
ATOM     29  N   UNL     1       3.024   1.422  18.495  0.00  0.00    +0.000 N 
ATOM     30  H   UNL     1       3.086   1.094  19.452  0.00  0.00    +0.000 HD
BRANCH  29  31
ATOM     31  O   UNL     1       4.242   1.503  17.779  0.00  0.00    +0.000 OA
ATOM     32  H   UNL     1       4.851   1.891  18.445  0.00  0.00    +0.000 HD
ENDBRANCH  29  31
ENDBRANCH  26  27
ENDBRANCH  25  26
ENDBRANCH  24  25
ENDBRANCH  23  24
ENDBRANCH  11  23
TORSDOF 8
ENDMDL
MODEL 3
REMARK VINA RESULT:      -7.8      2.825      4.646
REMARK  Name = 
REMARK  9 active torsions:
REMARK  status: ('A' for Active; 'I' for Inactive)
REMARK    1  A    between atoms: C_1  and  O_2
REMARK    2  A    between atoms: O_2  and  C_3
REMARK    3  A    between atoms: N_10  and  C_11
REMARK    4  A    between atoms: C_21  and  C_22
REMARK    5  A    between atoms: C_22  and  C_23
REMARK    6  A    between atoms: C_23  and  C_24
REMARK    7  A    between atoms: C_24  and  C_25
REMARK    8  A    between atoms: C_25  and  C_26
REMARK    9  A    between atoms: N_28  and  O_29
REMARK                            x       y       z     vdW  Elec       q    Type
REMARK                         _______ _______ _______ _____ _____    ______ ____
ROOT
ATOM      1  C   UNL     1       3.710   4.544  18.701  0.00  0.00    +0.000 A 
ATOM      2  C   UNL     1       3.019   4.894  19.868  0.00  0.00    +0.000 A 
ATOM      3  C   UNL     1       2.412   6.130  20.018  0.00  0.00    +0.000 A 
ATOM      4  N   UNL     1       1.661   6.344  21.103  0.00  0.00    +0.000 NA
ATOM      5  C   UNL     1       1.033   7.522  21.175  0.00  0.00    +0.000 A 
ATOM      6  N   UNL     1       1.101   8.501  20.273  0.00  0.00    +0.000 NA
ATOM      7  C   UNL     1       1.865   8.280  19.186  0.00  0.00    +0.000 A 
ATOM      8  N   UNL     1       1.911   9.275  18.168  0.00  0.00    +0.000 N 
ATOM      9  C   UNL     1       2.572   7.080  19.005  0.00  0.00    +0.000 A 
ATOM     10  C   UNL     1       3.385   6.782  17.887  0.00  0.00    +0.000 A 
ATOM     11  C   UNL     1       3.930   5.504  17.706  0.00  0.00    +0.000 A 
ATOM     12  H   UNL     1       1.607   8.857  17.293  0.00  0.00    +0.000 HD
ENDROOT
BRANCH   8  13
ATOM     13  C   UNL     1       1.424  10.591  18.336  0.00  0.00    +0.000 A 
ATOM     14  C   UNL     1       0.055  10.824  18.545  0.00  0.00    +0.000 A 
ATOM     15  C   UNL     1      -0.444  12.119  18.648  0.00  0.00    +0.000 A 
ATOM     16  C   UNL     1       0.425  13.194  18.549  0.00  0.00    +0.000 A 
ATOM     17  F   UNL     1      -0.078  14.436  18.616  0.00  0.00    +0.000 F 
ATOM     18  C   UNL     1       1.792  12.985  18.374  0.00  0.00    +0.000 A 
ATOM     19 CL   UNL     1       2.872  14.320  18.251  0.00  0.00    +0.000 Cl
ATOM     20  C   UNL     1       2.296  11.685  18.281  0.00  0.00    +0.000 A 
ENDBRANCH   8  13
BRANCH   1  22
ATOM     21  C   UNL     1       3.199   2.243  18.481  0.00  0.00    +0.000 C 
ATOM     22  O   UNL     1       4.180   3.279  18.466  0.00  0.00    +0.000 OA
ENDBRANCH   1  22
BRANCH  11  23
ATOM     23  C   UNL     1       4.633   5.199  16.404  0.00  0.00    +0.000 C 
BRANCH  23  24
ATOM     24  C   UNL     1       5.706   6.205  15.985  0.00  0.00    +0.000 C 
BRANCH  24  25
ATOM     25  C   UNL     1       6.263   7.054  17.132  0.00  0.00    +0.000 C 
BRANCH  25  26
ATOM     26  C   UNL     1       7.672   6.577  17.485  0.00  0.00    +0.000 C 
BRANCH  26  27
ATOM     27  C   UNL     1       7.709   5.580  18.622  0.00  0.00    +0.000 C 
ATOM     28  O   UNL     1       7.372   4.403  18.539  0.00  0.00    +0.000 OA
ATOM     29  N   UNL     1       8.157   6.134  19.802  0.00  0.00    +0.000 N 
ATOM     30  H   UNL     1       8.723   6.975  19.831  0.00  0.00    +0.000 HD
BRANCH  29  31
ATOM     31  O   UNL     1       8.318   5.231  20.878  0.00  0.00    +0.000 OA
ATOM     32  H   UNL     1       7.477   5.345  21.374  0.00  0.00    +0.000 HD
ENDBRANCH  29  31
ENDBRANCH  26  27
ENDBRANCH  25  26
ENDBRANCH  24  25
ENDBRANCH  23  24
ENDBRANCH  11  23
TORSDOF 8
ENDMDL
MODEL 4
REMARK VINA RESULT:      -7.7      2.687      4.360
REMARK  Name = 
REMARK  9 active torsions:
REMARK  status: ('A' for Active; 'I' for Inactive)
REMARK    1  A    between atoms: C_1  and  O_2
REMARK    2  A    between atoms: O_2  and  C_3
REMARK    3  A    between atoms: N_10  and  C_11
REMARK    4  A    between atoms: C_21  and  C_22
REMARK    5  A    between atoms: C_22  and  C_23
REMARK    6  A    between atoms: C_23  and  C_24
REMARK    7  A    between atoms: C_24  and  C_25
REMARK    8  A    between atoms: C_25  and  C_26
REMARK    9  A    between atoms: N_28  and  O_29
REMARK                            x       y       z     vdW  Elec       q    Type
REMARK                         _______ _______ _______ _____ _____    ______ ____
ROOT
ATOM      1  C   UNL     1       2.698   5.863  19.261  0.00  0.00    +0.000 A 
ATOM      2  C   UNL     1       1.974   6.304  20.375  0.00  0.00    +0.000 A 
ATOM      3  C   UNL     1       1.490   7.599  20.470  0.00  0.00    +0.000 A 
ATOM      4  N   UNL     1       0.697   7.910  21.500  0.00  0.00    +0.000 NA
ATOM      5  C   UNL     1       0.192   9.147  21.516  0.00  0.00    +0.000 A 
ATOM      6  N   UNL     1       0.419  10.097  20.609  0.00  0.00    +0.000 NA
ATOM      7  C   UNL     1       1.225   9.777  19.577  0.00  0.00    +0.000 A 
ATOM      8  N   UNL     1       1.439  10.743  18.552  0.00  0.00    +0.000 N 
ATOM      9  C   UNL     1       1.813   8.508  19.458  0.00  0.00    +0.000 A 
ATOM     10  C   UNL     1       2.661   8.106  18.400  0.00  0.00    +0.000 A 
ATOM     11  C   UNL     1       3.081   6.776  18.272  0.00  0.00    +0.000 A 
ATOM     12  H   UNL     1       1.151  10.342  17.665  0.00  0.00    +0.000 HD
ENDROOT
BRANCH   8  13
ATOM     13  C   UNL     1       1.083  12.105  18.672  0.00  0.00    +0.000 A 
ATOM     14  C   UNL     1      -0.259  12.504  18.559  0.00  0.00    +0.000 A 
ATOM     15  C   UNL     1      -0.614  13.848  18.611  0.00  0.00    +0.000 A 
ATOM     16  C   UNL     1       0.372  14.807  18.783  0.00  0.00    +0.000 A 
ATOM     17  F   UNL     1       0.016  16.101  18.797  0.00  0.00    +0.000 F 
ATOM     18  C   UNL     1       1.706  14.432  18.931  0.00  0.00    +0.000 A 
ATOM     19 CL   UNL     1       2.931  15.622  19.146  0.00  0.00    +0.000 Cl
ATOM     20  C   UNL     1       2.063  13.081  18.890  0.00  0.00    +0.000 A 
ENDBRANCH   8  13
BRANCH   1  22
ATOM     21  C   UNL     1       2.001   3.600  19.260  0.00  0.00    +0.000 C 
ATOM     22  O   UNL     1       3.048   4.552  19.073  0.00  0.00    +0.000 OA
ENDBRANCH   1  22
BRANCH  11  23
ATOM     23  C   UNL     1       3.831   6.375  17.022  0.00  0.00    +0.000 C 
BRANCH  23  24
ATOM     24  C   UNL     1       5.240   6.953  16.889  0.00  0.00    +0.000 C 
BRANCH  24  25
ATOM     25  C   UNL     1       6.298   5.948  16.425  0.00  0.00    +0.000 C 
BRANCH  25  26
ATOM     26  C   UNL     1       7.325   5.733  17.538  0.00  0.00    +0.000 C 
BRANCH  26  27
ATOM     27  C   UNL     1       6.769   5.016  18.748  0.00  0.00    +0.000 C 
ATOM     28  O   UNL     1       6.912   5.381  19.911  0.00  0.00    +0.000 OA
ATOM     29  N   UNL     1       6.073   3.874  18.418  0.00  0.00    +0.000 N 
ATOM     30  H   UNL     1       5.676   3.721  17.497  0.00  0.00    +0.000 HD
BRANCH  29  31
ATOM     31  O   UNL     1       5.435   3.214  19.494  0.00  0.00    +0.000 OA
ATOM     32  H   UNL     1       4.620   2.865  19.072  0.00  0.00    +0.000 HD
ENDBRANCH  29  31
ENDBRANCH  26  27
ENDBRANCH  25  26
ENDBRANCH  24  25
ENDBRANCH  23  24
ENDBRANCH  11  23
TORSDOF 8
ENDMDL
MODEL 5
REMARK VINA RESULT:      -7.6      4.502      6.736
REMARK  Name = 
REMARK  9 active torsions:
REMARK  status: ('A' for Active; 'I' for Inactive)
REMARK    1  A    between atoms: C_1  and  O_2
REMARK    2  A    between atoms: O_2  and  C_3
REMARK    3  A    between atoms: N_10  and  C_11
REMARK    4  A    between atoms: C_21  and  C_22
REMARK    5  A    between atoms: C_22  and  C_23
REMARK    6  A    between atoms: C_23  and  C_24
REMARK    7  A    between atoms: C_24  and  C_25
REMARK    8  A    between atoms: C_25  and  C_26
REMARK    9  A    between atoms: N_28  and  O_29
REMARK                            x       y       z     vdW  Elec       q    Type
REMARK                         _______ _______ _______ _____ _____    ______ ____
ROOT
ATOM      1  C   UNL     1       6.333   5.142  16.782  0.00  0.00    +0.000 A 
ATOM      2  C   UNL     1       5.161   4.406  16.996  0.00  0.00    +0.000 A 
ATOM      3  C   UNL     1       3.993   5.000  17.443  0.00  0.00    +0.000 A 
ATOM      4  N   UNL     1       2.881   4.259  17.498  0.00  0.00    +0.000 NA
ATOM      5  C   UNL     1       1.760   4.887  17.864  0.00  0.00    +0.000 A 
ATOM      6  N   UNL     1       1.655   6.176  18.191  0.00  0.00    +0.000 NA
ATOM      7  C   UNL     1       2.781   6.913  18.139  0.00  0.00    +0.000 A 
ATOM      8  N   UNL     1       2.699   8.308  18.417  0.00  0.00    +0.000 N 
ATOM      9  C   UNL     1       4.017   6.359  17.770  0.00  0.00    +0.000 A 
ATOM     10  C   UNL     1       5.233   7.077  17.689  0.00  0.00    +0.000 A 
ATOM     11  C   UNL     1       6.390   6.488  17.162  0.00  0.00    +0.000 A 
ATOM     12  H   UNL     1       3.047   8.819  17.611  0.00  0.00    +0.000 HD
ENDROOT
BRANCH   8  13
ATOM     13  C   UNL     1       1.570   8.925  19.003  0.00  0.00    +0.000 A 
ATOM     14  C   UNL     1       0.738   9.761  18.240  0.00  0.00    +0.000 A 
ATOM     15  C   UNL     1      -0.337  10.425  18.822  0.00  0.00    +0.000 A 
ATOM     16  C   UNL     1      -0.595  10.252  20.172  0.00  0.00    +0.000 A 
ATOM     17  F   UNL     1      -1.616  10.926  20.724  0.00  0.00    +0.000 F 
ATOM     18  C   UNL     1       0.197   9.401  20.941  0.00  0.00    +0.000 A 
ATOM     19 CL   UNL     1      -0.123   9.185  22.619  0.00  0.00    +0.000 Cl
ATOM     20  C   UNL     1       1.272   8.725  20.355  0.00  0.00    +0.000 A 
ENDBRANCH   8  13
BRANCH   1  22
ATOM     21  C   UNL     1       7.388   4.463  14.774  0.00  0.00    +0.000 C 
ATOM     22  O   UNL     1       7.449   4.610  16.192  0.00  0.00    +0.000 OA
ENDBRANCH   1  22
BRANCH  11  23
ATOM     23  C   UNL     1       7.602   7.361  16.933  0.00  0.00    +0.000 C 
BRANCH  23  24
ATOM     24  C   UNL     1       7.588   8.707  17.660  0.00  0.00    +0.000 C 
BRANCH  24  25
ATOM     25  C   UNL     1       8.835   8.988  18.502  0.00  0.00    +0.000 C 
BRANCH  25  26
ATOM     26  C   UNL     1       8.878  10.469  18.878  0.00  0.00    +0.000 C 
BRANCH  26  27
ATOM     27  C   UNL     1      10.263  11.074  18.807  0.00  0.00    +0.000 C 
ATOM     28  O   UNL     1      10.940  11.401  19.776  0.00  0.00    +0.000 OA
ATOM     29  N   UNL     1      10.704  11.242  17.513  0.00  0.00    +0.000 N 
ATOM     30  H   UNL     1      10.328  10.714  16.733  0.00  0.00    +0.000 HD
BRANCH  29  31
ATOM     31  O   UNL     1      12.034  11.704  17.376  0.00  0.00    +0.000 OA
ATOM     32  H   UNL     1      12.550  10.868  17.404  0.00  0.00    +0.000 HD
ENDBRANCH  29  31
ENDBRANCH  26  27
ENDBRANCH  25  26
ENDBRANCH  24  25
ENDBRANCH  23  24
ENDBRANCH  11  23
TORSDOF 8
ENDMDL
MODEL 6
REMARK VINA RESULT:      -7.6      2.916      4.666
REMARK  Name = 
REMARK  9 active torsions:
REMARK  status: ('A' for Active; 'I' for Inactive)
REMARK    1  A    between atoms: C_1  and  O_2
REMARK    2  A    between atoms: O_2  and  C_3
REMARK    3  A    between atoms: N_10  and  C_11
REMARK    4  A    between atoms: C_21  and  C_22
REMARK    5  A    between atoms: C_22  and  C_23
REMARK    6  A    between atoms: C_23  and  C_24
REMARK    7  A    between atoms: C_24  and  C_25
REMARK    8  A    between atoms: C_25  and  C_26
REMARK    9  A    between atoms: N_28  and  O_29
REMARK                            x       y       z     vdW  Elec       q    Type
REMARK                         _______ _______ _______ _____ _____    ______ ____
ROOT
ATOM      1  C   UNL     1       3.057   5.060  19.281  0.00  0.00    +0.000 A 
ATOM      2  C   UNL     1       2.307   5.520  20.371  0.00  0.00    +0.000 A 
ATOM      3  C   UNL     1       1.786   6.802  20.414  0.00  0.00    +0.000 A 
ATOM      4  N   UNL     1       0.972   7.126  21.424  0.00  0.00    +0.000 NA
ATOM      5  C   UNL     1       0.432   8.348  21.391  0.00  0.00    +0.000 A 
ATOM      6  N   UNL     1       0.644   9.272  20.452  0.00  0.00    +0.000 NA
ATOM      7  C   UNL     1       1.471   8.940  19.442  0.00  0.00    +0.000 A 
ATOM      8  N   UNL     1       1.670   9.875  18.386  0.00  0.00    +0.000 N 
ATOM      9  C   UNL     1       2.096   7.684  19.375  0.00  0.00    +0.000 A 
ATOM     10  C   UNL     1       2.967   7.270  18.341  0.00  0.00    +0.000 A 
ATOM     11  C   UNL     1       3.426   5.949  18.265  0.00  0.00    +0.000 A 
ATOM     12  H   UNL     1       1.404   9.434  17.510  0.00  0.00    +0.000 HD
ENDROOT
BRANCH   8  13
ATOM     13  C   UNL     1       1.274  11.229  18.454  0.00  0.00    +0.000 A 
ATOM     14  C   UNL     1      -0.084  11.571  18.564  0.00  0.00    +0.000 A 
ATOM     15  C   UNL     1      -0.490  12.901  18.566  0.00  0.00    +0.000 A 
ATOM     16  C   UNL     1       0.460  13.904  18.464  0.00  0.00    +0.000 A 
ATOM     17  F   UNL     1       0.048  15.181  18.434  0.00  0.00    +0.000 F 
ATOM     18  C   UNL     1       1.816  13.590  18.387  0.00  0.00    +0.000 A 
ATOM     19 CL   UNL     1       2.998  14.835  18.261  0.00  0.00    +0.000 Cl
ATOM     20  C   UNL     1       2.227  12.253  18.396  0.00  0.00    +0.000 A 
ENDBRANCH   8  13
BRANCH   1  22
ATOM     21  C   UNL     1       2.403   2.785  19.242  0.00  0.00    +0.000 C 
ATOM     22  O   UNL     1       3.446   3.754  19.144  0.00  0.00    +0.000 OA
ENDBRANCH   1  22
BRANCH  11  23
ATOM     23  C   UNL     1       4.202   5.525  17.039  0.00  0.00    +0.000 C 
BRANCH  23  24
ATOM     24  C   UNL     1       4.883   6.659  16.270  0.00  0.00    +0.000 C 
BRANCH  24  25
ATOM     25  C   UNL     1       6.164   7.187  16.920  0.00  0.00    +0.000 C 
BRANCH  25  26
ATOM     26  C   UNL     1       7.056   6.014  17.327  0.00  0.00    +0.000 C 
BRANCH  26  27
ATOM     27  C   UNL     1       7.770   6.220  18.644  0.00  0.00    +0.000 C 
ATOM     28  O   UNL     1       8.424   7.215  18.943  0.00  0.00    +0.000 OA
ATOM     29  N   UNL     1       7.623   5.153  19.502  0.00  0.00    +0.000 N 
ATOM     30  H   UNL     1       6.862   4.487  19.424  0.00  0.00    +0.000 HD
BRANCH  29  31
ATOM     31  O   UNL     1       8.176   5.326  20.793  0.00  0.00    +0.000 OA
ATOM     32  H   UNL     1       8.404   6.281  20.797  0.00  0.00    +0.000 HD
ENDBRANCH  29  31
ENDBRANCH  26  27
ENDBRANCH  25  26
ENDBRANCH  24  25
ENDBRANCH  23  24
ENDBRANCH  11  23
TORSDOF 8
ENDMDL
MODEL 7
REMARK VINA RESULT:      -7.6      1.486      1.621
REMARK  Name = 
REMARK  9 active torsions:
REMARK  status: ('A' for Active; 'I' for Inactive)
REMARK    1  A    between atoms: C_1  and  O_2
REMARK    2  A    between atoms: O_2  and  C_3
REMARK    3  A    between atoms: N_10  and  C_11
REMARK    4  A    between atoms: C_21  and  C_22
REMARK    5  A    between atoms: C_22  and  C_23
REMARK    6  A    between atoms: C_23  and  C_24
REMARK    7  A    between atoms: C_24  and  C_25
REMARK    8  A    between atoms: C_25  and  C_26
REMARK    9  A    between atoms: N_28  and  O_29
REMARK                            x       y       z     vdW  Elec       q    Type
REMARK                         _______ _______ _______ _____ _____    ______ ____
ROOT
ATOM      1  C   UNL     1       2.792   6.379  18.645  0.00  0.00    +0.000 A 
ATOM      2  C   UNL     1       2.681   7.560  17.899  0.00  0.00    +0.000 A 
ATOM      3  C   UNL     1       2.096   8.703  18.418  0.00  0.00    +0.000 A 
ATOM      4  N   UNL     1       2.145   9.828  17.697  0.00  0.00    +0.000 NA
ATOM      5  C   UNL     1       1.634  10.926  18.263  0.00  0.00    +0.000 A 
ATOM      6  N   UNL     1       1.072  10.995  19.471  0.00  0.00    +0.000 NA
ATOM      7  C   UNL     1       1.021   9.855  20.188  0.00  0.00    +0.000 A 
ATOM      8  N   UNL     1       0.489   9.901  21.508  0.00  0.00    +0.000 N 
ATOM      9  C   UNL     1       1.525   8.642  19.693  0.00  0.00    +0.000 A 
ATOM     10  C   UNL     1       1.509   7.414  20.394  0.00  0.00    +0.000 A 
ATOM     11  C   UNL     1       2.171   6.284  19.896  0.00  0.00    +0.000 A 
ATOM     12  H   UNL     1       1.197   9.565  22.154  0.00  0.00    +0.000 HD
ENDROOT
BRANCH   8  13
ATOM     13  C   UNL     1      -0.236  11.000  22.023  0.00  0.00    +0.000 A 
ATOM     14  C   UNL     1      -1.274  10.800  22.948  0.00  0.00    +0.000 A 
ATOM     15  C   UNL     1      -2.035  11.867  23.412  0.00  0.00    +0.000 A 
ATOM     16  C   UNL     1      -1.761  13.147  22.959  0.00  0.00    +0.000 A 
ATOM     17  F   UNL     1      -2.528  14.161  23.391  0.00  0.00    +0.000 F 
ATOM     18  C   UNL     1      -0.715  13.374  22.067  0.00  0.00    +0.000 A 
ATOM     19 CL   UNL     1      -0.374  14.965  21.504  0.00  0.00    +0.000 Cl
ATOM     20  C   UNL     1       0.058  12.304  21.607  0.00  0.00    +0.000 A 
ENDBRANCH   8  13
BRANCH   1  22
ATOM     21  C   UNL     1       4.351   5.515  17.088  0.00  0.00    +0.000 C 
ATOM     22  O   UNL     1       3.503   5.292  18.214  0.00  0.00    +0.000 OA
ENDBRANCH   1  22
BRANCH  11  23
ATOM     23  C   UNL     1       2.273   5.061  20.778  0.00  0.00    +0.000 C 
BRANCH  23  24
ATOM     24  C   UNL     1       1.096   4.088  20.688  0.00  0.00    +0.000 C 
BRANCH  24  25
ATOM     25  C   UNL     1       1.053   3.261  19.400  0.00  0.00    +0.000 C 
BRANCH  25  26
ATOM     26  C   UNL     1       1.918   2.011  19.562  0.00  0.00    +0.000 C 
BRANCH  26  27
ATOM     27  C   UNL     1       3.285   2.132  18.926  0.00  0.00    +0.000 C 
ATOM     28  O   UNL     1       3.574   1.744  17.798  0.00  0.00    +0.000 OA
ATOM     29  N   UNL     1       4.209   2.725  19.757  0.00  0.00    +0.000 N 
ATOM     30  H   UNL     1       3.945   3.322  20.533  0.00  0.00    +0.000 HD
BRANCH  29  31
ATOM     31  O   UNL     1       5.480   2.966  19.185  0.00  0.00    +0.000 OA
ATOM     32  H   UNL     1       5.303   3.733  18.597  0.00  0.00    +0.000 HD
ENDBRANCH  29  31
ENDBRANCH  26  27
ENDBRANCH  25  26
ENDBRANCH  24  25
ENDBRANCH  23  24
ENDBRANCH  11  23
TORSDOF 8
ENDMDL
MODEL 8
REMARK VINA RESULT:      -7.6      3.170      4.479
REMARK  Name = 
REMARK  9 active torsions:
REMARK  status: ('A' for Active; 'I' for Inactive)
REMARK    1  A    between atoms: C_1  and  O_2
REMARK    2  A    between atoms: O_2  and  C_3
REMARK    3  A    between atoms: N_10  and  C_11
REMARK    4  A    between atoms: C_21  and  C_22
REMARK    5  A    between atoms: C_22  and  C_23
REMARK    6  A    between atoms: C_23  and  C_24
REMARK    7  A    between atoms: C_24  and  C_25
REMARK    8  A    between atoms: C_25  and  C_26
REMARK    9  A    between atoms: N_28  and  O_29
REMARK                            x       y       z     vdW  Elec       q    Type
REMARK                         _______ _______ _______ _____ _____    ______ ____
ROOT
ATOM      1  C   UNL     1       3.533   5.473  18.818  0.00  0.00    +0.000 A 
ATOM      2  C   UNL     1       2.742   5.754  19.939  0.00  0.00    +0.000 A 
ATOM      3  C   UNL     1       2.071   6.957  20.081  0.00  0.00    +0.000 A 
ATOM      4  N   UNL     1       1.231   7.102  21.111  0.00  0.00    +0.000 NA
ATOM      5  C   UNL     1       0.548   8.249  21.172  0.00  0.00    +0.000 A 
ATOM      6  N   UNL     1       0.640   9.261  20.308  0.00  0.00    +0.000 NA
ATOM      7  C   UNL     1       1.493   9.110  19.277  0.00  0.00    +0.000 A 
ATOM      8  N   UNL     1       1.571  10.140  18.297  0.00  0.00    +0.000 N 
ATOM      9  C   UNL     1       2.264   7.948  19.113  0.00  0.00    +0.000 A 
ATOM     10  C   UNL     1       3.171   7.722  18.052  0.00  0.00    +0.000 A 
ATOM     11  C   UNL     1       3.785   6.476  17.874  0.00  0.00    +0.000 A 
ATOM     12  H   UNL     1       1.353   9.740  17.389  0.00  0.00    +0.000 HD
ENDROOT
BRANCH   8  13
ATOM     13  C   UNL     1       1.016  11.429  18.468  0.00  0.00    +0.000 A 
ATOM     14  C   UNL     1      -0.377  11.614  18.445  0.00  0.00    +0.000 A 
ATOM     15  C   UNL     1      -0.932  12.885  18.548  0.00  0.00    +0.000 A 
ATOM     16  C   UNL     1      -0.098  13.984  18.683  0.00  0.00    +0.000 A 
ATOM     17  F   UNL     1      -0.649  15.206  18.747  0.00  0.00    +0.000 F 
ATOM     18  C   UNL     1       1.285  13.820  18.742  0.00  0.00    +0.000 A 
ATOM     19 CL   UNL     1       2.321  15.185  18.910  0.00  0.00    +0.000 Cl
ATOM     20  C   UNL     1       1.844  12.542  18.649  0.00  0.00    +0.000 A 
ENDBRANCH   8  13
BRANCH   1  22
ATOM     21  C   UNL     1       3.152   3.224  18.186  0.00  0.00    +0.000 C 
ATOM     22  O   UNL     1       4.075   4.238  18.581  0.00  0.00    +0.000 OA
ENDBRANCH   1  22
BRANCH  11  23
ATOM     23  C   UNL     1       4.597   6.245  16.621  0.00  0.00    +0.000 C 
BRANCH  23  24
ATOM     24  C   UNL     1       6.102   6.475  16.762  0.00  0.00    +0.000 C 
BRANCH  24  25
ATOM     25  C   UNL     1       6.956   5.216  16.597  0.00  0.00    +0.000 C 
BRANCH  25  26
ATOM     26  C   UNL     1       6.266   4.249  15.634  0.00  0.00    +0.000 C 
BRANCH  26  27
ATOM     27  C   UNL     1       6.697   4.415  14.194  0.00  0.00    +0.000 C 
ATOM     28  O   UNL     1       7.419   5.314  13.773  0.00  0.00    +0.000 OA
ATOM     29  N   UNL     1       6.181   3.440  13.368  0.00  0.00    +0.000 N 
ATOM     30  H   UNL     1       5.863   2.542  13.714  0.00  0.00    +0.000 HD
BRANCH  29  31
ATOM     31  O   UNL     1       6.632   3.474  12.028  0.00  0.00    +0.000 OA
ATOM     32  H   UNL     1       7.602   3.585  12.136  0.00  0.00    +0.000 HD
ENDBRANCH  29  31
ENDBRANCH  26  27
ENDBRANCH  25  26
ENDBRANCH  24  25
ENDBRANCH  23  24
ENDBRANCH  11  23
TORSDOF 8
ENDMDL
MODEL 9
REMARK VINA RESULT:      -7.5      2.846      4.873
REMARK  Name = 
REMARK  9 active torsions:
REMARK  status: ('A' for Active; 'I' for Inactive)
REMARK    1  A    between atoms: C_1  and  O_2
REMARK    2  A    between atoms: O_2  and  C_3
REMARK    3  A    between atoms: N_10  and  C_11
REMARK    4  A    between atoms: C_21  and  C_22
REMARK    5  A    between atoms: C_22  and  C_23
REMARK    6  A    between atoms: C_23  and  C_24
REMARK    7  A    between atoms: C_24  and  C_25
REMARK    8  A    between atoms: C_25  and  C_26
REMARK    9  A    between atoms: N_28  and  O_29
REMARK                            x       y       z     vdW  Elec       q    Type
REMARK                         _______ _______ _______ _____ _____    ______ ____
ROOT
ATOM      1  C   UNL     1       3.701   4.304  18.572  0.00  0.00    +0.000 A 
ATOM      2  C   UNL     1       3.066   4.692  19.758  0.00  0.00    +0.000 A 
ATOM      3  C   UNL     1       2.501   5.947  19.910  0.00  0.00    +0.000 A 
ATOM      4  N   UNL     1       1.798   6.200  21.019  0.00  0.00    +0.000 NA
ATOM      5  C   UNL     1       1.208   7.397  21.096  0.00  0.00    +0.000 A 
ATOM      6  N   UNL     1       1.269   8.360  20.175  0.00  0.00    +0.000 NA
ATOM      7  C   UNL     1       1.985   8.100  19.064  0.00  0.00    +0.000 A 
ATOM      8  N   UNL     1       2.021   9.077  18.029  0.00  0.00    +0.000 N 
ATOM      9  C   UNL     1       2.649   6.877  18.877  0.00  0.00    +0.000 A 
ATOM     10  C   UNL     1       3.410   6.537  17.734  0.00  0.00    +0.000 A 
ATOM     11  C   UNL     1       3.911   5.242  17.554  0.00  0.00    +0.000 A 
ATOM     12  H   UNL     1       1.672   8.655  17.173  0.00  0.00    +0.000 HD
ENDROOT
BRANCH   8  13
ATOM     13  C   UNL     1       1.579  10.410  18.194  0.00  0.00    +0.000 A 
ATOM     14  C   UNL     1       2.482  11.480  18.075  0.00  0.00    +0.000 A 
ATOM     15  C   UNL     1       2.073  12.790  18.299  0.00  0.00    +0.000 A 
ATOM     16  C   UNL     1       0.753  13.043  18.638  0.00  0.00    +0.000 A 
ATOM     17  F   UNL     1       0.383  14.310  18.884  0.00  0.00    +0.000 F 
ATOM     18  C   UNL     1      -0.167  12.001  18.729  0.00  0.00    +0.000 A 
ATOM     19 CL   UNL     1      -1.807  12.314  19.149  0.00  0.00    +0.000 Cl
ATOM     20  C   UNL     1       0.240  10.684  18.494  0.00  0.00    +0.000 A 
ENDBRANCH   8  13
BRANCH   1  22
ATOM     21  C   UNL     1       3.261   1.991  18.815  0.00  0.00    +0.000 C 
ATOM     22  O   UNL     1       4.125   3.022  18.340  0.00  0.00    +0.000 OA
ENDBRANCH   1  22
BRANCH  11  23
ATOM     23  C   UNL     1       4.555   4.896  16.231  0.00  0.00    +0.000 C 
BRANCH  23  24
ATOM     24  C   UNL     1       5.765   5.748  15.847  0.00  0.00    +0.000 C 
BRANCH  24  25
ATOM     25  C   UNL     1       7.095   5.264  16.431  0.00  0.00    +0.000 C 
BRANCH  25  26
ATOM     26  C   UNL     1       7.267   5.818  17.846  0.00  0.00    +0.000 C 
BRANCH  26  27
ATOM     27  C   UNL     1       7.780   7.241  17.882  0.00  0.00    +0.000 C 
ATOM     28  O   UNL     1       7.570   8.088  17.019  0.00  0.00    +0.000 OA
ATOM     29  N   UNL     1       8.539   7.505  19.000  0.00  0.00    +0.000 N 
ATOM     30  H   UNL     1       8.470   6.957  19.851  0.00  0.00    +0.000 HD
BRANCH  29  31
ATOM     31  O   UNL     1       8.961   8.847  19.150  0.00  0.00    +0.000 OA
ATOM     32  H   UNL     1       9.463   9.003  18.321  0.00  0.00    +0.000 HD
ENDBRANCH  29  31
ENDBRANCH  26  27
ENDBRANCH  25  26
ENDBRANCH  24  25
ENDBRANCH  23  24
ENDBRANCH  11  23
TORSDOF 8
ENDMDL
