MODEL 1
REMARK VINA RESULT:      -8.4      0.000      0.000
REMARK  Name = 
REMARK  4 active torsions:
REMARK  status: ('A' for Active; 'I' for Inactive)
REMARK    1  A    between atoms: C_2  and  C_21
REMARK    2  A    between atoms: N_3  and  C_4
REMARK    3  A    between atoms: C_4  and  C_12
REMARK    4  A    between atoms: C_5  and  C_6
REMARK                            x       y       z     vdW  Elec       q    Type
REMARK                         _______ _______ _______ _____ _____    ______ ____
ROOT
ATOM      1  C   UNL     1       3.552   6.808  18.460  0.00  0.00    +0.000 C 
ATOM      2  C   UNL     1       4.135   7.208  17.314  0.00  0.00    +0.000 C 
ENDROOT
BRANCH   1   3
ATOM      3  C   UNL     1       3.988   5.560  19.223  0.00  0.00    +0.000 C 
ATOM      4  O   UNL     1       5.030   5.594  19.879  0.00  0.00    +0.000 OA
ATOM      5  N   UNL     1       3.182   4.394  19.202  0.00  0.00    +0.000 N 
ATOM      6  C   UNL     1       3.512   3.349  20.180  0.00  0.00    +0.000 C 
ATOM      7  C   UNL     1       4.178   2.140  19.530  0.00  0.00    +0.000 C 
ATOM      8  C   UNL     1       3.196   1.134  18.931  0.00  0.00    +0.000 C 
ATOM      9  C   UNL     1       2.277   1.691  17.850  0.00  0.00    +0.000 C 
ATOM     10  C   UNL     1       1.346   2.793  18.358  0.00  0.00    +0.000 C 
ATOM     11  C   UNL     1       2.008   4.169  18.356  0.00  0.00    +0.000 C 
ENDBRANCH   1   3
BRANCH   2  12
ATOM     12  C   UNL     1       5.170   6.577  16.484  0.00  0.00    +0.000 A 
ATOM     13  C   UNL     1       4.851   5.660  15.485  0.00  0.00    +0.000 A 
ATOM     14  C   UNL     1       5.869   4.933  14.870  0.00  0.00    +0.000 A 
ATOM     15  C   UNL     1       7.176   5.142  15.281  0.00  0.00    +0.000 A 
ATOM     16  N   UNL     1       7.530   6.036  16.227  0.00  0.00    +0.000 NA
ATOM     17  C   UNL     1       6.520   6.736  16.797  0.00  0.00    +0.000 A 
ENDBRANCH   2  12
BRANCH   1  20
ATOM     18  O   UNL     1       2.428   9.158  17.266  0.00  0.00    +0.000 OA
ATOM     19  C   UNL     1       1.985   8.689  18.305  0.00  0.00    +0.000 C 
ATOM     20  N   UNL     1       2.432   7.513  18.890  0.00  0.00    +0.000 N 
ATOM     21  H   UNL     1       2.167   7.326  19.849  0.00  0.00    +0.000 HD
BRANCH  19  22
ATOM     22  C   UNL     1       0.976   9.455  19.087  0.00  0.00    +0.000 A 
ATOM     23  C   UNL     1       0.214  10.418  18.409  0.00  0.00    +0.000 A 
ATOM     24  C   UNL     1      -0.718  11.196  19.097  0.00  0.00    +0.000 A 
ATOM     25  C   UNL     1      -0.886  11.025  20.472  0.00  0.00    +0.000 A 
ATOM     26  C   UNL     1      -0.130  10.065  21.143  0.00  0.00    +0.000 A 
ATOM     27 BR   UNL     1      -0.361   9.834  23.009  0.00  0.00    +0.000 Br
ATOM     28  C   UNL     1       0.802   9.275  20.465  0.00  0.00    +0.000 A 
ENDBRANCH  19  22
ENDBRANCH   1  20
TORSDOF 4
ENDMDL
MODEL 2
REMARK VINA RESULT:      -8.3      1.590      2.219
REMARK  Name = 
REMARK  4 active torsions:
REMARK  status: ('A' for Active; 'I' for Inactive)
REMARK    1  A    between atoms: C_2  and  C_21
REMARK    2  A    between atoms: N_3  and  C_4
REMARK    3  A    between atoms: C_4  and  C_12
REMARK    4  A    between atoms: C_5  and  C_6
REMARK                            x       y       z     vdW  Elec       q    Type
REMARK                         _______ _______ _______ _____ _____    ______ ____
ROOT
ATOM      1  C   UNL     1       2.905   6.962  18.054  0.00  0.00    +0.000 C 
ATOM      2  C   UNL     1       4.186   7.100  17.658  0.00  0.00    +0.000 C 
ENDROOT
BRANCH   1   3
ATOM      3  C   UNL     1       2.151   5.638  17.981  0.00  0.00    +0.000 C 
ATOM      4  O   UNL     1       1.284   5.491  17.118  0.00  0.00    +0.000 OA
ATOM      5  N   UNL     1       2.473   4.584  18.872  0.00  0.00    +0.000 N 
ATOM      6  C   UNL     1       1.917   3.262  18.556  0.00  0.00    +0.000 C 
ATOM      7  C   UNL     1       0.783   2.872  19.499  0.00  0.00    +0.000 C 
ATOM      8  C   UNL     1       1.252   2.252  20.814  0.00  0.00    +0.000 C 
ATOM      9  C   UNL     1       2.163   3.136  21.658  0.00  0.00    +0.000 C 
ATOM     10  C   UNL     1       3.485   3.473  20.966  0.00  0.00    +0.000 C 
ATOM     11  C   UNL     1       3.369   4.671  20.027  0.00  0.00    +0.000 C 
ENDBRANCH   1   3
BRANCH   2  12
ATOM     12  C   UNL     1       5.103   6.156  17.007  0.00  0.00    +0.000 A 
ATOM     13  C   UNL     1       6.019   5.401  17.737  0.00  0.00    +0.000 A 
ATOM     14  C   UNL     1       7.007   4.682  17.066  0.00  0.00    +0.000 A 
ATOM     15  C   UNL     1       7.052   4.749  15.681  0.00  0.00    +0.000 A 
ATOM     16  N   UNL     1       6.172   5.448  14.936  0.00  0.00    +0.000 NA
ATOM     17  C   UNL     1       5.216   6.126  15.616  0.00  0.00    +0.000 A 
ENDBRANCH   2  12
BRANCH   1  20
ATOM     18  O   UNL     1       1.865   7.572  20.653  0.00  0.00    +0.000 OA
ATOM     19  C   UNL     1       1.682   8.312  19.697  0.00  0.00    +0.000 C 
ATOM     20  N   UNL     1       2.225   8.114  18.435  0.00  0.00    +0.000 N 
ATOM     21  H   UNL     1       1.841   8.645  17.662  0.00  0.00    +0.000 HD
BRANCH  19  22
ATOM     22  C   UNL     1       0.731   9.451  19.818  0.00  0.00    +0.000 A 
ATOM     23  C   UNL     1       0.322  10.092  18.641  0.00  0.00    +0.000 A 
ATOM     24  C   UNL     1      -0.537  11.192  18.695  0.00  0.00    +0.000 A 
ATOM     25  C   UNL     1      -0.982  11.665  19.929  0.00  0.00    +0.000 A 
ATOM     26  C   UNL     1      -0.578  11.023  21.098  0.00  0.00    +0.000 A 
ATOM     27 BR   UNL     1      -1.186  11.667  22.773  0.00  0.00    +0.000 Br
ATOM     28  C   UNL     1       0.276   9.918  21.059  0.00  0.00    +0.000 A 
ENDBRANCH  19  22
ENDBRANCH   1  20
TORSDOF 4
ENDMDL
MODEL 3
REMARK VINA RESULT:      -8.2      2.258      2.774
REMARK  Name = 
REMARK  4 active torsions:
REMARK  status: ('A' for Active; 'I' for Inactive)
REMARK    1  A    between atoms: C_2  and  C_21
REMARK    2  A    between atoms: N_3  and  C_4
REMARK    3  A    between atoms: C_4  and  C_12
REMARK    4  A    between atoms: C_5  and  C_6
REMARK                            x       y       z     vdW  Elec       q    Type
REMARK                         _______ _______ _______ _____ _____    ______ ____
ROOT
ATOM      1  C   UNL     1       2.333   7.710  18.274  0.00  0.00    +0.000 C 
ATOM      2  C   UNL     1       3.397   7.678  17.449  0.00  0.00    +0.000 C 
ENDROOT
BRANCH   1   3
ATOM      3  C   UNL     1       2.175   6.765  19.462  0.00  0.00    +0.000 C 
ATOM      4  O   UNL     1       2.317   7.209  20.602  0.00  0.00    +0.000 OA
ATOM      5  N   UNL     1       1.834   5.405  19.251  0.00  0.00    +0.000 N 
ATOM      6  C   UNL     1       1.418   4.640  20.433  0.00  0.00    +0.000 C 
ATOM      7  C   UNL     1       2.486   3.650  20.885  0.00  0.00    +0.000 C 
ATOM      8  C   UNL     1       2.459   2.318  20.135  0.00  0.00    +0.000 C 
ATOM      9  C   UNL     1       2.648   2.422  18.626  0.00  0.00    +0.000 C 
ATOM     10  C   UNL     1       1.536   3.210  17.932  0.00  0.00    +0.000 C 
ATOM     11  C   UNL     1       1.779   4.718  17.958  0.00  0.00    +0.000 C 
ENDBRANCH   1   3
BRANCH   2  12
ATOM     12  C   UNL     1       4.541   6.758  17.379  0.00  0.00    +0.000 A 
ATOM     13  C   UNL     1       5.111   6.209  18.526  0.00  0.00    +0.000 A 
ATOM     14  C   UNL     1       6.316   5.516  18.429  0.00  0.00    +0.000 A 
ATOM     15  C   UNL     1       6.918   5.401  17.185  0.00  0.00    +0.000 A 
ATOM     16  N   UNL     1       6.389   5.896  16.048  0.00  0.00    +0.000 NA
ATOM     17  C   UNL     1       5.211   6.555  16.173  0.00  0.00    +0.000 A 
ENDBRANCH   2  12
BRANCH   1  20
ATOM     18  O   UNL     1       1.523  10.061  19.697  0.00  0.00    +0.000 OA
ATOM     19  C   UNL     1       0.906   9.654  18.722  0.00  0.00    +0.000 C 
ATOM     20  N   UNL     1       1.292   8.571  17.945  0.00  0.00    +0.000 N 
ATOM     21  H   UNL     1       0.611   8.176  17.308  0.00  0.00    +0.000 HD
BRANCH  19  22
ATOM     22  C   UNL     1      -0.409  10.260  18.378  0.00  0.00    +0.000 A 
ATOM     23  C   UNL     1      -0.982  11.150  19.297  0.00  0.00    +0.000 A 
ATOM     24  C   UNL     1      -2.232  11.718  19.048  0.00  0.00    +0.000 A 
ATOM     25  C   UNL     1      -2.925  11.389  17.882  0.00  0.00    +0.000 A 
ATOM     26  C   UNL     1      -2.352  10.507  16.968  0.00  0.00    +0.000 A 
ATOM     27 BR   UNL     1      -3.292  10.064  15.385  0.00  0.00    +0.000 Br
ATOM     28  C   UNL     1      -1.097   9.937  17.201  0.00  0.00    +0.000 A 
ENDBRANCH  19  22
ENDBRANCH   1  20
TORSDOF 4
ENDMDL
MODEL 4
REMARK VINA RESULT:      -8.2      2.338      2.734
REMARK  Name = 
REMARK  4 active torsions:
REMARK  status: ('A' for Active; 'I' for Inactive)
REMARK    1  A    between atoms: C_2  and  C_21
REMARK    2  A    between atoms: N_3  and  C_4
REMARK    3  A    between atoms: C_4  and  C_12
REMARK    4  A    between atoms: C_5  and  C_6
REMARK                            x       y       z     vdW  Elec       q    Type
REMARK                         _______ _______ _______ _____ _____    ______ ____
ROOT
ATOM      1  C   UNL     1       2.406   7.535  18.442  0.00  0.00    +0.000 C 
ATOM      2  C   UNL     1       3.504   7.436  17.668  0.00  0.00    +0.000 C 
ENDROOT
BRANCH   1   3
ATOM      3  C   UNL     1       2.132   6.603  19.618  0.00  0.00    +0.000 C 
ATOM      4  O   UNL     1       2.219   7.046  20.765  0.00  0.00    +0.000 OA
ATOM      5  N   UNL     1       1.748   5.257  19.388  0.00  0.00    +0.000 N 
ATOM      6  C   UNL     1       1.226   4.516  20.543  0.00  0.00    +0.000 C 
ATOM      7  C   UNL     1       2.221   3.484  21.064  0.00  0.00    +0.000 C 
ATOM      8  C   UNL     1       2.186   2.152  20.317  0.00  0.00    +0.000 C 
ATOM      9  C   UNL     1       2.474   2.241  18.822  0.00  0.00    +0.000 C 
ATOM     10  C   UNL     1       1.444   3.071  18.057  0.00  0.00    +0.000 C 
ATOM     11  C   UNL     1       1.748   4.567  18.096  0.00  0.00    +0.000 C 
ENDBRANCH   1   3
BRANCH   2  12
ATOM     12  C   UNL     1       4.590   6.447  17.651  0.00  0.00    +0.000 A 
ATOM     13  C   UNL     1       4.929   5.750  16.493  0.00  0.00    +0.000 A 
ATOM     14  C   UNL     1       5.815   4.677  16.572  0.00  0.00    +0.000 A 
ATOM     15  C   UNL     1       6.329   4.330  17.811  0.00  0.00    +0.000 A 
ATOM     16  N   UNL     1       6.046   4.992  18.952  0.00  0.00    +0.000 NA
ATOM     17  C   UNL     1       5.191   6.037  18.842  0.00  0.00    +0.000 A 
ENDBRANCH   2  12
BRANCH   1  20
ATOM     18  O   UNL     1       1.547   9.834  19.920  0.00  0.00    +0.000 OA
ATOM     19  C   UNL     1       1.017   9.512  18.866  0.00  0.00    +0.000 C 
ATOM     20  N   UNL     1       1.437   8.459  18.065  0.00  0.00    +0.000 N 
ATOM     21  H   UNL     1       0.810   8.132  17.340  0.00  0.00    +0.000 HD
BRANCH  19  22
ATOM     22  C   UNL     1      -0.232  10.195  18.431  0.00  0.00    +0.000 A 
ATOM     23  C   UNL     1      -0.726  11.233  19.234  0.00  0.00    +0.000 A 
ATOM     24  C   UNL     1      -1.915  11.882  18.900  0.00  0.00    +0.000 A 
ATOM     25  C   UNL     1      -2.626  11.490  17.765  0.00  0.00    +0.000 A 
ATOM     26  C   UNL     1      -2.131  10.460  16.966  0.00  0.00    +0.000 A 
ATOM     27 BR   UNL     1      -3.097   9.930  15.425  0.00  0.00    +0.000 Br
ATOM     28  C   UNL     1      -0.939   9.806  17.285  0.00  0.00    +0.000 A 
ENDBRANCH  19  22
ENDBRANCH   1  20
TORSDOF 4
ENDMDL
MODEL 5
REMARK VINA RESULT:      -8.2      1.892      2.594
REMARK  Name = 
REMARK  4 active torsions:
REMARK  status: ('A' for Active; 'I' for Inactive)
REMARK    1  A    between atoms: C_2  and  C_21
REMARK    2  A    between atoms: N_3  and  C_4
REMARK    3  A    between atoms: C_4  and  C_12
REMARK    4  A    between atoms: C_5  and  C_6
REMARK                            x       y       z     vdW  Elec       q    Type
REMARK                         _______ _______ _______ _____ _____    ______ ____
ROOT
ATOM      1  C   UNL     1       2.934   6.975  18.137  0.00  0.00    +0.000 C 
ATOM      2  C   UNL     1       4.212   7.097  17.731  0.00  0.00    +0.000 C 
ENDROOT
BRANCH   1   3
ATOM      3  C   UNL     1       2.147   5.672  18.026  0.00  0.00    +0.000 C 
ATOM      4  O   UNL     1       1.253   5.584  17.183  0.00  0.00    +0.000 OA
ATOM      5  N   UNL     1       2.471   4.571  18.859  0.00  0.00    +0.000 N 
ATOM      6  C   UNL     1       1.876   3.277  18.499  0.00  0.00    +0.000 C 
ATOM      7  C   UNL     1       0.760   2.869  19.456  0.00  0.00    +0.000 C 
ATOM      8  C   UNL     1       1.252   2.178  20.727  0.00  0.00    +0.000 C 
ATOM      9  C   UNL     1       2.208   3.003  21.583  0.00  0.00    +0.000 C 
ATOM     10  C   UNL     1       3.517   3.343  20.869  0.00  0.00    +0.000 C 
ATOM     11  C   UNL     1       3.401   4.586  19.989  0.00  0.00    +0.000 C 
ENDBRANCH   1   3
BRANCH   2  12
ATOM     12  C   UNL     1       5.100   6.157  17.035  0.00  0.00    +0.000 A 
ATOM     13  C   UNL     1       6.010   5.359  17.726  0.00  0.00    +0.000 A 
ATOM     14  C   UNL     1       6.972   4.642  17.017  0.00  0.00    +0.000 A 
ATOM     15  C   UNL     1       6.998   4.753  15.635  0.00  0.00    +0.000 A 
ATOM     16  N   UNL     1       6.123   5.495  14.927  0.00  0.00    +0.000 NA
ATOM     17  C   UNL     1       5.192   6.170  15.643  0.00  0.00    +0.000 A 
ENDBRANCH   2  12
BRANCH   1  20
ATOM     18  O   UNL     1       1.862   7.481  20.746  0.00  0.00    +0.000 OA
ATOM     19  C   UNL     1       1.724   8.277  19.828  0.00  0.00    +0.000 C 
ATOM     20  N   UNL     1       2.285   8.128  18.567  0.00  0.00    +0.000 N 
ATOM     21  H   UNL     1       1.935   8.712  17.818  0.00  0.00    +0.000 HD
BRANCH  19  22
ATOM     22  C   UNL     1       0.809   9.440  19.994  0.00  0.00    +0.000 A 
ATOM     23  C   UNL     1       0.720  10.028  21.263  0.00  0.00    +0.000 A 
ATOM     24  C   UNL     1      -0.151  11.095  21.489  0.00  0.00    +0.000 A 
ATOM     25  C   UNL     1      -0.948  11.574  20.449  0.00  0.00    +0.000 A 
ATOM     26  C   UNL     1      -0.855  10.990  19.187  0.00  0.00    +0.000 A 
ATOM     27 BR   UNL     1      -1.937  11.643  17.775  0.00  0.00    +0.000 Br
ATOM     28  C   UNL     1       0.018   9.926  18.944  0.00  0.00    +0.000 A 
ENDBRANCH  19  22
ENDBRANCH   1  20
TORSDOF 4
ENDMDL
MODEL 6
REMARK VINA RESULT:      -8.0      1.830      2.308
REMARK  Name = 
REMARK  4 active torsions:
REMARK  status: ('A' for Active; 'I' for Inactive)
REMARK    1  A    between atoms: C_2  and  C_21
REMARK    2  A    between atoms: N_3  and  C_4
REMARK    3  A    between atoms: C_4  and  C_12
REMARK    4  A    between atoms: C_5  and  C_6
REMARK                            x       y       z     vdW  Elec       q    Type
REMARK                         _______ _______ _______ _____ _____    ______ ____
ROOT
ATOM      1  C   UNL     1       2.315   7.678  18.265  0.00  0.00    +0.000 C 
ATOM      2  C   UNL     1       3.347   7.707  17.400  0.00  0.00    +0.000 C 
ENDROOT
BRANCH   1   3
ATOM      3  C   UNL     1       2.233   6.692  19.427  0.00  0.00    +0.000 C 
ATOM      4  O   UNL     1       2.411   7.104  20.575  0.00  0.00    +0.000 OA
ATOM      5  N   UNL     1       1.921   5.330  19.186  0.00  0.00    +0.000 N 
ATOM      6  C   UNL     1       1.576   4.516  20.360  0.00  0.00    +0.000 C 
ATOM      7  C   UNL     1       2.689   3.544  20.734  0.00  0.00    +0.000 C 
ATOM      8  C   UNL     1       2.667   2.237  19.943  0.00  0.00    +0.000 C 
ATOM      9  C   UNL     1       2.789   2.393  18.432  0.00  0.00    +0.000 C 
ATOM     10  C   UNL     1       1.628   3.170  17.810  0.00  0.00    +0.000 C 
ATOM     11  C   UNL     1       1.830   4.682  17.876  0.00  0.00    +0.000 C 
ENDBRANCH   1   3
BRANCH   2  12
ATOM     12  C   UNL     1       4.515   6.828  17.258  0.00  0.00    +0.000 A 
ATOM     13  C   UNL     1       5.202   6.336  18.366  0.00  0.00    +0.000 A 
ATOM     14  C   UNL     1       6.421   5.685  18.185  0.00  0.00    +0.000 A 
ATOM     15  C   UNL     1       6.919   5.552  16.898  0.00  0.00    +0.000 A 
ATOM     16  N   UNL     1       6.276   5.993  15.797  0.00  0.00    +0.000 NA
ATOM     17  C   UNL     1       5.088   6.611  16.004  0.00  0.00    +0.000 A 
ENDBRANCH   2  12
BRANCH   1  20
ATOM     18  O   UNL     1       1.662  10.124  19.606  0.00  0.00    +0.000 OA
ATOM     19  C   UNL     1       0.937   9.650  18.743  0.00  0.00    +0.000 C 
ATOM     20  N   UNL     1       1.235   8.514  18.004  0.00  0.00    +0.000 N 
ATOM     21  H   UNL     1       0.487   8.075  17.482  0.00  0.00    +0.000 HD
BRANCH  19  22
ATOM     22  C   UNL     1      -0.415  10.230  18.517  0.00  0.00    +0.000 A 
ATOM     23  C   UNL     1      -1.093   9.876  17.342  0.00  0.00    +0.000 A 
ATOM     24  C   UNL     1      -2.346  10.420  17.056  0.00  0.00    +0.000 A 
ATOM     25  C   UNL     1      -2.925  11.333  17.938  0.00  0.00    +0.000 A 
ATOM     26  C   UNL     1      -2.251  11.681  19.107  0.00  0.00    +0.000 A 
ATOM     27 BR   UNL     1      -3.040  12.919  20.304  0.00  0.00    +0.000 Br
ATOM     28  C   UNL     1      -0.999  11.139  19.410  0.00  0.00    +0.000 A 
ENDBRANCH  19  22
ENDBRANCH   1  20
TORSDOF 4
ENDMDL
MODEL 7
REMARK VINA RESULT:      -8.0      1.087      1.406
REMARK  Name = 
REMARK  4 active torsions:
REMARK  status: ('A' for Active; 'I' for Inactive)
REMARK    1  A    between atoms: C_2  and  C_21
REMARK    2  A    between atoms: N_3  and  C_4
REMARK    3  A    between atoms: C_4  and  C_12
REMARK    4  A    between atoms: C_5  and  C_6
REMARK                            x       y       z     vdW  Elec       q    Type
REMARK                         _______ _______ _______ _____ _____    ______ ____
ROOT
ATOM      1  C   UNL     1       3.711   6.806  18.495  0.00  0.00    +0.000 C 
ATOM      2  C   UNL     1       4.272   7.181  17.329  0.00  0.00    +0.000 C 
ENDROOT
BRANCH   1   3
ATOM      3  C   UNL     1       4.093   5.522  19.225  0.00  0.00    +0.000 C 
ATOM      4  O   UNL     1       5.149   5.485  19.858  0.00  0.00    +0.000 OA
ATOM      5  N   UNL     1       3.222   4.402  19.202  0.00  0.00    +0.000 N 
ATOM      6  C   UNL     1       3.514   3.322  20.154  0.00  0.00    +0.000 C 
ATOM      7  C   UNL     1       4.097   2.091  19.468  0.00  0.00    +0.000 C 
ATOM      8  C   UNL     1       3.047   1.153  18.874  0.00  0.00    +0.000 C 
ATOM      9  C   UNL     1       2.137   1.781  17.824  0.00  0.00    +0.000 C 
ATOM     10  C   UNL     1       1.281   2.923  18.373  0.00  0.00    +0.000 C 
ATOM     11  C   UNL     1       2.019   4.260  18.379  0.00  0.00    +0.000 C 
ENDBRANCH   1   3
BRANCH   2  12
ATOM     12  C   UNL     1       5.226   6.493  16.449  0.00  0.00    +0.000 A 
ATOM     13  C   UNL     1       4.811   5.545  15.515  0.00  0.00    +0.000 A 
ATOM     14  C   UNL     1       5.762   4.770  14.855  0.00  0.00    +0.000 A 
ATOM     15  C   UNL     1       7.101   4.961  15.156  0.00  0.00    +0.000 A 
ATOM     16  N   UNL     1       7.547   5.882  16.036  0.00  0.00    +0.000 NA
ATOM     17  C   UNL     1       6.599   6.629  16.653  0.00  0.00    +0.000 A 
ENDBRANCH   2  12
BRANCH   1  20
ATOM     18  O   UNL     1       2.332   8.903  17.113  0.00  0.00    +0.000 OA
ATOM     19  C   UNL     1       2.086   8.631  18.280  0.00  0.00    +0.000 C 
ATOM     20  N   UNL     1       2.661   7.579  18.979  0.00  0.00    +0.000 N 
ATOM     21  H   UNL     1       2.568   7.570  19.987  0.00  0.00    +0.000 HD
BRANCH  19  22
ATOM     22  C   UNL     1       1.203   9.528  19.075  0.00  0.00    +0.000 A 
ATOM     23  C   UNL     1       0.719   9.053  20.302  0.00  0.00    +0.000 A 
ATOM     24  C   UNL     1      -0.145   9.832  21.073  0.00  0.00    +0.000 A 
ATOM     25  C   UNL     1      -0.541  11.089  20.614  0.00  0.00    +0.000 A 
ATOM     26  C   UNL     1      -0.056  11.561  19.396  0.00  0.00    +0.000 A 
ATOM     27 BR   UNL     1      -0.594  13.269  18.777  0.00  0.00    +0.000 Br
ATOM     28  C   UNL     1       0.815  10.795  18.618  0.00  0.00    +0.000 A 
ENDBRANCH  19  22
ENDBRANCH   1  20
TORSDOF 4
ENDMDL
MODEL 8
REMARK VINA RESULT:      -8.0      1.363      1.783
REMARK  Name = 
REMARK  4 active torsions:
REMARK  status: ('A' for Active; 'I' for Inactive)
REMARK    1  A    between atoms: C_2  and  C_21
REMARK    2  A    between atoms: N_3  and  C_4
REMARK    3  A    between atoms: C_4  and  C_12
REMARK    4  A    between atoms: C_5  and  C_6
REMARK                            x       y       z     vdW  Elec       q    Type
REMARK                         _______ _______ _______ _____ _____    ______ ____
ROOT
ATOM      1  C   UNL     1       3.362   6.421  18.201  0.00  0.00    +0.000 C 
ATOM      2  C   UNL     1       4.522   6.892  17.704  0.00  0.00    +0.000 C 
ENDROOT
BRANCH   1   3
ATOM      3  C   UNL     1       2.896   4.982  18.001  0.00  0.00    +0.000 C 
ATOM      4  O   UNL     1       2.635   4.592  16.862  0.00  0.00    +0.000 OA
ATOM      5  N   UNL     1       2.801   4.102  19.109  0.00  0.00    +0.000 N 
ATOM      6  C   UNL     1       2.630   2.676  18.803  0.00  0.00    +0.000 C 
ATOM      7  C   UNL     1       1.214   2.189  19.095  0.00  0.00    +0.000 C 
ATOM      8  C   UNL     1       0.976   1.805  20.555  0.00  0.00    +0.000 C 
ATOM      9  C   UNL     1       1.212   2.922  21.565  0.00  0.00    +0.000 C 
ATOM     10  C   UNL     1       2.659   3.418  21.590  0.00  0.00    +0.000 C 
ATOM     11  C   UNL     1       2.938   4.471  20.519  0.00  0.00    +0.000 C 
ENDBRANCH   1   3
BRANCH   2  12
ATOM     12  C   UNL     1       5.520   6.271  16.824  0.00  0.00    +0.000 A 
ATOM     13  C   UNL     1       5.282   6.083  15.463  0.00  0.00    +0.000 A 
ATOM     14  C   UNL     1       6.163   5.304  14.714  0.00  0.00    +0.000 A 
ATOM     15  C   UNL     1       7.251   4.731  15.353  0.00  0.00    +0.000 A 
ATOM     16  N   UNL     1       7.531   4.907  16.661  0.00  0.00    +0.000 NA
ATOM     17  C   UNL     1       6.664   5.679  17.360  0.00  0.00    +0.000 A 
ENDBRANCH   2  12
BRANCH   1  20
ATOM     18  O   UNL     1       2.234   8.792  17.053  0.00  0.00    +0.000 OA
ATOM     19  C   UNL     1       2.062   8.502  18.229  0.00  0.00    +0.000 C 
ATOM     20  N   UNL     1       2.514   7.332  18.824  0.00  0.00    +0.000 N 
ATOM     21  H   UNL     1       2.523   7.284  19.835  0.00  0.00    +0.000 HD
BRANCH  19  22
ATOM     22  C   UNL     1       1.432   9.490  19.147  0.00  0.00    +0.000 A 
ATOM     23  C   UNL     1       1.352  10.823  18.720  0.00  0.00    +0.000 A 
ATOM     24  C   UNL     1       0.808  11.802  19.554  0.00  0.00    +0.000 A 
ATOM     25  C   UNL     1       0.351  11.455  20.826  0.00  0.00    +0.000 A 
ATOM     26  C   UNL     1       0.428  10.128  21.246  0.00  0.00    +0.000 A 
ATOM     27 BR   UNL     1      -0.195   9.660  22.972  0.00  0.00    +0.000 Br
ATOM     28  C   UNL     1       0.963   9.137  20.420  0.00  0.00    +0.000 A 
ENDBRANCH  19  22
ENDBRANCH   1  20
TORSDOF 4
ENDMDL
MODEL 9
REMARK VINA RESULT:      -7.9      1.363      1.587
REMARK  Name = 
REMARK  4 active torsions:
REMARK  status: ('A' for Active; 'I' for Inactive)
REMARK    1  A    between atoms: C_2  and  C_21
REMARK    2  A    between atoms: N_3  and  C_4
REMARK    3  A    between atoms: C_4  and  C_12
REMARK    4  A    between atoms: C_5  and  C_6
REMARK                            x       y       z     vdW  Elec       q    Type
REMARK                         _______ _______ _______ _____ _____    ______ ____
ROOT
ATOM      1  C   UNL     1       3.268   6.947  18.070  0.00  0.00    +0.000 C 
ATOM      2  C   UNL     1       3.985   7.161  16.951  0.00  0.00    +0.000 C 
ENDROOT
BRANCH   1   3
ATOM      3  C   UNL     1       3.603   5.847  19.074  0.00  0.00    +0.000 C 
ATOM      4  O   UNL     1       4.566   5.998  19.827  0.00  0.00    +0.000 OA
ATOM      5  N   UNL     1       2.791   4.687  19.158  0.00  0.00    +0.000 N 
ATOM      6  C   UNL     1       2.999   3.823  20.328  0.00  0.00    +0.000 C 
ATOM      7  C   UNL     1       3.719   2.528  19.966  0.00  0.00    +0.000 C 
ATOM      8  C   UNL     1       2.798   1.429  19.439  0.00  0.00    +0.000 C 
ATOM      9  C   UNL     1       2.011   1.791  18.184  0.00  0.00    +0.000 C 
ATOM     10  C   UNL     1       1.042   2.955  18.395  0.00  0.00    +0.000 C 
ATOM     11  C   UNL     1       1.715   4.316  18.236  0.00  0.00    +0.000 C 
ENDBRANCH   1   3
BRANCH   2  12
ATOM     12  C   UNL     1       5.108   6.416  16.364  0.00  0.00    +0.000 A 
ATOM     13  C   UNL     1       4.907   5.269  15.600  0.00  0.00    +0.000 A 
ATOM     14  C   UNL     1       6.000   4.481  15.243  0.00  0.00    +0.000 A 
ATOM     15  C   UNL     1       7.262   4.864  15.671  0.00  0.00    +0.000 A 
ATOM     16  N   UNL     1       7.503   5.978  16.392  0.00  0.00    +0.000 NA
ATOM     17  C   UNL     1       6.422   6.729  16.713  0.00  0.00    +0.000 A 
ENDBRANCH   2  12
BRANCH   1  20
ATOM     18  O   UNL     1       2.889   9.711  17.419  0.00  0.00    +0.000 OA
ATOM     19  C   UNL     1       2.018   9.056  17.973  0.00  0.00    +0.000 C 
ATOM     20  N   UNL     1       2.109   7.697  18.243  0.00  0.00    +0.000 N 
ATOM     21  H   UNL     1       1.447   7.295  18.895  0.00  0.00    +0.000 HD
BRANCH  19  22
ATOM     22  C   UNL     1       0.811   9.741  18.511  0.00  0.00    +0.000 A 
ATOM     23  C   UNL     1       0.906  10.339  19.775  0.00  0.00    +0.000 A 
ATOM     24  C   UNL     1      -0.204  10.960  20.350  0.00  0.00    +0.000 A 
ATOM     25  C   UNL     1      -1.421  10.977  19.668  0.00  0.00    +0.000 A 
ATOM     26  C   UNL     1      -1.512  10.385  18.409  0.00  0.00    +0.000 A 
ATOM     27 BR   UNL     1      -3.165  10.410  17.484  0.00  0.00    +0.000 Br
ATOM     28  C   UNL     1      -0.407   9.765  17.819  0.00  0.00    +0.000 A 
ENDBRANCH  19  22
ENDBRANCH   1  20
TORSDOF 4
ENDMDL
