MODEL 1
REMARK VINA RESULT:      -5.7      0.000      0.000
REMARK  Name = 
REMARK  6 active torsions:
REMARK  status: ('A' for Active; 'I' for Inactive)
REMARK    1  A    between atoms: C_1  and  O_2
REMARK    2  A    between atoms: O_2  and  C_3
REMARK    3  A    between atoms: C_3  and  C_5
REMARK    4  A    between atoms: C_5  and  O_6
REMARK    5  A    between atoms: C_8  and  C_9
REMARK    6  A    between atoms: C_11  and  C_12
REMARK                            x       y       z     vdW  Elec       q    Type
REMARK                         _______ _______ _______ _____ _____    ______ ____
ROOT
ATOM      1  C   UNL     1       5.262   4.388  18.059  0.00  0.00    +0.000 C 
ATOM      2  C   UNL     1       4.888   3.989  16.613  0.00  0.00    +0.000 C 
ATOM      3  C   UNL     1       6.216   3.833  15.854  0.00  0.00    +0.000 C 
ATOM      4  C   UNL     1       6.109   4.254  14.395  0.00  0.00    +0.000 C 
ATOM      5  C   UNL     1       7.140   4.696  16.652  0.00  0.00    +0.000 C 
ATOM      6  C   UNL     1       6.620   4.987  17.852  0.00  0.00    +0.000 C 
ENDROOT
BRANCH   1   7
ATOM      7  C   UNL     1       4.202   5.374  18.612  0.00  0.00    +0.000 C 
ATOM      8  O   UNL     1       3.919   5.523  19.794  0.00  0.00    +0.000 OA
BRANCH   7  10
ATOM      9  C   UNL     1       3.320   7.424  17.839  0.00  0.00    +0.000 C 
ATOM     10  O   UNL     1       3.610   6.048  17.579  0.00  0.00    +0.000 OA
ENDBRANCH   7  10
ENDBRANCH   1   7
BRANCH   1  11
ATOM     11  O   UNL     1       5.389   3.226  18.873  0.00  0.00    +0.000 OA
ATOM     12  H   UNL     1       5.682   3.507  19.757  0.00  0.00    +0.000 HD
ENDBRANCH   1  11
BRANCH   6  13
ATOM     13  C   UNL     1       7.352   5.755  18.873  0.00  0.00    +0.000 C 
ATOM     14  O   UNL     1       7.427   5.391  20.040  0.00  0.00    +0.000 OA
ENDBRANCH   6  13
TORSDOF 4
ENDMDL
MODEL 2
REMARK VINA RESULT:      -5.7      0.701      1.244
REMARK  Name = 
REMARK  6 active torsions:
REMARK  status: ('A' for Active; 'I' for Inactive)
REMARK    1  A    between atoms: C_1  and  O_2
REMARK    2  A    between atoms: O_2  and  C_3
REMARK    3  A    between atoms: C_3  and  C_5
REMARK    4  A    between atoms: C_5  and  O_6
REMARK    5  A    between atoms: C_8  and  C_9
REMARK    6  A    between atoms: C_11  and  C_12
REMARK                            x       y       z     vdW  Elec       q    Type
REMARK                         _______ _______ _______ _____ _____    ______ ____
ROOT
ATOM      1  C   UNL     1       5.271   4.463  18.082  0.00  0.00    +0.000 C 
ATOM      2  C   UNL     1       4.866   4.077  16.641  0.00  0.00    +0.000 C 
ATOM      3  C   UNL     1       6.179   3.862  15.870  0.00  0.00    +0.000 C 
ATOM      4  C   UNL     1       6.078   4.283  14.411  0.00  0.00    +0.000 C 
ATOM      5  C   UNL     1       7.147   4.685  16.657  0.00  0.00    +0.000 C 
ATOM      6  C   UNL     1       6.652   5.001  17.861  0.00  0.00    +0.000 C 
ENDROOT
BRANCH   1   7
ATOM      7  C   UNL     1       4.261   5.496  18.642  0.00  0.00    +0.000 C 
ATOM      8  O   UNL     1       3.952   6.552  18.103  0.00  0.00    +0.000 OA
BRANCH   7  10
ATOM      9  C   UNL     1       2.408   5.406  20.103  0.00  0.00    +0.000 C 
ATOM     10  O   UNL     1       3.771   5.064  19.845  0.00  0.00    +0.000 OA
ENDBRANCH   7  10
ENDBRANCH   1   7
BRANCH   1  11
ATOM     11  O   UNL     1       5.354   3.298  18.898  0.00  0.00    +0.000 OA
ATOM     12  H   UNL     1       4.598   3.303  19.509  0.00  0.00    +0.000 HD
ENDBRANCH   1  11
BRANCH   6  13
ATOM     13  C   UNL     1       7.426   5.739  18.874  0.00  0.00    +0.000 C 
ATOM     14  O   UNL     1       7.468   5.394  20.048  0.00  0.00    +0.000 OA
ENDBRANCH   6  13
TORSDOF 4
ENDMDL
MODEL 3
REMARK VINA RESULT:      -5.5      1.961      4.007
REMARK  Name = 
REMARK  6 active torsions:
REMARK  status: ('A' for Active; 'I' for Inactive)
REMARK    1  A    between atoms: C_1  and  O_2
REMARK    2  A    between atoms: O_2  and  C_3
REMARK    3  A    between atoms: C_3  and  C_5
REMARK    4  A    between atoms: C_5  and  O_6
REMARK    5  A    between atoms: C_8  and  C_9
REMARK    6  A    between atoms: C_11  and  C_12
REMARK                            x       y       z     vdW  Elec       q    Type
REMARK                         _______ _______ _______ _____ _____    ______ ____
ROOT
ATOM      1  C   UNL     1       5.548   4.314  17.470  0.00  0.00    +0.000 C 
ATOM      2  C   UNL     1       4.860   3.874  18.783  0.00  0.00    +0.000 C 
ATOM      3  C   UNL     1       3.447   4.483  18.751  0.00  0.00    +0.000 C 
ATOM      4  C   UNL     1       2.950   4.882  20.132  0.00  0.00    +0.000 C 
ATOM      5  C   UNL     1       3.624   5.645  17.828  0.00  0.00    +0.000 C 
ATOM      6  C   UNL     1       4.762   5.543  17.129  0.00  0.00    +0.000 C 
ENDROOT
BRANCH   1   7
ATOM      7  C   UNL     1       7.053   4.566  17.737  0.00  0.00    +0.000 C 
ATOM      8  O   UNL     1       7.958   4.385  16.931  0.00  0.00    +0.000 OA
BRANCH   7  10
ATOM      9  C   UNL     1       7.990   6.212  19.147  0.00  0.00    +0.000 C 
ATOM     10  O   UNL     1       7.231   5.008  19.020  0.00  0.00    +0.000 OA
ENDBRANCH   7  10
ENDBRANCH   1   7
BRANCH   1  11
ATOM     11  O   UNL     1       5.340   3.337  16.455  0.00  0.00    +0.000 OA
ATOM     12  H   UNL     1       4.864   2.586  16.851  0.00  0.00    +0.000 HD
ENDBRANCH   1  11
BRANCH   6  13
ATOM     13  C   UNL     1       5.149   6.511  16.087  0.00  0.00    +0.000 C 
ATOM     14  O   UNL     1       5.616   6.164  15.009  0.00  0.00    +0.000 OA
ENDBRANCH   6  13
TORSDOF 4
ENDMDL
MODEL 4
REMARK VINA RESULT:      -5.5      2.767      5.074
REMARK  Name = 
REMARK  6 active torsions:
REMARK  status: ('A' for Active; 'I' for Inactive)
REMARK    1  A    between atoms: C_1  and  O_2
REMARK    2  A    between atoms: O_2  and  C_3
REMARK    3  A    between atoms: C_3  and  C_5
REMARK    4  A    between atoms: C_5  and  O_6
REMARK    5  A    between atoms: C_8  and  C_9
REMARK    6  A    between atoms: C_11  and  C_12
REMARK                            x       y       z     vdW  Elec       q    Type
REMARK                         _______ _______ _______ _____ _____    ______ ____
ROOT
ATOM      1  C   UNL     1       2.302   4.065  18.397  0.00  0.00    +0.000 C 
ATOM      2  C   UNL     1       2.010   2.830  19.280  0.00  0.00    +0.000 C 
ATOM      3  C   UNL     1       1.158   3.336  20.456  0.00  0.00    +0.000 C 
ATOM      4  C   UNL     1       1.445   2.591  21.751  0.00  0.00    +0.000 C 
ATOM      5  C   UNL     1       1.525   4.784  20.513  0.00  0.00    +0.000 C 
ATOM      6  C   UNL     1       2.139   5.176  19.389  0.00  0.00    +0.000 C 
ENDROOT
BRANCH   1   7
ATOM      7  C   UNL     1       3.725   3.943  17.796  0.00  0.00    +0.000 C 
ATOM      8  O   UNL     1       4.004   4.027  16.606  0.00  0.00    +0.000 OA
BRANCH   7  10
ATOM      9  C   UNL     1       5.726   4.628  18.846  0.00  0.00    +0.000 C 
ATOM     10  O   UNL     1       4.633   3.709  18.793  0.00  0.00    +0.000 OA
ENDBRANCH   7  10
ENDBRANCH   1   7
BRANCH   1  11
ATOM     11  O   UNL     1       1.305   4.195  17.389  0.00  0.00    +0.000 OA
ATOM     12  H   UNL     1       1.348   3.408  16.817  0.00  0.00    +0.000 HD
ENDBRANCH   1  11
BRANCH   6  13
ATOM     13  C   UNL     1       2.539   6.572  19.142  0.00  0.00    +0.000 C 
ATOM     14  O   UNL     1       2.345   7.131  18.070  0.00  0.00    +0.000 OA
ENDBRANCH   6  13
TORSDOF 4
ENDMDL
MODEL 5
REMARK VINA RESULT:      -5.4      2.221      3.905
REMARK  Name = 
REMARK  6 active torsions:
REMARK  status: ('A' for Active; 'I' for Inactive)
REMARK    1  A    between atoms: C_1  and  O_2
REMARK    2  A    between atoms: O_2  and  C_3
REMARK    3  A    between atoms: C_3  and  C_5
REMARK    4  A    between atoms: C_5  and  O_6
REMARK    5  A    between atoms: C_8  and  C_9
REMARK    6  A    between atoms: C_11  and  C_12
REMARK                            x       y       z     vdW  Elec       q    Type
REMARK                         _______ _______ _______ _____ _____    ______ ____
ROOT
ATOM      1  C   UNL     1       4.266   3.636  19.024  0.00  0.00    +0.000 C 
ATOM      2  C   UNL     1       2.969   3.269  19.780  0.00  0.00    +0.000 C 
ATOM      3  C   UNL     1       2.140   2.404  18.815  0.00  0.00    +0.000 C 
ATOM      4  C   UNL     1       0.643   2.622  18.971  0.00  0.00    +0.000 C 
ATOM      5  C   UNL     1       2.664   2.828  17.481  0.00  0.00    +0.000 C 
ATOM      6  C   UNL     1       3.823   3.489  17.600  0.00  0.00    +0.000 C 
ENDROOT
BRANCH   1   7
ATOM      7  C   UNL     1       4.702   5.070  19.417  0.00  0.00    +0.000 C 
ATOM      8  O   UNL     1       3.980   6.059  19.411  0.00  0.00    +0.000 OA
BRANCH   7  10
ATOM      9  C   UNL     1       6.884   5.775  18.851  0.00  0.00    +0.000 C 
ATOM     10  O   UNL     1       6.028   5.077  19.758  0.00  0.00    +0.000 OA
ENDBRANCH   7  10
ENDBRANCH   1   7
BRANCH   1  11
ATOM     11  O   UNL     1       5.281   2.675  19.293  0.00  0.00    +0.000 OA
ATOM     12  H   UNL     1       4.876   1.936  19.780  0.00  0.00    +0.000 HD
ENDBRANCH   1  11
BRANCH   6  13
ATOM     13  C   UNL     1       4.601   3.953  16.438  0.00  0.00    +0.000 C 
ATOM     14  O   UNL     1       5.786   3.682  16.291  0.00  0.00    +0.000 OA
ENDBRANCH   6  13
TORSDOF 4
ENDMDL
MODEL 6
REMARK VINA RESULT:      -5.4      1.412      1.803
REMARK  Name = 
REMARK  6 active torsions:
REMARK  status: ('A' for Active; 'I' for Inactive)
REMARK    1  A    between atoms: C_1  and  O_2
REMARK    2  A    between atoms: O_2  and  C_3
REMARK    3  A    between atoms: C_3  and  C_5
REMARK    4  A    between atoms: C_5  and  O_6
REMARK    5  A    between atoms: C_8  and  C_9
REMARK    6  A    between atoms: C_11  and  C_12
REMARK                            x       y       z     vdW  Elec       q    Type
REMARK                         _______ _______ _______ _____ _____    ______ ____
ROOT
ATOM      1  C   UNL     1       5.628   4.776  17.541  0.00  0.00    +0.000 C 
ATOM      2  C   UNL     1       5.104   3.985  16.320  0.00  0.00    +0.000 C 
ATOM      3  C   UNL     1       6.270   3.921  15.318  0.00  0.00    +0.000 C 
ATOM      4  C   UNL     1       5.801   3.960  13.872  0.00  0.00    +0.000 C 
ATOM      5  C   UNL     1       7.088   5.110  15.708  0.00  0.00    +0.000 C 
ATOM      6  C   UNL     1       6.741   5.564  16.919  0.00  0.00    +0.000 C 
ENDROOT
BRANCH   1   7
ATOM      7  C   UNL     1       4.481   5.636  18.128  0.00  0.00    +0.000 C 
ATOM      8  O   UNL     1       3.796   6.433  17.498  0.00  0.00    +0.000 OA
BRANCH   7  10
ATOM      9  C   UNL     1       3.008   5.262  19.936  0.00  0.00    +0.000 C 
ATOM     10  O   UNL     1       4.353   5.389  19.468  0.00  0.00    +0.000 OA
ENDBRANCH   7  10
ENDBRANCH   1   7
BRANCH   1  11
ATOM     11  O   UNL     1       6.177   3.884  18.506  0.00  0.00    +0.000 OA
ATOM     12  H   UNL     1       5.457   3.322  18.842  0.00  0.00    +0.000 HD
ENDBRANCH   1  11
BRANCH   6  13
ATOM     13  C   UNL     1       7.439   6.678  17.584  0.00  0.00    +0.000 C 
ATOM     14  O   UNL     1       7.599   7.767  17.047  0.00  0.00    +0.000 OA
ENDBRANCH   6  13
TORSDOF 4
ENDMDL
MODEL 7
REMARK VINA RESULT:      -5.4      2.596      4.088
REMARK  Name = 
REMARK  6 active torsions:
REMARK  status: ('A' for Active; 'I' for Inactive)
REMARK    1  A    between atoms: C_1  and  O_2
REMARK    2  A    between atoms: O_2  and  C_3
REMARK    3  A    between atoms: C_3  and  C_5
REMARK    4  A    between atoms: C_5  and  O_6
REMARK    5  A    between atoms: C_8  and  C_9
REMARK    6  A    between atoms: C_11  and  C_12
REMARK                            x       y       z     vdW  Elec       q    Type
REMARK                         _______ _______ _______ _____ _____    ______ ____
ROOT
ATOM      1  C   UNL     1       5.749   5.594  15.891  0.00  0.00    +0.000 C 
ATOM      2  C   UNL     1       4.673   4.534  16.221  0.00  0.00    +0.000 C 
ATOM      3  C   UNL     1       4.258   4.785  17.682  0.00  0.00    +0.000 C 
ATOM      4  C   UNL     1       3.908   3.502  18.419  0.00  0.00    +0.000 C 
ATOM      5  C   UNL     1       5.460   5.478  18.238  0.00  0.00    +0.000 C 
ATOM      6  C   UNL     1       6.262   5.922  17.261  0.00  0.00    +0.000 C 
ENDROOT
BRANCH   1   7
ATOM      7  C   UNL     1       6.805   4.976  14.941  0.00  0.00    +0.000 C 
ATOM      8  O   UNL     1       7.864   5.501  14.617  0.00  0.00    +0.000 OA
BRANCH   7  10
ATOM      9  C   UNL     1       6.224   3.646  13.078  0.00  0.00    +0.000 C 
ATOM     10  O   UNL     1       6.374   3.756  14.495  0.00  0.00    +0.000 OA
ENDBRANCH   7  10
ENDBRANCH   1   7
BRANCH   1  11
ATOM     11  O   UNL     1       5.142   6.755  15.335  0.00  0.00    +0.000 OA
ATOM     12  H   UNL     1       4.934   6.570  14.402  0.00  0.00    +0.000 HD
ENDBRANCH   1  11
BRANCH   6  13
ATOM     13  C   UNL     1       7.478   6.711  17.523  0.00  0.00    +0.000 C 
ATOM     14  O   UNL     1       7.669   7.811  17.018  0.00  0.00    +0.000 OA
ENDBRANCH   6  13
TORSDOF 4
ENDMDL
MODEL 8
REMARK VINA RESULT:      -5.3      1.481      1.525
REMARK  Name = 
REMARK  6 active torsions:
REMARK  status: ('A' for Active; 'I' for Inactive)
REMARK    1  A    between atoms: C_1  and  O_2
REMARK    2  A    between atoms: O_2  and  C_3
REMARK    3  A    between atoms: C_3  and  C_5
REMARK    4  A    between atoms: C_5  and  O_6
REMARK    5  A    between atoms: C_8  and  C_9
REMARK    6  A    between atoms: C_11  and  C_12
REMARK                            x       y       z     vdW  Elec       q    Type
REMARK                         _______ _______ _______ _____ _____    ______ ____
ROOT
ATOM      1  C   UNL     1       5.749   4.681  17.655  0.00  0.00    +0.000 C 
ATOM      2  C   UNL     1       5.244   3.866  16.442  0.00  0.00    +0.000 C 
ATOM      3  C   UNL     1       6.308   4.031  15.342  0.00  0.00    +0.000 C 
ATOM      4  C   UNL     1       5.707   4.054  13.945  0.00  0.00    +0.000 C 
ATOM      5  C   UNL     1       6.962   5.319  15.726  0.00  0.00    +0.000 C 
ATOM      6  C   UNL     1       6.662   5.662  16.985  0.00  0.00    +0.000 C 
ENDROOT
BRANCH   1   7
ATOM      7  C   UNL     1       4.540   5.321  18.384  0.00  0.00    +0.000 C 
ATOM      8  O   UNL     1       4.496   5.600  19.576  0.00  0.00    +0.000 OA
BRANCH   7  10
ATOM      9  C   UNL     1       2.210   5.232  18.015  0.00  0.00    +0.000 C 
ATOM     10  O   UNL     1       3.513   5.515  17.501  0.00  0.00    +0.000 OA
ENDBRANCH   7  10
ENDBRANCH   1   7
BRANCH   1  11
ATOM     11  O   UNL     1       6.517   3.850  18.519  0.00  0.00    +0.000 OA
ATOM     12  H   UNL     1       6.691   4.345  19.339  0.00  0.00    +0.000 HD
ENDBRANCH   1  11
BRANCH   6  13
ATOM     13  C   UNL     1       7.236   6.846  17.648  0.00  0.00    +0.000 C 
ATOM     14  O   UNL     1       7.698   7.791  17.021  0.00  0.00    +0.000 OA
ENDBRANCH   6  13
TORSDOF 4
ENDMDL
MODEL 9
REMARK VINA RESULT:      -5.3      2.764      4.974
REMARK  Name = 
REMARK  6 active torsions:
REMARK  status: ('A' for Active; 'I' for Inactive)
REMARK    1  A    between atoms: C_1  and  O_2
REMARK    2  A    between atoms: O_2  and  C_3
REMARK    3  A    between atoms: C_3  and  C_5
REMARK    4  A    between atoms: C_5  and  O_6
REMARK    5  A    between atoms: C_8  and  C_9
REMARK    6  A    between atoms: C_11  and  C_12
REMARK                            x       y       z     vdW  Elec       q    Type
REMARK                         _______ _______ _______ _____ _____    ______ ____
ROOT
ATOM      1  C   UNL     1       2.441   3.937  18.478  0.00  0.00    +0.000 C 
ATOM      2  C   UNL     1       2.097   2.734  19.386  0.00  0.00    +0.000 C 
ATOM      3  C   UNL     1       1.153   3.275  20.474  0.00  0.00    +0.000 C 
ATOM      4  C   UNL     1       1.350   2.585  21.816  0.00  0.00    +0.000 C 
ATOM      5  C   UNL     1       1.500   4.728  20.500  0.00  0.00    +0.000 C 
ATOM      6  C   UNL     1       2.192   5.084  19.409  0.00  0.00    +0.000 C 
ENDROOT
BRANCH   1   7
ATOM      7  C   UNL     1       3.906   3.811  17.990  0.00  0.00    +0.000 C 
ATOM      8  O   UNL     1       4.878   3.608  18.707  0.00  0.00    +0.000 OA
BRANCH   7  10
ATOM      9  C   UNL     1       5.108   4.686  16.156  0.00  0.00    +0.000 C 
ATOM     10  O   UNL     1       3.962   3.979  16.633  0.00  0.00    +0.000 OA
ENDBRANCH   7  10
ENDBRANCH   1   7
BRANCH   1  11
ATOM     11  O   UNL     1       1.520   4.014  17.394  0.00  0.00    +0.000 OA
ATOM     12  H   UNL     1       1.242   3.109  17.169  0.00  0.00    +0.000 HD
ENDBRANCH   1  11
BRANCH   6  13
ATOM     13  C   UNL     1       2.594   6.474  19.137  0.00  0.00    +0.000 C 
ATOM     14  O   UNL     1       2.460   6.994  18.036  0.00  0.00    +0.000 OA
ENDBRANCH   6  13
TORSDOF 4
ENDMDL
