MODEL 1
REMARK VINA RESULT:      -7.9      0.000      0.000
REMARK  Name = 
REMARK  2 active torsions:
REMARK  status: ('A' for Active; 'I' for Inactive)
REMARK    1  A    between atoms: N_7  and  C_8
REMARK    2  A    between atoms: C_11  and  C_12
REMARK                            x       y       z     vdW  Elec       q    Type
REMARK                         _______ _______ _______ _____ _____    ______ ____
ROOT
ATOM      1  C   UNL     1       3.967   6.298  17.686  0.00  0.00    +0.000 A 
ATOM      2  C   UNL     1       3.519   5.923  18.961  0.00  0.00    +0.000 A 
ATOM      3  C   UNL     1       2.638   6.731  19.702  0.00  0.00    +0.000 A 
ATOM      4  C   UNL     1       2.165   7.940  19.181  0.00  0.00    +0.000 A 
ATOM      5  C   UNL     1       2.597   8.308  17.901  0.00  0.00    +0.000 A 
ATOM      6  C   UNL     1       3.481   7.507  17.169  0.00  0.00    +0.000 A 
ENDROOT
BRANCH   4   7
ATOM      7  C   UNL     1       1.300   8.868  19.926  0.00  0.00    +0.000 A 
ATOM      8  N   UNL     1       1.029   8.721  21.207  0.00  0.00    +0.000 NA
ATOM      9  C   UNL     1       0.149   9.695  21.632  0.00  0.00    +0.000 A 
ATOM     10  C   UNL     1      -0.392   9.803  22.929  0.00  0.00    +0.000 A 
ATOM     11  C   UNL     1      -1.295  10.828  23.221  0.00  0.00    +0.000 A 
ATOM     12  C   UNL     1      -1.649  11.752  22.244  0.00  0.00    +0.000 A 
ATOM     13  C   UNL     1      -1.114  11.675  20.953  0.00  0.00    +0.000 A 
ATOM     14  C   UNL     1      -0.221  10.629  20.666  0.00  0.00    +0.000 A 
ATOM     15  S   UNL     1       0.579  10.247  19.190  0.00  0.00    +0.000 S 
ENDBRANCH   4   7
BRANCH   1  22
ATOM     16  O   UNL     1       3.639   3.510  16.720  0.00  0.00    +0.000 OA
ATOM     17  C   UNL     1       4.636   4.198  16.544  0.00  0.00    +0.000 C 
ATOM     18  C   UNL     1       5.797   3.698  15.739  0.00  0.00    +0.000 C 
ATOM     19  C   UNL     1       6.817   4.804  15.803  0.00  0.00    +0.000 C 
ATOM     20  C   UNL     1       6.134   5.912  16.543  0.00  0.00    +0.000 C 
ATOM     21  O   UNL     1       6.704   6.973  16.761  0.00  0.00    +0.000 OA
ATOM     22  N   UNL     1       4.883   5.493  16.942  0.00  0.00    +0.000 N 
ENDBRANCH   1  22
TORSDOF 2
ENDMDL
MODEL 2
REMARK VINA RESULT:      -7.9      0.216      1.633
REMARK  Name = 
REMARK  2 active torsions:
REMARK  status: ('A' for Active; 'I' for Inactive)
REMARK    1  A    between atoms: N_7  and  C_8
REMARK    2  A    between atoms: C_11  and  C_12
REMARK                            x       y       z     vdW  Elec       q    Type
REMARK                         _______ _______ _______ _____ _____    ______ ____
ROOT
ATOM      1  C   UNL     1       3.838   6.412  17.785  0.00  0.00    +0.000 A 
ATOM      2  C   UNL     1       3.374   6.054  19.059  0.00  0.00    +0.000 A 
ATOM      3  C   UNL     1       2.491   6.876  19.782  0.00  0.00    +0.000 A 
ATOM      4  C   UNL     1       2.031   8.081  19.242  0.00  0.00    +0.000 A 
ATOM      5  C   UNL     1       2.477   8.431  17.962  0.00  0.00    +0.000 A 
ATOM      6  C   UNL     1       3.364   7.617  17.249  0.00  0.00    +0.000 A 
ENDROOT
BRANCH   4   7
ATOM      7  C   UNL     1       1.163   9.023  19.967  0.00  0.00    +0.000 A 
ATOM      8  N   UNL     1       0.888   8.899  21.250  0.00  0.00    +0.000 NA
ATOM      9  C   UNL     1       0.007   9.881  21.654  0.00  0.00    +0.000 A 
ATOM     10  C   UNL     1      -0.538  10.013  22.947  0.00  0.00    +0.000 A 
ATOM     11  C   UNL     1      -1.441  11.043  23.217  0.00  0.00    +0.000 A 
ATOM     12  C   UNL     1      -1.793  11.950  22.223  0.00  0.00    +0.000 A 
ATOM     13  C   UNL     1      -1.253  11.849  20.936  0.00  0.00    +0.000 A 
ATOM     14  C   UNL     1      -0.359  10.798  20.670  0.00  0.00    +0.000 A 
ATOM     15  S   UNL     1       0.446  10.389  19.205  0.00  0.00    +0.000 S 
ENDBRANCH   4   7
BRANCH   1  22
ATOM     16  O   UNL     1       6.555   7.085  16.793  0.00  0.00    +0.000 OA
ATOM     17  C   UNL     1       6.002   6.004  16.638  0.00  0.00    +0.000 C 
ATOM     18  C   UNL     1       6.699   4.861  15.965  0.00  0.00    +0.000 C 
ATOM     19  C   UNL     1       5.679   3.753  15.929  0.00  0.00    +0.000 C 
ATOM     20  C   UNL     1       4.504   4.291  16.684  0.00  0.00    +0.000 C 
ATOM     21  O   UNL     1       3.492   3.620  16.843  0.00  0.00    +0.000 OA
ATOM     22  N   UNL     1       4.757   5.593  17.060  0.00  0.00    +0.000 N 
ENDBRANCH   1  22
TORSDOF 2
ENDMDL
MODEL 3
REMARK VINA RESULT:      -7.8      0.864      2.100
REMARK  Name = 
REMARK  2 active torsions:
REMARK  status: ('A' for Active; 'I' for Inactive)
REMARK    1  A    between atoms: N_7  and  C_8
REMARK    2  A    between atoms: C_11  and  C_12
REMARK                            x       y       z     vdW  Elec       q    Type
REMARK                         _______ _______ _______ _____ _____    ______ ____
ROOT
ATOM      1  C   UNL     1       3.932   6.406  17.781  0.00  0.00    +0.000 A 
ATOM      2  C   UNL     1       3.500   5.970  19.042  0.00  0.00    +0.000 A 
ATOM      3  C   UNL     1       2.590   6.718  19.810  0.00  0.00    +0.000 A 
ATOM      4  C   UNL     1       2.069   7.924  19.330  0.00  0.00    +0.000 A 
ATOM      5  C   UNL     1       2.485   8.352  18.063  0.00  0.00    +0.000 A 
ATOM      6  C   UNL     1       3.399   7.611  17.305  0.00  0.00    +0.000 A 
ENDROOT
BRANCH   4   7
ATOM      7  C   UNL     1       1.169   8.793  20.106  0.00  0.00    +0.000 A 
ATOM      8  N   UNL     1       0.447   9.748  19.555  0.00  0.00    +0.000 NA
ATOM      9  C   UNL     1      -0.255  10.441  20.519  0.00  0.00    +0.000 A 
ATOM     10  C   UNL     1      -1.085  11.557  20.286  0.00  0.00    +0.000 A 
ATOM     11  C   UNL     1      -1.722  12.183  21.359  0.00  0.00    +0.000 A 
ATOM     12  C   UNL     1      -1.558  11.702  22.654  0.00  0.00    +0.000 A 
ATOM     13  C   UNL     1      -0.752  10.586  22.908  0.00  0.00    +0.000 A 
ATOM     14  C   UNL     1      -0.101   9.975  21.823  0.00  0.00    +0.000 A 
ATOM     15  S   UNL     1       0.964   8.623  21.806  0.00  0.00    +0.000 S 
ENDBRANCH   4   7
BRANCH   1  22
ATOM     16  O   UNL     1       6.607   7.243  16.800  0.00  0.00    +0.000 OA
ATOM     17  C   UNL     1       6.100   6.148  16.598  0.00  0.00    +0.000 C 
ATOM     18  C   UNL     1       6.839   5.069  15.866  0.00  0.00    +0.000 C 
ATOM     19  C   UNL     1       5.868   3.920  15.787  0.00  0.00    +0.000 C 
ATOM     20  C   UNL     1       4.678   4.370  16.576  0.00  0.00    +0.000 C 
ATOM     21  O   UNL     1       3.698   3.649  16.711  0.00  0.00    +0.000 OA
ATOM     22  N   UNL     1       4.878   5.662  17.011  0.00  0.00    +0.000 N 
ENDBRANCH   1  22
TORSDOF 2
ENDMDL
MODEL 4
REMARK VINA RESULT:      -7.8      0.880      1.350
REMARK  Name = 
REMARK  2 active torsions:
REMARK  status: ('A' for Active; 'I' for Inactive)
REMARK    1  A    between atoms: N_7  and  C_8
REMARK    2  A    between atoms: C_11  and  C_12
REMARK                            x       y       z     vdW  Elec       q    Type
REMARK                         _______ _______ _______ _____ _____    ______ ____
ROOT
ATOM      1  C   UNL     1       3.837   6.430  17.838  0.00  0.00    +0.000 A 
ATOM      2  C   UNL     1       3.399   6.003  19.100  0.00  0.00    +0.000 A 
ATOM      3  C   UNL     1       2.497   6.763  19.865  0.00  0.00    +0.000 A 
ATOM      4  C   UNL     1       1.991   7.974  19.381  0.00  0.00    +0.000 A 
ATOM      5  C   UNL     1       2.412   8.393  18.113  0.00  0.00    +0.000 A 
ATOM      6  C   UNL     1       3.317   7.639  17.358  0.00  0.00    +0.000 A 
ENDROOT
BRANCH   4   7
ATOM      7  C   UNL     1       1.100   8.855  20.154  0.00  0.00    +0.000 A 
ATOM      8  N   UNL     1       0.348   9.780  19.594  0.00  0.00    +0.000 NA
ATOM      9  C   UNL     1      -0.337  10.495  20.554  0.00  0.00    +0.000 A 
ATOM     10  C   UNL     1      -1.190  11.590  20.309  0.00  0.00    +0.000 A 
ATOM     11  C   UNL     1      -1.805  12.243  21.379  0.00  0.00    +0.000 A 
ATOM     12  C   UNL     1      -1.596  11.808  22.684  0.00  0.00    +0.000 A 
ATOM     13  C   UNL     1      -0.766  10.713  22.951  0.00  0.00    +0.000 A 
ATOM     14  C   UNL     1      -0.138  10.076  21.868  0.00  0.00    +0.000 A 
ATOM     15  S   UNL     1       0.947   8.739  21.864  0.00  0.00    +0.000 S 
ENDBRANCH   4   7
BRANCH   1  22
ATOM     16  O   UNL     1       3.598   3.654  16.810  0.00  0.00    +0.000 OA
ATOM     17  C   UNL     1       4.569   4.380  16.643  0.00  0.00    +0.000 C 
ATOM     18  C   UNL     1       5.741   3.938  15.820  0.00  0.00    +0.000 C 
ATOM     19  C   UNL     1       6.723   5.077  15.904  0.00  0.00    +0.000 C 
ATOM     20  C   UNL     1       6.008   6.143  16.672  0.00  0.00    +0.000 C 
ATOM     21  O   UNL     1       6.543   7.219  16.912  0.00  0.00    +0.000 OA
ATOM     22  N   UNL     1       4.775   5.673  17.070  0.00  0.00    +0.000 N 
ENDBRANCH   1  22
TORSDOF 2
ENDMDL
MODEL 5
REMARK VINA RESULT:      -7.6      1.867      2.432
REMARK  Name = 
REMARK  2 active torsions:
REMARK  status: ('A' for Active; 'I' for Inactive)
REMARK    1  A    between atoms: N_7  and  C_8
REMARK    2  A    between atoms: C_11  and  C_12
REMARK                            x       y       z     vdW  Elec       q    Type
REMARK                         _______ _______ _______ _____ _____    ______ ____
ROOT
ATOM      1  C   UNL     1       2.473   6.436  18.971  0.00  0.00    +0.000 A 
ATOM      2  C   UNL     1       2.374   7.588  18.176  0.00  0.00    +0.000 A 
ATOM      3  C   UNL     1       1.807   8.777  18.667  0.00  0.00    +0.000 A 
ATOM      4  C   UNL     1       1.332   8.857  19.980  0.00  0.00    +0.000 A 
ATOM      5  C   UNL     1       1.448   7.714  20.781  0.00  0.00    +0.000 A 
ATOM      6  C   UNL     1       2.003   6.528  20.288  0.00  0.00    +0.000 A 
ENDROOT
BRANCH   4   7
ATOM      7  C   UNL     1       0.665  10.043  20.538  0.00  0.00    +0.000 A 
ATOM      8  N   UNL     1       0.003  10.022  21.677  0.00  0.00    +0.000 NA
ATOM      9  C   UNL     1      -0.570  11.252  21.928  0.00  0.00    +0.000 A 
ATOM     10  C   UNL     1      -1.389  11.565  23.032  0.00  0.00    +0.000 A 
ATOM     11  C   UNL     1      -1.927  12.848  23.154  0.00  0.00    +0.000 A 
ATOM     12  C   UNL     1      -1.644  13.823  22.203  0.00  0.00    +0.000 A 
ATOM     13  C   UNL     1      -0.821  13.540  21.107  0.00  0.00    +0.000 A 
ATOM     14  C   UNL     1      -0.300  12.241  20.985  0.00  0.00    +0.000 A 
ATOM     15  S   UNL     1       0.708  11.577  19.758  0.00  0.00    +0.000 S 
ENDBRANCH   4   7
BRANCH   1  22
ATOM     16  O   UNL     1       1.139   4.299  17.399  0.00  0.00    +0.000 OA
ATOM     17  C   UNL     1       2.312   4.282  17.748  0.00  0.00    +0.000 C 
ATOM     18  C   UNL     1       3.231   3.170  17.340  0.00  0.00    +0.000 C 
ATOM     19  C   UNL     1       4.545   3.492  18.001  0.00  0.00    +0.000 C 
ATOM     20  C   UNL     1       4.331   4.824  18.650  0.00  0.00    +0.000 C 
ATOM     21  O   UNL     1       5.227   5.376  19.276  0.00  0.00    +0.000 OA
ATOM     22  N   UNL     1       3.022   5.218  18.467  0.00  0.00    +0.000 N 
ENDBRANCH   1  22
TORSDOF 2
ENDMDL
MODEL 6
REMARK VINA RESULT:      -7.6      1.141      1.706
REMARK  Name = 
REMARK  2 active torsions:
REMARK  status: ('A' for Active; 'I' for Inactive)
REMARK    1  A    between atoms: N_7  and  C_8
REMARK    2  A    between atoms: C_11  and  C_12
REMARK                            x       y       z     vdW  Elec       q    Type
REMARK                         _______ _______ _______ _____ _____    ______ ____
ROOT
ATOM      1  C   UNL     1       3.017   6.807  18.316  0.00  0.00    +0.000 A 
ATOM      2  C   UNL     1       2.647   7.955  17.600  0.00  0.00    +0.000 A 
ATOM      3  C   UNL     1       1.843   8.956  18.174  0.00  0.00    +0.000 A 
ATOM      4  C   UNL     1       1.395   8.845  19.494  0.00  0.00    +0.000 A 
ATOM      5  C   UNL     1       1.779   7.709  20.217  0.00  0.00    +0.000 A 
ATOM      6  C   UNL     1       2.570   6.709  19.640  0.00  0.00    +0.000 A 
ENDROOT
BRANCH   4   7
ATOM      7  C   UNL     1       0.495   9.817  20.136  0.00  0.00    +0.000 A 
ATOM      8  N   UNL     1       0.241   9.810  21.429  0.00  0.00    +0.000 NA
ATOM      9  C   UNL     1      -0.678  10.789  21.748  0.00  0.00    +0.000 A 
ATOM     10  C   UNL     1      -1.212  11.026  23.030  0.00  0.00    +0.000 A 
ATOM     11  C   UNL     1      -2.158  12.038  23.212  0.00  0.00    +0.000 A 
ATOM     12  C   UNL     1      -2.561  12.824  22.137  0.00  0.00    +0.000 A 
ATOM     13  C   UNL     1      -2.034  12.618  20.858  0.00  0.00    +0.000 A 
ATOM     14  C   UNL     1      -1.097  11.585  20.684  0.00  0.00    +0.000 A 
ATOM     15  S   UNL     1      -0.293  11.066  19.253  0.00  0.00    +0.000 S 
ENDBRANCH   4   7
BRANCH   1  22
ATOM     16  O   UNL     1       2.238   4.029  17.613  0.00  0.00    +0.000 OA
ATOM     17  C   UNL     1       3.352   4.507  17.443  0.00  0.00    +0.000 C 
ATOM     18  C   UNL     1       4.445   3.724  16.780  0.00  0.00    +0.000 C 
ATOM     19  C   UNL     1       5.645   4.633  16.809  0.00  0.00    +0.000 C 
ATOM     20  C   UNL     1       5.136   5.919  17.381  0.00  0.00    +0.000 C 
ATOM     21  O   UNL     1       5.878   6.882  17.534  0.00  0.00    +0.000 OA
ATOM     22  N   UNL     1       3.810   5.775  17.727  0.00  0.00    +0.000 N 
ENDBRANCH   1  22
TORSDOF 2
ENDMDL
MODEL 7
REMARK VINA RESULT:      -7.6      1.208      2.409
REMARK  Name = 
REMARK  2 active torsions:
REMARK  status: ('A' for Active; 'I' for Inactive)
REMARK    1  A    between atoms: N_7  and  C_8
REMARK    2  A    between atoms: C_11  and  C_12
REMARK                            x       y       z     vdW  Elec       q    Type
REMARK                         _______ _______ _______ _____ _____    ______ ____
ROOT
ATOM      1  C   UNL     1       2.933   6.838  18.390  0.00  0.00    +0.000 A 
ATOM      2  C   UNL     1       2.566   7.980  17.662  0.00  0.00    +0.000 A 
ATOM      3  C   UNL     1       1.776   8.995  18.230  0.00  0.00    +0.000 A 
ATOM      4  C   UNL     1       1.340   8.907  19.555  0.00  0.00    +0.000 A 
ATOM      5  C   UNL     1       1.721   7.777  20.290  0.00  0.00    +0.000 A 
ATOM      6  C   UNL     1       2.498   6.763  19.720  0.00  0.00    +0.000 A 
ENDROOT
BRANCH   4   7
ATOM      7  C   UNL     1       0.454   9.895  20.192  0.00  0.00    +0.000 A 
ATOM      8  N   UNL     1       0.172   9.877  21.479  0.00  0.00    +0.000 NA
ATOM      9  C   UNL     1      -0.725  10.877  21.793  0.00  0.00    +0.000 A 
ATOM     10  C   UNL     1      -1.280  11.111  23.067  0.00  0.00    +0.000 A 
ATOM     11  C   UNL     1      -2.200  12.147  23.243  0.00  0.00    +0.000 A 
ATOM     12  C   UNL     1      -2.557  12.961  22.173  0.00  0.00    +0.000 A 
ATOM     13  C   UNL     1      -2.007  12.758  20.902  0.00  0.00    +0.000 A 
ATOM     14  C   UNL     1      -1.097  11.701  20.732  0.00  0.00    +0.000 A 
ATOM     15  S   UNL     1      -0.277  11.179  19.311  0.00  0.00    +0.000 S 
ENDBRANCH   4   7
BRANCH   1  22
ATOM     16  O   UNL     1       5.791   6.868  17.583  0.00  0.00    +0.000 OA
ATOM     17  C   UNL     1       5.040   5.909  17.461  0.00  0.00    +0.000 C 
ATOM     18  C   UNL     1       5.532   4.594  16.936  0.00  0.00    +0.000 C 
ATOM     19  C   UNL     1       4.312   3.712  16.897  0.00  0.00    +0.000 C 
ATOM     20  C   UNL     1       3.223   4.538  17.509  0.00  0.00    +0.000 C 
ATOM     21  O   UNL     1       2.087   4.098  17.630  0.00  0.00    +0.000 OA
ATOM     22  N   UNL     1       3.711   5.792  17.807  0.00  0.00    +0.000 N 
ENDBRANCH   1  22
TORSDOF 2
ENDMDL
MODEL 8
REMARK VINA RESULT:      -7.5      1.887      2.822
REMARK  Name = 
REMARK  2 active torsions:
REMARK  status: ('A' for Active; 'I' for Inactive)
REMARK    1  A    between atoms: N_7  and  C_8
REMARK    2  A    between atoms: C_11  and  C_12
REMARK                            x       y       z     vdW  Elec       q    Type
REMARK                         _______ _______ _______ _____ _____    ______ ____
ROOT
ATOM      1  C   UNL     1       2.473   6.428  18.990  0.00  0.00    +0.000 A 
ATOM      2  C   UNL     1       2.393   7.578  18.191  0.00  0.00    +0.000 A 
ATOM      3  C   UNL     1       1.826   8.772  18.670  0.00  0.00    +0.000 A 
ATOM      4  C   UNL     1       1.331   8.857  19.975  0.00  0.00    +0.000 A 
ATOM      5  C   UNL     1       1.427   7.716  20.781  0.00  0.00    +0.000 A 
ATOM      6  C   UNL     1       1.983   6.526  20.299  0.00  0.00    +0.000 A 
ENDROOT
BRANCH   4   7
ATOM      7  C   UNL     1       0.662  10.049  20.520  0.00  0.00    +0.000 A 
ATOM      8  N   UNL     1       0.023  10.046  21.672  0.00  0.00    +0.000 NA
ATOM      9  C   UNL     1      -0.559  11.275  21.907  0.00  0.00    +0.000 A 
ATOM     10  C   UNL     1      -1.359  11.605  23.020  0.00  0.00    +0.000 A 
ATOM     11  C   UNL     1      -1.908  12.884  23.124  0.00  0.00    +0.000 A 
ATOM     12  C   UNL     1      -1.656  13.841  22.146  0.00  0.00    +0.000 A 
ATOM     13  C   UNL     1      -0.851  13.542  21.040  0.00  0.00    +0.000 A 
ATOM     14  C   UNL     1      -0.319  12.245  20.937  0.00  0.00    +0.000 A 
ATOM     15  S   UNL     1       0.672  11.564  19.704  0.00  0.00    +0.000 S 
ENDBRANCH   4   7
BRANCH   1  22
ATOM     16  O   UNL     1       5.233   5.372  19.288  0.00  0.00    +0.000 OA
ATOM     17  C   UNL     1       4.329   4.806  18.686  0.00  0.00    +0.000 C 
ATOM     18  C   UNL     1       4.524   3.450  18.080  0.00  0.00    +0.000 C 
ATOM     19  C   UNL     1       3.216   3.136  17.404  0.00  0.00    +0.000 C 
ATOM     20  C   UNL     1       2.317   4.279  17.761  0.00  0.00    +0.000 C 
ATOM     21  O   UNL     1       1.160   4.323  17.362  0.00  0.00    +0.000 OA
ATOM     22  N   UNL     1       3.024   5.205  18.497  0.00  0.00    +0.000 N 
ENDBRANCH   1  22
TORSDOF 2
ENDMDL
MODEL 9
REMARK VINA RESULT:      -7.5      0.890      1.697
REMARK  Name = 
REMARK  2 active torsions:
REMARK  status: ('A' for Active; 'I' for Inactive)
REMARK    1  A    between atoms: N_7  and  C_8
REMARK    2  A    between atoms: C_11  and  C_12
REMARK                            x       y       z     vdW  Elec       q    Type
REMARK                         _______ _______ _______ _____ _____    ______ ____
ROOT
ATOM      1  C   UNL     1       3.748   6.445  17.779  0.00  0.00    +0.000 A 
ATOM      2  C   UNL     1       3.288   7.669  17.271  0.00  0.00    +0.000 A 
ATOM      3  C   UNL     1       2.447   8.510  18.020  0.00  0.00    +0.000 A 
ATOM      4  C   UNL     1       2.049   8.158  19.313  0.00  0.00    +0.000 A 
ATOM      5  C   UNL     1       2.522   6.945  19.830  0.00  0.00    +0.000 A 
ATOM      6  C   UNL     1       3.351   6.105  19.079  0.00  0.00    +0.000 A 
ENDROOT
BRANCH   4   7
ATOM      7  C   UNL     1       1.115   8.953  20.127  0.00  0.00    +0.000 A 
ATOM      8  N   UNL     1       0.350   9.898  19.619  0.00  0.00    +0.000 NA
ATOM      9  C   UNL     1      -0.377  10.519  20.612  0.00  0.00    +0.000 A 
ATOM     10  C   UNL     1      -1.255  11.607  20.429  0.00  0.00    +0.000 A 
ATOM     11  C   UNL     1      -1.915  12.159  21.529  0.00  0.00    +0.000 A 
ATOM     12  C   UNL     1      -1.725  11.631  22.801  0.00  0.00    +0.000 A 
ATOM     13  C   UNL     1      -0.870  10.542  23.007  0.00  0.00    +0.000 A 
ATOM     14  C   UNL     1      -0.198  10.006  21.895  0.00  0.00    +0.000 A 
ATOM     15  S   UNL     1       0.924   8.703  21.819  0.00  0.00    +0.000 S 
ENDBRANCH   4   7
BRANCH   1  22
ATOM     16  O   UNL     1       3.258   3.631  16.968  0.00  0.00    +0.000 OA
ATOM     17  C   UNL     1       4.262   4.274  16.690  0.00  0.00    +0.000 C 
ATOM     18  C   UNL     1       5.344   3.697  15.829  0.00  0.00    +0.000 C 
ATOM     19  C   UNL     1       6.403   4.766  15.769  0.00  0.00    +0.000 C 
ATOM     20  C   UNL     1       5.812   5.930  16.504  0.00  0.00    +0.000 C 
ATOM     21  O   UNL     1       6.432   6.978  16.632  0.00  0.00    +0.000 OA
ATOM     22  N   UNL     1       4.581   5.575  17.010  0.00  0.00    +0.000 N 
ENDBRANCH   1  22
TORSDOF 2
ENDMDL
