MODEL 1
REMARK VINA RESULT:      -7.4      0.000      0.000
REMARK  Name = 
REMARK  4 active torsions:
REMARK  status: ('A' for Active; 'I' for Inactive)
REMARK    1  A    between atoms: C_1  and  O_2
REMARK    2  A    between atoms: O_2  and  C_3
REMARK    3  A    between atoms: C_6  and  C_7
REMARK    4  A    between atoms: C_19  and  N_20
REMARK                            x       y       z     vdW  Elec       q    Type
REMARK                         _______ _______ _______ _____ _____    ______ ____
ROOT
ATOM      1  C   UNL     1       6.582   6.377  17.296  0.00  0.00    +0.000 C 
ATOM      2  N   UNL     1       7.700   6.027  18.145  0.00  0.00    +0.000 N 
ATOM      3  C   UNL     1       7.601   5.301  19.289  0.00  0.00    +0.000 C 
ATOM      4  O   UNL     1       8.618   5.018  19.905  0.00  0.00    +0.000 OA
ATOM      5  N   UNL     1       6.354   4.928  19.711  0.00  0.00    +0.000 NA
ATOM      6  C   UNL     1       5.286   5.485  19.223  0.00  0.00    +0.000 C 
ATOM      7  C   UNL     1       5.339   6.556  18.156  0.00  0.00    +0.000 C 
ATOM      8  C   UNL     1       4.038   6.738  17.393  0.00  0.00    +0.000 C 
ATOM      9  O   UNL     1       4.037   7.124  16.228  0.00  0.00    +0.000 OA
ATOM     10  N   UNL     1       2.848   6.577  18.076  0.00  0.00    +0.000 NA
ATOM     11  C   UNL     1       2.901   5.836  19.125  0.00  0.00    +0.000 C 
ATOM     12  S   UNL     1       1.416   5.376  19.969  0.00  0.00    +0.000 S 
ATOM     13  C   UNL     1       2.311   4.127  20.787  0.00  0.00    +0.000 C 
ATOM     14  C   UNL     1       3.639   4.239  20.607  0.00  0.00    +0.000 C 
ATOM     15  N   UNL     1       4.006   5.228  19.690  0.00  0.00    +0.000 N 
ATOM     16  H   UNL     1       8.648   6.183  17.826  0.00  0.00    +0.000 HD
ENDROOT
BRANCH   1  20
ATOM     17  C   UNL     1       6.288   3.833  13.768  0.00  0.00    +0.000 A 
ATOM     18  C   UNL     1       7.050   5.004  13.723  0.00  0.00    +0.000 A 
ATOM     19  C   UNL     1       7.196   5.824  14.853  0.00  0.00    +0.000 A 
ATOM     20  C   UNL     1       6.550   5.495  16.056  0.00  0.00    +0.000 A 
ATOM     21  C   UNL     1       5.777   4.312  16.080  0.00  0.00    +0.000 A 
ATOM     22  C   UNL     1       5.646   3.485  14.955  0.00  0.00    +0.000 A 
BRANCH  17  24
ATOM     23  C   UNL     1       4.959   3.202  11.903  0.00  0.00    +0.000 C 
ATOM     24  O   UNL     1       6.205   3.136  12.591  0.00  0.00    +0.000 OA
ENDBRANCH  17  24
ENDBRANCH   1  20
BRANCH  13  25
ATOM     25  N   UNL     1       1.801   2.788  20.972  0.00  0.00    +0.000 N 
ATOM     26  O   UNL     1       1.532   2.435  22.124  0.00  0.00    +0.000 OA
ATOM     27  O   UNL     1       1.606   2.121  19.946  0.00  0.00    +0.000 OA
ENDBRANCH  13  25
TORSDOF 3
ENDMDL
MODEL 2
REMARK VINA RESULT:      -7.2      0.645      1.280
REMARK  Name = 
REMARK  4 active torsions:
REMARK  status: ('A' for Active; 'I' for Inactive)
REMARK    1  A    between atoms: C_1  and  O_2
REMARK    2  A    between atoms: O_2  and  C_3
REMARK    3  A    between atoms: C_6  and  C_7
REMARK    4  A    between atoms: C_19  and  N_20
REMARK                            x       y       z     vdW  Elec       q    Type
REMARK                         _______ _______ _______ _____ _____    ______ ____
ROOT
ATOM      1  C   UNL     1       6.678   6.135  16.682  0.00  0.00    +0.000 C 
ATOM      2  N   UNL     1       7.828   5.595  17.374  0.00  0.00    +0.000 N 
ATOM      3  C   UNL     1       7.766   4.827  18.493  0.00  0.00    +0.000 C 
ATOM      4  O   UNL     1       8.800   4.380  18.967  0.00  0.00    +0.000 OA
ATOM      5  N   UNL     1       6.538   4.598  19.051  0.00  0.00    +0.000 NA
ATOM      6  C   UNL     1       5.507   5.316  18.720  0.00  0.00    +0.000 C 
ATOM      7  C   UNL     1       5.580   6.428  17.696  0.00  0.00    +0.000 C 
ATOM      8  C   UNL     1       4.235   6.820  17.106  0.00  0.00    +0.000 C 
ATOM      9  O   UNL     1       4.151   7.266  15.966  0.00  0.00    +0.000 OA
ATOM     10  N   UNL     1       3.123   6.780  17.924  0.00  0.00    +0.000 NA
ATOM     11  C   UNL     1       3.196   5.983  18.929  0.00  0.00    +0.000 C 
ATOM     12  S   UNL     1       1.772   5.676  19.932  0.00  0.00    +0.000 S 
ATOM     13  C   UNL     1       2.577   4.278  20.585  0.00  0.00    +0.000 C 
ATOM     14  C   UNL     1       3.878   4.225  20.248  0.00  0.00    +0.000 C 
ATOM     15  N   UNL     1       4.267   5.205  19.331  0.00  0.00    +0.000 N 
ATOM     16  H   UNL     1       8.745   5.643  16.946  0.00  0.00    +0.000 HD
ENDROOT
BRANCH   1  20
ATOM     17  C   UNL     1       6.022   3.785  13.069  0.00  0.00    +0.000 A 
ATOM     18  C   UNL     1       5.154   3.652  14.156  0.00  0.00    +0.000 A 
ATOM     19  C   UNL     1       5.315   4.423  15.318  0.00  0.00    +0.000 A 
ATOM     20  C   UNL     1       6.380   5.332  15.424  0.00  0.00    +0.000 A 
ATOM     21  C   UNL     1       7.253   5.446  14.319  0.00  0.00    +0.000 A 
ATOM     22  C   UNL     1       7.080   4.689  13.152  0.00  0.00    +0.000 A 
BRANCH  17  24
ATOM     23  C   UNL     1       4.441   2.977  11.491  0.00  0.00    +0.000 C 
ATOM     24  O   UNL     1       5.770   2.957  12.006  0.00  0.00    +0.000 OA
ENDBRANCH  17  24
ENDBRANCH   1  20
BRANCH  13  25
ATOM     25  N   UNL     1       1.913   3.009  20.781  0.00  0.00    +0.000 N 
ATOM     26  O   UNL     1       1.735   2.301  19.784  0.00  0.00    +0.000 OA
ATOM     27  O   UNL     1       1.638   2.700  21.948  0.00  0.00    +0.000 OA
ENDBRANCH  13  25
TORSDOF 3
ENDMDL
MODEL 3
REMARK VINA RESULT:      -7.0      7.977     10.113
REMARK  Name = 
REMARK  4 active torsions:
REMARK  status: ('A' for Active; 'I' for Inactive)
REMARK    1  A    between atoms: C_1  and  O_2
REMARK    2  A    between atoms: O_2  and  C_3
REMARK    3  A    between atoms: C_6  and  C_7
REMARK    4  A    between atoms: C_19  and  N_20
REMARK                            x       y       z     vdW  Elec       q    Type
REMARK                         _______ _______ _______ _____ _____    ______ ____
ROOT
ATOM      1  C   UNL     1      -0.264  11.717  18.501  0.00  0.00    +0.000 C 
ATOM      2  N   UNL     1       0.142  12.859  19.290  0.00  0.00    +0.000 N 
ATOM      3  C   UNL     1      -0.677  13.549  20.126  0.00  0.00    +0.000 C 
ATOM      4  O   UNL     1      -0.217  14.470  20.785  0.00  0.00    +0.000 OA
ATOM      5  N   UNL     1      -1.995  13.188  20.182  0.00  0.00    +0.000 NA
ATOM      6  C   UNL     1      -2.522  12.427  19.269  0.00  0.00    +0.000 C 
ATOM      7  C   UNL     1      -1.726  11.878  18.106  0.00  0.00    +0.000 C 
ATOM      8  C   UNL     1      -2.358  10.668  17.436  0.00  0.00    +0.000 C 
ATOM      9  O   UNL     1      -1.665   9.816  16.888  0.00  0.00    +0.000 OA
ATOM     10  N   UNL     1      -3.734  10.611  17.349  0.00  0.00    +0.000 NA
ATOM     11  C   UNL     1      -4.379  11.292  18.228  0.00  0.00    +0.000 C 
ATOM     12  S   UNL     1      -6.137  11.139  18.363  0.00  0.00    +0.000 S 
ATOM     13  C   UNL     1      -6.045  11.891  19.931  0.00  0.00    +0.000 C 
ATOM     14  C   UNL     1      -4.833  12.418  20.183  0.00  0.00    +0.000 C 
ATOM     15  N   UNL     1      -3.873  12.120  19.213  0.00  0.00    +0.000 N 
ATOM     16  H   UNL     1       1.122  13.099  19.368  0.00  0.00    +0.000 HD
ENDROOT
BRANCH   1  20
ATOM     17  C   UNL     1       1.352   8.071  20.263  0.00  0.00    +0.000 A 
ATOM     18  C   UNL     1       0.363   8.794  20.937  0.00  0.00    +0.000 A 
ATOM     19  C   UNL     1      -0.205   9.949  20.378  0.00  0.00    +0.000 A 
ATOM     20  C   UNL     1       0.234  10.423  19.130  0.00  0.00    +0.000 A 
ATOM     21  C   UNL     1       1.241   9.686  18.469  0.00  0.00    +0.000 A 
ATOM     22  C   UNL     1       1.794   8.521  19.020  0.00  0.00    +0.000 A 
BRANCH  17  24
ATOM     23  C   UNL     1       2.220   5.865  20.122  0.00  0.00    +0.000 C 
ATOM     24  O   UNL     1       1.841   6.977  20.928  0.00  0.00    +0.000 OA
ENDBRANCH  17  24
ENDBRANCH   1  20
BRANCH  13  25
ATOM     25  N   UNL     1      -6.787  11.413  21.076  0.00  0.00    +0.000 N 
ATOM     26  O   UNL     1      -7.411  10.355  20.947  0.00  0.00    +0.000 OA
ATOM     27  O   UNL     1      -6.678  12.069  22.121  0.00  0.00    +0.000 OA
ENDBRANCH  13  25
TORSDOF 3
ENDMDL
MODEL 4
REMARK VINA RESULT:      -7.0      7.430      9.409
REMARK  Name = 
REMARK  4 active torsions:
REMARK  status: ('A' for Active; 'I' for Inactive)
REMARK    1  A    between atoms: C_1  and  O_2
REMARK    2  A    between atoms: O_2  and  C_3
REMARK    3  A    between atoms: C_6  and  C_7
REMARK    4  A    between atoms: C_19  and  N_20
REMARK                            x       y       z     vdW  Elec       q    Type
REMARK                         _______ _______ _______ _____ _____    ______ ____
ROOT
ATOM      1  C   UNL     1       0.911  11.325  18.918  0.00  0.00    +0.000 C 
ATOM      2  N   UNL     1       1.675  12.256  19.720  0.00  0.00    +0.000 N 
ATOM      3  C   UNL     1       1.149  13.054  20.686  0.00  0.00    +0.000 C 
ATOM      4  O   UNL     1       1.895  13.769  21.340  0.00  0.00    +0.000 OA
ATOM      5  N   UNL     1      -0.205  13.032  20.876  0.00  0.00    +0.000 NA
ATOM      6  C   UNL     1      -0.998  12.510  19.988  0.00  0.00    +0.000 C 
ATOM      7  C   UNL     1      -0.491  11.882  18.708  0.00  0.00    +0.000 C 
ATOM      8  C   UNL     1      -1.477  10.933  18.048  0.00  0.00    +0.000 C 
ATOM      9  O   UNL     1      -1.087   9.985  17.373  0.00  0.00    +0.000 OA
ATOM     10  N   UNL     1      -2.824  11.231  18.120  0.00  0.00    +0.000 NA
ATOM     11  C   UNL     1      -3.180  11.972  19.108  0.00  0.00    +0.000 C 
ATOM     12  S   UNL     1      -4.895  12.254  19.440  0.00  0.00    +0.000 S 
ATOM     13  C   UNL     1      -4.457  12.819  21.027  0.00  0.00    +0.000 C 
ATOM     14  C   UNL     1      -3.132  13.001  21.166  0.00  0.00    +0.000 C 
ATOM     15  N   UNL     1      -2.382  12.558  20.073  0.00  0.00    +0.000 N 
ATOM     16  H   UNL     1       2.687  12.235  19.696  0.00  0.00    +0.000 HD
ENDROOT
BRANCH   1  20
ATOM     17  C   UNL     1       1.695   7.253  20.265  0.00  0.00    +0.000 A 
ATOM     18  C   UNL     1       0.969   8.130  21.076  0.00  0.00    +0.000 A 
ATOM     19  C   UNL     1       0.666   9.434  20.655  0.00  0.00    +0.000 A 
ATOM     20  C   UNL     1       1.116   9.899  19.407  0.00  0.00    +0.000 A 
ATOM     21  C   UNL     1       1.856   9.002  18.605  0.00  0.00    +0.000 A 
ATOM     22  C   UNL     1       2.143   7.693  19.020  0.00  0.00    +0.000 A 
BRANCH  17  24
ATOM     23  C   UNL     1       2.497   5.044  19.923  0.00  0.00    +0.000 C 
ATOM     24  O   UNL     1       1.944   6.018  20.804  0.00  0.00    +0.000 OA
ENDBRANCH  17  24
ENDBRANCH   1  20
BRANCH  13  25
ATOM     25  N   UNL     1      -5.180  12.444  22.222  0.00  0.00    +0.000 N 
ATOM     26  O   UNL     1      -4.552  12.428  23.285  0.00  0.00    +0.000 OA
ATOM     27  O   UNL     1      -6.395  12.237  22.093  0.00  0.00    +0.000 OA
ENDBRANCH  13  25
TORSDOF 3
ENDMDL
MODEL 5
REMARK VINA RESULT:      -6.8      8.355     10.236
REMARK  Name = 
REMARK  4 active torsions:
REMARK  status: ('A' for Active; 'I' for Inactive)
REMARK    1  A    between atoms: C_1  and  O_2
REMARK    2  A    between atoms: O_2  and  C_3
REMARK    3  A    between atoms: C_6  and  C_7
REMARK    4  A    between atoms: C_19  and  N_20
REMARK                            x       y       z     vdW  Elec       q    Type
REMARK                         _______ _______ _______ _____ _____    ______ ____
ROOT
ATOM      1  C   UNL     1       0.219  12.520  19.671  0.00  0.00    +0.000 C 
ATOM      2  N   UNL     1       1.081  13.358  20.477  0.00  0.00    +0.000 N 
ATOM      3  C   UNL     1       0.724  13.919  21.661  0.00  0.00    +0.000 C 
ATOM      4  O   UNL     1       1.549  14.569  22.285  0.00  0.00    +0.000 OA
ATOM      5  N   UNL     1      -0.560  13.740  22.099  0.00  0.00    +0.000 NA
ATOM      6  C   UNL     1      -1.489  13.316  21.296  0.00  0.00    +0.000 C 
ATOM      7  C   UNL     1      -1.223  12.976  19.846  0.00  0.00    +0.000 C 
ATOM      8  C   UNL     1      -2.273  12.076  19.215  0.00  0.00    +0.000 C 
ATOM      9  O   UNL     1      -1.980  11.303  18.308  0.00  0.00    +0.000 OA
ATOM     10  N   UNL     1      -3.589  12.233  19.601  0.00  0.00    +0.000 NA
ATOM     11  C   UNL     1      -3.774  12.750  20.763  0.00  0.00    +0.000 C 
ATOM     12  S   UNL     1      -5.396  12.812  21.466  0.00  0.00    +0.000 S 
ATOM     13  C   UNL     1      -4.673  13.121  23.019  0.00  0.00    +0.000 C 
ATOM     14  C   UNL     1      -3.358  13.394  22.933  0.00  0.00    +0.000 C 
ATOM     15  N   UNL     1      -2.826  13.223  21.652  0.00  0.00    +0.000 N 
ATOM     16  H   UNL     1       2.067  13.432  20.255  0.00  0.00    +0.000 HD
ENDROOT
BRANCH   1  20
ATOM     17  C   UNL     1       1.477   8.361  20.030  0.00  0.00    +0.000 A 
ATOM     18  C   UNL     1       0.879   9.006  21.116  0.00  0.00    +0.000 A 
ATOM     19  C   UNL     1       0.428  10.332  21.020  0.00  0.00    +0.000 A 
ATOM     20  C   UNL     1       0.595  11.053  19.826  0.00  0.00    +0.000 A 
ATOM     21  C   UNL     1       1.210  10.388  18.742  0.00  0.00    +0.000 A 
ATOM     22  C   UNL     1       1.644   9.058  18.834  0.00  0.00    +0.000 A 
BRANCH  17  24
ATOM     23  C   UNL     1       2.699   6.480  19.248  0.00  0.00    +0.000 C 
ATOM     24  O   UNL     1       1.895   7.077  20.262  0.00  0.00    +0.000 OA
ENDBRANCH  17  24
ENDBRANCH   1  20
BRANCH  13  25
ATOM     25  N   UNL     1      -5.114  12.474  24.234  0.00  0.00    +0.000 N 
ATOM     26  O   UNL     1      -6.286  12.086  24.278  0.00  0.00    +0.000 OA
ATOM     27  O   UNL     1      -4.258  12.297  25.111  0.00  0.00    +0.000 OA
ENDBRANCH  13  25
TORSDOF 3
ENDMDL
MODEL 6
REMARK VINA RESULT:      -6.7      7.051      9.896
REMARK  Name = 
REMARK  4 active torsions:
REMARK  status: ('A' for Active; 'I' for Inactive)
REMARK    1  A    between atoms: C_1  and  O_2
REMARK    2  A    between atoms: O_2  and  C_3
REMARK    3  A    between atoms: C_6  and  C_7
REMARK    4  A    between atoms: C_19  and  N_20
REMARK                            x       y       z     vdW  Elec       q    Type
REMARK                         _______ _______ _______ _____ _____    ______ ____
ROOT
ATOM      1  C   UNL     1      -0.639  10.385  19.714  0.00  0.00    +0.000 C 
ATOM      2  N   UNL     1      -1.645  10.433  18.675  0.00  0.00    +0.000 N 
ATOM      3  C   UNL     1      -1.833  11.481  17.832  0.00  0.00    +0.000 C 
ATOM      4  O   UNL     1      -2.681  11.396  16.955  0.00  0.00    +0.000 OA
ATOM      5  N   UNL     1      -1.069  12.601  18.012  0.00  0.00    +0.000 NA
ATOM      6  C   UNL     1      -0.404  12.789  19.113  0.00  0.00    +0.000 C 
ATOM      7  C   UNL     1      -0.410  11.792  20.251  0.00  0.00    +0.000 C 
ATOM      8  C   UNL     1       0.756  11.941  21.215  0.00  0.00    +0.000 C 
ATOM      9  O   UNL     1       1.199  10.973  21.825  0.00  0.00    +0.000 OA
ATOM     10  N   UNL     1       1.227  13.210  21.483  0.00  0.00    +0.000 NA
ATOM     11  C   UNL     1       1.002  14.094  20.578  0.00  0.00    +0.000 C 
ATOM     12  S   UNL     1       1.732  15.701  20.696  0.00  0.00    +0.000 S 
ATOM     13  C   UNL     1       1.360  15.954  19.015  0.00  0.00    +0.000 C 
ATOM     14  C   UNL     1       0.545  15.007  18.515  0.00  0.00    +0.000 C 
ATOM     15  N   UNL     1       0.297  13.952  19.396  0.00  0.00    +0.000 N 
ATOM     16  H   UNL     1      -2.161   9.597  18.430  0.00  0.00    +0.000 HD
ENDROOT
BRANCH   1  20
ATOM     17  C   UNL     1       2.619   7.729  18.556  0.00  0.00    +0.000 A 
ATOM     18  C   UNL     1       2.186   8.728  17.679  0.00  0.00    +0.000 A 
ATOM     19  C   UNL     1       1.167   9.623  18.038  0.00  0.00    +0.000 A 
ATOM     20  C   UNL     1       0.535   9.515  19.288  0.00  0.00    +0.000 A 
ATOM     21  C   UNL     1       0.979   8.494  20.157  0.00  0.00    +0.000 A 
ATOM     22  C   UNL     1       2.010   7.612  19.805  0.00  0.00    +0.000 A 
BRANCH  17  24
ATOM     23  C   UNL     1       3.247   5.539  17.885  0.00  0.00    +0.000 C 
ATOM     24  O   UNL     1       3.603   6.906  18.075  0.00  0.00    +0.000 OA
ENDBRANCH  17  24
ENDBRANCH   1  20
BRANCH  13  25
ATOM     25  N   UNL     1       2.292  16.552  18.085  0.00  0.00    +0.000 N 
ATOM     26  O   UNL     1       2.196  17.767  17.885  0.00  0.00    +0.000 OA
ATOM     27  O   UNL     1       3.162  15.806  17.614  0.00  0.00    +0.000 OA
ENDBRANCH  13  25
TORSDOF 3
ENDMDL
MODEL 7
REMARK VINA RESULT:      -6.7      5.642      8.358
REMARK  Name = 
REMARK  4 active torsions:
REMARK  status: ('A' for Active; 'I' for Inactive)
REMARK    1  A    between atoms: C_1  and  O_2
REMARK    2  A    between atoms: O_2  and  C_3
REMARK    3  A    between atoms: C_6  and  C_7
REMARK    4  A    between atoms: C_19  and  N_20
REMARK                            x       y       z     vdW  Elec       q    Type
REMARK                         _______ _______ _______ _____ _____    ______ ____
ROOT
ATOM      1  C   UNL     1       0.388  11.039  19.663  0.00  0.00    +0.000 C 
ATOM      2  N   UNL     1       1.266  11.729  18.743  0.00  0.00    +0.000 N 
ATOM      3  C   UNL     1       2.174  11.119  17.937  0.00  0.00    +0.000 C 
ATOM      4  O   UNL     1       2.830  11.795  17.160  0.00  0.00    +0.000 OA
ATOM      5  N   UNL     1       2.322   9.763  18.044  0.00  0.00    +0.000 NA
ATOM      6  C   UNL     1       1.849   9.115  19.066  0.00  0.00    +0.000 C 
ATOM      7  C   UNL     1       1.094   9.795  20.187  0.00  0.00    +0.000 C 
ATOM      8  C   UNL     1       0.232   8.857  21.016  0.00  0.00    +0.000 C 
ATOM      9  O   UNL     1      -0.791   9.256  21.562  0.00  0.00    +0.000 OA
ATOM     10  N   UNL     1       0.691   7.575  21.244  0.00  0.00    +0.000 NA
ATOM     11  C   UNL     1       1.524   7.116  20.379  0.00  0.00    +0.000 C 
ATOM     12  S   UNL     1       2.025   5.420  20.433  0.00  0.00    +0.000 S 
ATOM     13  C   UNL     1       2.623   5.583  18.807  0.00  0.00    +0.000 C 
ATOM     14  C   UNL     1       2.654   6.862  18.391  0.00  0.00    +0.000 C 
ATOM     15  N   UNL     1       2.064   7.762  19.282  0.00  0.00    +0.000 N 
ATOM     16  H   UNL     1       1.124  12.713  18.547  0.00  0.00    +0.000 HD
ENDROOT
BRANCH   1  20
ATOM     17  C   UNL     1      -3.653  10.996  18.027  0.00  0.00    +0.000 A 
ATOM     18  C   UNL     1      -2.698  10.091  17.554  0.00  0.00    +0.000 A 
ATOM     19  C   UNL     1      -1.401  10.054  18.088  0.00  0.00    +0.000 A 
ATOM     20  C   UNL     1      -1.023  10.953  19.099  0.00  0.00    +0.000 A 
ATOM     21  C   UNL     1      -1.998  11.866  19.557  0.00  0.00    +0.000 A 
ATOM     22  C   UNL     1      -3.300  11.891  19.036  0.00  0.00    +0.000 A 
BRANCH  17  24
ATOM     23  C   UNL     1      -5.732  12.066  17.608  0.00  0.00    +0.000 C 
ATOM     24  O   UNL     1      -4.874  10.946  17.406  0.00  0.00    +0.000 OA
ENDBRANCH  17  24
ENDBRANCH   1  20
BRANCH  13  25
ATOM     25  N   UNL     1       2.404   4.583  17.786  0.00  0.00    +0.000 N 
ATOM     26  O   UNL     1       3.386   3.943  17.397  0.00  0.00    +0.000 OA
ATOM     27  O   UNL     1       1.231   4.398  17.432  0.00  0.00    +0.000 OA
ENDBRANCH  13  25
TORSDOF 3
ENDMDL
MODEL 8
REMARK VINA RESULT:      -6.6      7.687      9.758
REMARK  Name = 
REMARK  4 active torsions:
REMARK  status: ('A' for Active; 'I' for Inactive)
REMARK    1  A    between atoms: C_1  and  O_2
REMARK    2  A    between atoms: O_2  and  C_3
REMARK    3  A    between atoms: C_6  and  C_7
REMARK    4  A    between atoms: C_19  and  N_20
REMARK                            x       y       z     vdW  Elec       q    Type
REMARK                         _______ _______ _______ _____ _____    ______ ____
ROOT
ATOM      1  C   UNL     1       0.457  11.574  18.685  0.00  0.00    +0.000 C 
ATOM      2  N   UNL     1       1.070  12.660  19.419  0.00  0.00    +0.000 N 
ATOM      3  C   UNL     1       0.415  13.463  20.297  0.00  0.00    +0.000 C 
ATOM      4  O   UNL     1       1.041  14.320  20.902  0.00  0.00    +0.000 OA
ATOM      5  N   UNL     1      -0.932  13.283  20.456  0.00  0.00    +0.000 NA
ATOM      6  C   UNL     1      -1.622  12.590  19.600  0.00  0.00    +0.000 C 
ATOM      7  C   UNL     1      -0.995  11.926  18.393  0.00  0.00    +0.000 C 
ATOM      8  C   UNL     1      -1.831  10.806  17.796  0.00  0.00    +0.000 C 
ATOM      9  O   UNL     1      -1.302   9.862  17.218  0.00  0.00    +0.000 OA
ATOM     10  N   UNL     1      -3.206  10.933  17.810  0.00  0.00    +0.000 NA
ATOM     11  C   UNL     1      -3.687  11.704  18.720  0.00  0.00    +0.000 C 
ATOM     12  S   UNL     1      -5.434  11.791  18.986  0.00  0.00    +0.000 S 
ATOM     13  C   UNL     1      -5.126  12.540  20.526  0.00  0.00    +0.000 C 
ATOM     14  C   UNL     1      -3.839  12.901  20.679  0.00  0.00    +0.000 C 
ATOM     15  N   UNL     1      -3.002  12.467  19.648  0.00  0.00    +0.000 N 
ATOM     16  H   UNL     1       2.076  12.767  19.420  0.00  0.00    +0.000 HD
ENDROOT
BRANCH   1  20
ATOM     17  C   UNL     1       1.311   7.707  20.508  0.00  0.00    +0.000 A 
ATOM     18  C   UNL     1       1.821   8.010  19.242  0.00  0.00    +0.000 A 
ATOM     19  C   UNL     1       1.596   9.261  18.645  0.00  0.00    +0.000 A 
ATOM     20  C   UNL     1       0.824  10.232  19.303  0.00  0.00    +0.000 A 
ATOM     21  C   UNL     1       0.309   9.904  20.577  0.00  0.00    +0.000 A 
ATOM     22  C   UNL     1       0.549   8.661  21.180  0.00  0.00    +0.000 A 
BRANCH  17  24
ATOM     23  C   UNL     1       2.353   5.611  20.106  0.00  0.00    +0.000 C 
ATOM     24  O   UNL     1       1.581   6.444  20.966  0.00  0.00    +0.000 OA
ENDBRANCH  17  24
ENDBRANCH   1  20
BRANCH  13  25
ATOM     25  N   UNL     1      -5.837  12.178  21.732  0.00  0.00    +0.000 N 
ATOM     26  O   UNL     1      -6.835  11.460  21.610  0.00  0.00    +0.000 OA
ATOM     27  O   UNL     1      -5.345  12.560  22.802  0.00  0.00    +0.000 OA
ENDBRANCH  13  25
TORSDOF 3
ENDMDL
MODEL 9
REMARK VINA RESULT:      -6.6      7.444      9.306
REMARK  Name = 
REMARK  4 active torsions:
REMARK  status: ('A' for Active; 'I' for Inactive)
REMARK    1  A    between atoms: C_1  and  O_2
REMARK    2  A    between atoms: O_2  and  C_3
REMARK    3  A    between atoms: C_6  and  C_7
REMARK    4  A    between atoms: C_19  and  N_20
REMARK                            x       y       z     vdW  Elec       q    Type
REMARK                         _______ _______ _______ _____ _____    ______ ____
ROOT
ATOM      1  C   UNL     1       0.970  11.724  18.616  0.00  0.00    +0.000 C 
ATOM      2  N   UNL     1       1.840  12.672  19.278  0.00  0.00    +0.000 N 
ATOM      3  C   UNL     1       1.484  13.427  20.349  0.00  0.00    +0.000 C 
ATOM      4  O   UNL     1       2.316  14.161  20.863  0.00  0.00    +0.000 OA
ATOM      5  N   UNL     1       0.196  13.342  20.801  0.00  0.00    +0.000 NA
ATOM      6  C   UNL     1      -0.736  12.803  20.072  0.00  0.00    +0.000 C 
ATOM      7  C   UNL     1      -0.467  12.222  18.701  0.00  0.00    +0.000 C 
ATOM      8  C   UNL     1      -1.526  11.243  18.221  0.00  0.00    +0.000 C 
ATOM      9  O   UNL     1      -1.240  10.327  17.457  0.00  0.00    +0.000 OA
ATOM     10  N   UNL     1      -2.842  11.481  18.565  0.00  0.00    +0.000 NA
ATOM     11  C   UNL     1      -3.025  12.186  19.623  0.00  0.00    +0.000 C 
ATOM     12  S   UNL     1      -4.651  12.386  20.293  0.00  0.00    +0.000 S 
ATOM     13  C   UNL     1      -3.931  12.940  21.778  0.00  0.00    +0.000 C 
ATOM     14  C   UNL     1      -2.612  13.177  21.659  0.00  0.00    +0.000 C 
ATOM     15  N   UNL     1      -2.076  12.788  20.428  0.00  0.00    +0.000 N 
ATOM     16  H   UNL     1       2.827  12.695  19.054  0.00  0.00    +0.000 HD
ENDROOT
BRANCH   1  20
ATOM     17  C   UNL     1       1.795   7.620  19.835  0.00  0.00    +0.000 A 
ATOM     18  C   UNL     1       2.163   8.057  18.559  0.00  0.00    +0.000 A 
ATOM     19  C   UNL     1       1.946   9.382  18.151  0.00  0.00    +0.000 A 
ATOM     20  C   UNL     1       1.324  10.299  19.016  0.00  0.00    +0.000 A 
ATOM     21  C   UNL     1       0.951   9.836  20.297  0.00  0.00    +0.000 A 
ATOM     22  C   UNL     1       1.184   8.517  20.710  0.00  0.00    +0.000 A 
BRANCH  17  24
ATOM     23  C   UNL     1       3.239   5.755  19.557  0.00  0.00    +0.000 C 
ATOM     24  O   UNL     1       2.038   6.298  20.100  0.00  0.00    +0.000 OA
ENDBRANCH  17  24
ENDBRANCH   1  20
BRANCH  13  25
ATOM     25  N   UNL     1      -4.389  12.510  23.081  0.00  0.00    +0.000 N 
ATOM     26  O   UNL     1      -5.595  12.616  23.322  0.00  0.00    +0.000 OA
ATOM     27  O   UNL     1      -3.541  12.003  23.828  0.00  0.00    +0.000 OA
ENDBRANCH  13  25
TORSDOF 3
ENDMDL
