MODEL 1
REMARK VINA RESULT:      -6.1      0.000      0.000
REMARK  Name = 
REMARK  11 active torsions:
REMARK  status: ('A' for Active; 'I' for Inactive)
REMARK    1  A    between atoms: C_1  and  C_2
REMARK    2  A    between atoms: C_2  and  O_3
REMARK    3  A    between atoms: O_3  and  C_4
REMARK    4  A    between atoms: C_4  and  C_6
REMARK    5  A    between atoms: C_10  and  O_11
REMARK    6  A    between atoms: O_11  and  C_12
REMARK    7  A    between atoms: N_17  and  C_18
REMARK    8  A    between atoms: C_18  and  C_19
REMARK    9  A    between atoms: C_18  and  C_20
REMARK   10  A    between atoms: C_25  and  O_26
REMARK   11  A    between atoms: O_26  and  C_27
REMARK                            x       y       z     vdW  Elec       q    Type
REMARK                         _______ _______ _______ _____ _____    ______ ____
ROOT
ATOM      1  C   UNL     1       4.329   6.239  17.724  0.00  0.00    +0.000 C 
ATOM      2  C   UNL     1       3.313   7.420  17.574  0.00  0.00    +0.000 C 
ATOM      3  C   UNL     1       2.642   7.454  18.919  0.00  0.00    +0.000 A 
ATOM      4  C   UNL     1       1.911   8.494  19.479  0.00  0.00    +0.000 A 
ATOM      5  C   UNL     1       1.226   8.290  20.684  0.00  0.00    +0.000 A 
ATOM      6  C   UNL     1       1.297   7.041  21.316  0.00  0.00    +0.000 A 
ATOM      7  C   UNL     1       2.102   6.022  20.783  0.00  0.00    +0.000 A 
ATOM      8  C   UNL     1       2.780   6.242  19.586  0.00  0.00    +0.000 A 
ATOM      9  C   UNL     1       3.666   5.302  18.808  0.00  0.00    +0.000 C 
ATOM     10  N   UNL     1       2.965   4.132  18.211  0.00  0.00    +0.000 N 
ATOM     11  C   UNL     1       3.708   3.314  17.367  0.00  0.00    +0.000 C 
ATOM     12  O   UNL     1       3.525   2.113  17.226  0.00  0.00    +0.000 OA
ATOM     13  C   UNL     1       4.611   4.040  16.442  0.00  0.00    +0.000 A 
ATOM     14  C   UNL     1       5.259   3.294  15.445  0.00  0.00    +0.000 A 
ATOM     15  C   UNL     1       5.967   3.929  14.439  0.00  0.00    +0.000 A 
ATOM     16  C   UNL     1       5.956   5.320  14.376  0.00  0.00    +0.000 A 
ATOM     17  C   UNL     1       5.317   6.070  15.363  0.00  0.00    +0.000 A 
ATOM     18  C   UNL     1       4.687   5.443  16.455  0.00  0.00    +0.000 A 
ENDROOT
BRANCH  10  19
ATOM     19  C   UNL     1       1.520   3.821  18.378  0.00  0.00    +0.000 C 
ATOM     20  C   UNL     1       0.733   4.167  17.103  0.00  0.00    +0.000 C 
ATOM     21  C   UNL     1       1.234   2.372  18.785  0.00  0.00    +0.000 C 
ENDBRANCH  10  19
BRANCH   1  22
ATOM     22  C   UNL     1       5.669   6.938  18.115  0.00  0.00    +0.000 C 
ATOM     23  O   UNL     1       6.105   7.902  17.483  0.00  0.00    +0.000 OA
BRANCH  22  24
ATOM     24  O   UNL     1       6.450   6.230  18.977  0.00  0.00    +0.000 OA
BRANCH  24  26
ATOM     25  C   UNL     1       7.894   4.528  17.854  0.00  0.00    +0.000 C 
ATOM     26  C   UNL     1       7.766   5.928  18.446  0.00  0.00    +0.000 C 
ENDBRANCH  24  26
ENDBRANCH  22  24
ENDBRANCH   1  22
BRANCH   5  27
ATOM     27  O   UNL     1       0.523   9.380  21.122  0.00  0.00    +0.000 OA
ATOM     28  C   UNL     1      -0.263   9.234  22.295  0.00  0.00    +0.000 C 
ENDBRANCH   5  27
BRANCH  15  29
ATOM     29  O   UNL     1       6.605   3.088  13.562  0.00  0.00    +0.000 OA
ATOM     30  C   UNL     1       6.239   3.185  12.194  0.00  0.00    +0.000 C 
ENDBRANCH  15  29
TORSDOF 6
ENDMDL
MODEL 2
REMARK VINA RESULT:      -6.0      4.659     10.151
REMARK  Name = 
REMARK  11 active torsions:
REMARK  status: ('A' for Active; 'I' for Inactive)
REMARK    1  A    between atoms: C_1  and  C_2
REMARK    2  A    between atoms: C_2  and  O_3
REMARK    3  A    between atoms: O_3  and  C_4
REMARK    4  A    between atoms: C_4  and  C_6
REMARK    5  A    between atoms: C_10  and  O_11
REMARK    6  A    between atoms: O_11  and  C_12
REMARK    7  A    between atoms: N_17  and  C_18
REMARK    8  A    between atoms: C_18  and  C_19
REMARK    9  A    between atoms: C_18  and  C_20
REMARK   10  A    between atoms: C_25  and  O_26
REMARK   11  A    between atoms: O_26  and  C_27
REMARK                            x       y       z     vdW  Elec       q    Type
REMARK                         _______ _______ _______ _____ _____    ______ ____
ROOT
ATOM      1  C   UNL     1      -0.910  11.468  20.682  0.00  0.00    +0.000 C 
ATOM      2  C   UNL     1      -0.489  10.086  21.281  0.00  0.00    +0.000 C 
ATOM      3  C   UNL     1       0.429   9.532  20.227  0.00  0.00    +0.000 A 
ATOM      4  C   UNL     1       1.359   8.508  20.360  0.00  0.00    +0.000 A 
ATOM      5  C   UNL     1       2.020   8.020  19.227  0.00  0.00    +0.000 A 
ATOM      6  C   UNL     1       1.744   8.578  17.972  0.00  0.00    +0.000 A 
ATOM      7  C   UNL     1       0.862   9.665  17.858  0.00  0.00    +0.000 A 
ATOM      8  C   UNL     1       0.215  10.142  18.996  0.00  0.00    +0.000 A 
ATOM      9  C   UNL     1      -0.790  11.259  19.122  0.00  0.00    +0.000 C 
ATOM     10  N   UNL     1      -2.102  10.997  18.470  0.00  0.00    +0.000 N 
ATOM     11  C   UNL     1      -3.109  11.933  18.677  0.00  0.00    +0.000 C 
ATOM     12  O   UNL     1      -3.993  12.191  17.873  0.00  0.00    +0.000 OA
ATOM     13  C   UNL     1      -3.193  12.452  20.065  0.00  0.00    +0.000 A 
ATOM     14  C   UNL     1      -4.289  13.264  20.391  0.00  0.00    +0.000 A 
ATOM     15  C   UNL     1      -4.528  13.629  21.704  0.00  0.00    +0.000 A 
ATOM     16  C   UNL     1      -3.719  13.110  22.711  0.00  0.00    +0.000 A 
ATOM     17  C   UNL     1      -2.625  12.303  22.397  0.00  0.00    +0.000 A 
ATOM     18  C   UNL     1      -2.301  12.013  21.058  0.00  0.00    +0.000 A 
ENDROOT
BRANCH  10  19
ATOM     19  C   UNL     1      -2.444   9.777  17.690  0.00  0.00    +0.000 C 
ATOM     20  C   UNL     1      -3.809   9.215  18.120  0.00  0.00    +0.000 C 
ATOM     21  C   UNL     1      -2.422   9.978  16.171  0.00  0.00    +0.000 C 
ENDBRANCH  10  19
BRANCH   1  22
ATOM     22  C   UNL     1       0.077  12.484  21.340  0.00  0.00    +0.000 C 
ATOM     23  O   UNL     1       0.208  12.560  22.563  0.00  0.00    +0.000 OA
BRANCH  22  24
ATOM     24  O   UNL     1       0.529  13.461  20.505  0.00  0.00    +0.000 OA
BRANCH  24  26
ATOM     25  C   UNL     1       2.431  13.114  18.924  0.00  0.00    +0.000 C 
ATOM     26  C   UNL     1       1.969  13.454  20.338  0.00  0.00    +0.000 C 
ENDBRANCH  24  26
ENDBRANCH  22  24
ENDBRANCH   1  22
BRANCH   5  27
ATOM     27  O   UNL     1       2.893   6.997  19.483  0.00  0.00    +0.000 OA
ATOM     28  C   UNL     1       3.282   6.169  18.397  0.00  0.00    +0.000 C 
ENDBRANCH   5  27
BRANCH  15  29
ATOM     29  O   UNL     1      -5.595  14.474  21.884  0.00  0.00    +0.000 OA
ATOM     30  C   UNL     1      -6.847  13.877  22.189  0.00  0.00    +0.000 C 
ENDBRANCH  15  29
TORSDOF 6
ENDMDL
MODEL 3
REMARK VINA RESULT:      -6.0      8.376     12.974
REMARK  Name = 
REMARK  11 active torsions:
REMARK  status: ('A' for Active; 'I' for Inactive)
REMARK    1  A    between atoms: C_1  and  C_2
REMARK    2  A    between atoms: C_2  and  O_3
REMARK    3  A    between atoms: O_3  and  C_4
REMARK    4  A    between atoms: C_4  and  C_6
REMARK    5  A    between atoms: C_10  and  O_11
REMARK    6  A    between atoms: O_11  and  C_12
REMARK    7  A    between atoms: N_17  and  C_18
REMARK    8  A    between atoms: C_18  and  C_19
REMARK    9  A    between atoms: C_18  and  C_20
REMARK   10  A    between atoms: C_25  and  O_26
REMARK   11  A    between atoms: O_26  and  C_27
REMARK                            x       y       z     vdW  Elec       q    Type
REMARK                         _______ _______ _______ _____ _____    ______ ____
ROOT
ATOM      1  C   UNL     1      -5.163  12.089  19.157  0.00  0.00    +0.000 C 
ATOM      2  C   UNL     1      -5.119  12.454  17.636  0.00  0.00    +0.000 C 
ATOM      3  C   UNL     1      -4.143  11.454  17.082  0.00  0.00    +0.000 A 
ATOM      4  C   UNL     1      -3.971  11.078  15.756  0.00  0.00    +0.000 A 
ATOM      5  C   UNL     1      -2.904  10.241  15.405  0.00  0.00    +0.000 A 
ATOM      6  C   UNL     1      -2.028   9.784  16.399  0.00  0.00    +0.000 A 
ATOM      7  C   UNL     1      -2.257  10.106  17.747  0.00  0.00    +0.000 A 
ATOM      8  C   UNL     1      -3.325  10.936  18.080  0.00  0.00    +0.000 A 
ATOM      9  C   UNL     1      -3.748  11.445  19.435  0.00  0.00    +0.000 C 
ATOM     10  N   UNL     1      -2.796  12.395  20.072  0.00  0.00    +0.000 N 
ATOM     11  C   UNL     1      -3.204  13.002  21.254  0.00  0.00    +0.000 C 
ATOM     12  O   UNL     1      -2.450  13.345  22.155  0.00  0.00    +0.000 OA
ATOM     13  C   UNL     1      -4.622  13.437  21.266  0.00  0.00    +0.000 A 
ATOM     14  C   UNL     1      -5.056  14.211  22.353  0.00  0.00    +0.000 A 
ATOM     15  C   UNL     1      -6.307  14.803  22.340  0.00  0.00    +0.000 A 
ATOM     16  C   UNL     1      -7.097  14.696  21.199  0.00  0.00    +0.000 A 
ATOM     17  C   UNL     1      -6.675  13.927  20.114  0.00  0.00    +0.000 A 
ATOM     18  C   UNL     1      -5.454  13.226  20.154  0.00  0.00    +0.000 A 
ENDROOT
BRANCH  10  19
ATOM     19  C   UNL     1      -1.484  12.807  19.502  0.00  0.00    +0.000 C 
ATOM     20  C   UNL     1      -1.280  14.325  19.635  0.00  0.00    +0.000 C 
ATOM     21  C   UNL     1      -0.282  12.068  20.098  0.00  0.00    +0.000 C 
ENDBRANCH  10  19
BRANCH   1  22
ATOM     22  C   UNL     1      -6.406  11.153  19.287  0.00  0.00    +0.000 C 
ATOM     23  O   UNL     1      -7.261  11.086  18.403  0.00  0.00    +0.000 OA
BRANCH  22  24
ATOM     24  O   UNL     1      -6.630  10.675  20.543  0.00  0.00    +0.000 OA
BRANCH  24  26
ATOM     25  C   UNL     1      -7.755   8.449  20.673  0.00  0.00    +0.000 C 
ATOM     26  C   UNL     1      -7.890   9.969  20.674  0.00  0.00    +0.000 C 
ENDBRANCH  24  26
ENDBRANCH  22  24
ENDBRANCH   1  22
BRANCH   5  27
ATOM     27  O   UNL     1      -2.826   9.961  14.067  0.00  0.00    +0.000 OA
ATOM     28  C   UNL     1      -4.040   9.861  13.339  0.00  0.00    +0.000 C 
ENDBRANCH   5  27
BRANCH  15  29
ATOM     29  O   UNL     1      -6.636  15.481  23.487  0.00  0.00    +0.000 OA
ATOM     30  C   UNL     1      -7.059  16.829  23.340  0.00  0.00    +0.000 C 
ENDBRANCH  15  29
TORSDOF 6
ENDMDL
MODEL 4
REMARK VINA RESULT:      -6.0      8.338     12.457
REMARK  Name = 
REMARK  11 active torsions:
REMARK  status: ('A' for Active; 'I' for Inactive)
REMARK    1  A    between atoms: C_1  and  C_2
REMARK    2  A    between atoms: C_2  and  O_3
REMARK    3  A    between atoms: O_3  and  C_4
REMARK    4  A    between atoms: C_4  and  C_6
REMARK    5  A    between atoms: C_10  and  O_11
REMARK    6  A    between atoms: O_11  and  C_12
REMARK    7  A    between atoms: N_17  and  C_18
REMARK    8  A    between atoms: C_18  and  C_19
REMARK    9  A    between atoms: C_18  and  C_20
REMARK   10  A    between atoms: C_25  and  O_26
REMARK   11  A    between atoms: O_26  and  C_27
REMARK                            x       y       z     vdW  Elec       q    Type
REMARK                         _______ _______ _______ _____ _____    ______ ____
ROOT
ATOM      1  C   UNL     1      -2.048  13.188  22.197  0.00  0.00    +0.000 C 
ATOM      2  C   UNL     1      -3.352  13.044  21.344  0.00  0.00    +0.000 C 
ATOM      3  C   UNL     1      -2.837  12.500  20.040  0.00  0.00    +0.000 A 
ATOM      4  C   UNL     1      -3.560  11.859  19.041  0.00  0.00    +0.000 A 
ATOM      5  C   UNL     1      -2.939  11.556  17.823  0.00  0.00    +0.000 A 
ATOM      6  C   UNL     1      -1.593  11.892  17.630  0.00  0.00    +0.000 A 
ATOM      7  C   UNL     1      -0.849  12.467  18.674  0.00  0.00    +0.000 A 
ATOM      8  C   UNL     1      -1.481  12.759  19.882  0.00  0.00    +0.000 A 
ATOM      9  C   UNL     1      -0.912  13.401  21.122  0.00  0.00    +0.000 C 
ATOM     10  N   UNL     1      -0.523  14.829  20.965  0.00  0.00    +0.000 N 
ATOM     11  C   UNL     1      -0.126  15.506  22.113  0.00  0.00    +0.000 C 
ATOM     12  O   UNL     1       0.687  16.419  22.135  0.00  0.00    +0.000 OA
ATOM     13  C   UNL     1      -0.941  15.208  23.316  0.00  0.00    +0.000 A 
ATOM     14  C   UNL     1      -0.713  15.982  24.465  0.00  0.00    +0.000 A 
ATOM     15  C   UNL     1      -1.556  15.885  25.557  0.00  0.00    +0.000 A 
ATOM     16  C   UNL     1      -2.686  15.076  25.473  0.00  0.00    +0.000 A 
ATOM     17  C   UNL     1      -2.921  14.302  24.337  0.00  0.00    +0.000 A 
ATOM     18  C   UNL     1      -2.013  14.302  23.260  0.00  0.00    +0.000 A 
ENDROOT
BRANCH  10  19
ATOM     19  C   UNL     1      -0.606  15.607  19.699  0.00  0.00    +0.000 C 
ATOM     20  C   UNL     1      -1.505  16.842  19.872  0.00  0.00    +0.000 C 
ATOM     21  C   UNL     1       0.754  16.030  19.134  0.00  0.00    +0.000 C 
ENDBRANCH  10  19
BRANCH   1  22
ATOM     22  C   UNL     1      -1.995  11.872  23.035  0.00  0.00    +0.000 C 
ATOM     23  O   UNL     1      -2.986  11.440  23.626  0.00  0.00    +0.000 OA
BRANCH  22  24
ATOM     24  O   UNL     1      -0.738  11.427  23.316  0.00  0.00    +0.000 OA
BRANCH  24  26
ATOM     25  C   UNL     1      -0.250   9.678  21.601  0.00  0.00    +0.000 C 
ATOM     26  C   UNL     1      -0.558  10.011  23.057  0.00  0.00    +0.000 C 
ENDBRANCH  24  26
ENDBRANCH  22  24
ENDBRANCH   1  22
BRANCH   5  27
ATOM     27  O   UNL     1      -3.759  10.948  16.910  0.00  0.00    +0.000 OA
ATOM     28  C   UNL     1      -3.305  10.855  15.568  0.00  0.00    +0.000 C 
ENDBRANCH   5  27
BRANCH  15  29
ATOM     29  O   UNL     1      -1.190  16.647  26.639  0.00  0.00    +0.000 OA
ATOM     30  C   UNL     1      -0.470  17.841  26.371  0.00  0.00    +0.000 C 
ENDBRANCH  15  29
TORSDOF 6
ENDMDL
MODEL 5
REMARK VINA RESULT:      -5.9      8.342     12.604
REMARK  Name = 
REMARK  11 active torsions:
REMARK  status: ('A' for Active; 'I' for Inactive)
REMARK    1  A    between atoms: C_1  and  C_2
REMARK    2  A    between atoms: C_2  and  O_3
REMARK    3  A    between atoms: O_3  and  C_4
REMARK    4  A    between atoms: C_4  and  C_6
REMARK    5  A    between atoms: C_10  and  O_11
REMARK    6  A    between atoms: O_11  and  C_12
REMARK    7  A    between atoms: N_17  and  C_18
REMARK    8  A    between atoms: C_18  and  C_19
REMARK    9  A    between atoms: C_18  and  C_20
REMARK   10  A    between atoms: C_25  and  O_26
REMARK   11  A    between atoms: O_26  and  C_27
REMARK                            x       y       z     vdW  Elec       q    Type
REMARK                         _______ _______ _______ _____ _____    ______ ____
ROOT
ATOM      1  C   UNL     1      -2.619  13.276  21.755  0.00  0.00    +0.000 C 
ATOM      2  C   UNL     1      -3.431  13.418  20.425  0.00  0.00    +0.000 C 
ATOM      3  C   UNL     1      -2.934  12.260  19.606  0.00  0.00    +0.000 A 
ATOM      4  C   UNL     1      -3.533  11.686  18.491  0.00  0.00    +0.000 A 
ATOM      5  C   UNL     1      -2.846  10.708  17.761  0.00  0.00    +0.000 A 
ATOM      6  C   UNL     1      -1.566  10.311  18.171  0.00  0.00    +0.000 A 
ATOM      7  C   UNL     1      -1.002  10.839  19.344  0.00  0.00    +0.000 A 
ATOM      8  C   UNL     1      -1.700  11.809  20.061  0.00  0.00    +0.000 A 
ATOM      9  C   UNL     1      -1.293  12.542  21.314  0.00  0.00    +0.000 C 
ATOM     10  N   UNL     1      -0.144  13.473  21.149  0.00  0.00    +0.000 N 
ATOM     11  C   UNL     1       0.180  14.277  22.236  0.00  0.00    +0.000 C 
ATOM     12  O   UNL     1       1.309  14.668  22.499  0.00  0.00    +0.000 OA
ATOM     13  C   UNL     1      -0.988  14.847  22.951  0.00  0.00    +0.000 A 
ATOM     14  C   UNL     1      -0.739  15.804  23.946  0.00  0.00    +0.000 A 
ATOM     15  C   UNL     1      -1.782  16.508  24.522  0.00  0.00    +0.000 A 
ATOM     16  C   UNL     1      -3.075  16.320  24.041  0.00  0.00    +0.000 A 
ATOM     17  C   UNL     1      -3.333  15.370  23.054  0.00  0.00    +0.000 A 
ATOM     18  C   UNL     1      -2.300  14.565  22.536  0.00  0.00    +0.000 A 
ENDROOT
BRANCH  10  19
ATOM     19  C   UNL     1       0.627  13.670  19.892  0.00  0.00    +0.000 C 
ATOM     20  C   UNL     1       0.588  15.143  19.449  0.00  0.00    +0.000 C 
ATOM     21  C   UNL     1       2.080  13.191  19.965  0.00  0.00    +0.000 C 
ENDBRANCH  10  19
BRANCH   1  22
ATOM     22  C   UNL     1      -3.581  12.494  22.705  0.00  0.00    +0.000 C 
ATOM     23  O   UNL     1      -3.155  11.802  23.631  0.00  0.00    +0.000 OA
BRANCH  22  24
ATOM     24  O   UNL     1      -4.861  12.382  22.252  0.00  0.00    +0.000 OA
BRANCH  24  26
ATOM     25  C   UNL     1      -6.767  13.940  22.676  0.00  0.00    +0.000 C 
ATOM     26  C   UNL     1      -5.851  12.841  23.207  0.00  0.00    +0.000 C 
ENDBRANCH  24  26
ENDBRANCH  22  24
ENDBRANCH   1  22
BRANCH   5  27
ATOM     27  O   UNL     1      -3.529  10.236  16.673  0.00  0.00    +0.000 OA
ATOM     28  C   UNL     1      -3.041  10.578  15.384  0.00  0.00    +0.000 C 
ENDBRANCH   5  27
BRANCH  15  29
ATOM     29  O   UNL     1      -1.413  17.370  25.524  0.00  0.00    +0.000 OA
ATOM     30  C   UNL     1      -0.554  16.857  26.532  0.00  0.00    +0.000 C 
ENDBRANCH  15  29
TORSDOF 6
ENDMDL
MODEL 6
REMARK VINA RESULT:      -5.8      5.960      9.702
REMARK  Name = 
REMARK  11 active torsions:
REMARK  status: ('A' for Active; 'I' for Inactive)
REMARK    1  A    between atoms: C_1  and  C_2
REMARK    2  A    between atoms: C_2  and  O_3
REMARK    3  A    between atoms: O_3  and  C_4
REMARK    4  A    between atoms: C_4  and  C_6
REMARK    5  A    between atoms: C_10  and  O_11
REMARK    6  A    between atoms: O_11  and  C_12
REMARK    7  A    between atoms: N_17  and  C_18
REMARK    8  A    between atoms: C_18  and  C_19
REMARK    9  A    between atoms: C_18  and  C_20
REMARK   10  A    between atoms: C_25  and  O_26
REMARK   11  A    between atoms: O_26  and  C_27
REMARK                            x       y       z     vdW  Elec       q    Type
REMARK                         _______ _______ _______ _____ _____    ______ ____
ROOT
ATOM      1  C   UNL     1       0.785  13.221  19.882  0.00  0.00    +0.000 C 
ATOM      2  C   UNL     1       0.057  13.912  18.681  0.00  0.00    +0.000 C 
ATOM      3  C   UNL     1      -0.267  15.274  19.228  0.00  0.00    +0.000 A 
ATOM      4  C   UNL     1      -0.597  16.421  18.516  0.00  0.00    +0.000 A 
ATOM      5  C   UNL     1      -1.020  17.566  19.202  0.00  0.00    +0.000 A 
ATOM      6  C   UNL     1      -1.095  17.545  20.601  0.00  0.00    +0.000 A 
ATOM      7  C   UNL     1      -0.684  16.408  21.316  0.00  0.00    +0.000 A 
ATOM      8  C   UNL     1      -0.262  15.278  20.618  0.00  0.00    +0.000 A 
ATOM      9  C   UNL     1       0.187  13.942  21.154  0.00  0.00    +0.000 C 
ATOM     10  N   UNL     1      -0.877  13.146  21.823  0.00  0.00    +0.000 N 
ATOM     11  C   UNL     1      -0.550  11.850  22.208  0.00  0.00    +0.000 C 
ATOM     12  O   UNL     1      -1.029  11.271  23.172  0.00  0.00    +0.000 OA
ATOM     13  C   UNL     1       0.262  11.100  21.219  0.00  0.00    +0.000 A 
ATOM     14  C   UNL     1       0.481   9.735  21.458  0.00  0.00    +0.000 A 
ATOM     15  C   UNL     1       1.069   8.937  20.492  0.00  0.00    +0.000 A 
ATOM     16  C   UNL     1       1.362   9.484  19.246  0.00  0.00    +0.000 A 
ATOM     17  C   UNL     1       1.150  10.841  18.999  0.00  0.00    +0.000 A 
ATOM     18  C   UNL     1       0.656  11.692  20.007  0.00  0.00    +0.000 A 
ENDROOT
BRANCH  10  19
ATOM     19  C   UNL     1      -2.279  13.596  22.036  0.00  0.00    +0.000 C 
ATOM     20  C   UNL     1      -3.250  12.807  21.141  0.00  0.00    +0.000 C 
ATOM     21  C   UNL     1      -2.746  13.527  23.493  0.00  0.00    +0.000 C 
ENDBRANCH  10  19
BRANCH   1  22
ATOM     22  C   UNL     1       2.302  13.445  19.587  0.00  0.00    +0.000 C 
ATOM     23  O   UNL     1       3.121  13.602  20.494  0.00  0.00    +0.000 OA
BRANCH  22  24
ATOM     24  O   UNL     1       2.589  13.761  18.294  0.00  0.00    +0.000 OA
BRANCH  24  26
ATOM     25  C   UNL     1       3.166  16.138  17.787  0.00  0.00    +0.000 C 
ATOM     26  C   UNL     1       3.650  14.741  18.163  0.00  0.00    +0.000 C 
ENDBRANCH  24  26
ENDBRANCH  22  24
ENDBRANCH   1  22
BRANCH   5  27
ATOM     27  O   UNL     1      -1.339  18.622  18.391  0.00  0.00    +0.000 OA
ATOM     28  C   UNL     1      -0.812  18.627  17.072  0.00  0.00    +0.000 C 
ENDBRANCH   5  27
BRANCH  15  29
ATOM     29  O   UNL     1       1.284   7.636  20.871  0.00  0.00    +0.000 OA
ATOM     30  C   UNL     1       2.149   6.861  20.054  0.00  0.00    +0.000 C 
ENDBRANCH  15  29
TORSDOF 6
ENDMDL
MODEL 7
REMARK VINA RESULT:      -5.8      9.819     13.350
REMARK  Name = 
REMARK  11 active torsions:
REMARK  status: ('A' for Active; 'I' for Inactive)
REMARK    1  A    between atoms: C_1  and  C_2
REMARK    2  A    between atoms: C_2  and  O_3
REMARK    3  A    between atoms: O_3  and  C_4
REMARK    4  A    between atoms: C_4  and  C_6
REMARK    5  A    between atoms: C_10  and  O_11
REMARK    6  A    between atoms: O_11  and  C_12
REMARK    7  A    between atoms: N_17  and  C_18
REMARK    8  A    between atoms: C_18  and  C_19
REMARK    9  A    between atoms: C_18  and  C_20
REMARK   10  A    between atoms: C_25  and  O_26
REMARK   11  A    between atoms: O_26  and  C_27
REMARK                            x       y       z     vdW  Elec       q    Type
REMARK                         _______ _______ _______ _____ _____    ______ ____
ROOT
ATOM      1  C   UNL     1      -3.532  13.538  22.430  0.00  0.00    +0.000 C 
ATOM      2  C   UNL     1      -4.573  14.046  21.378  0.00  0.00    +0.000 C 
ATOM      3  C   UNL     1      -4.374  13.098  20.228  0.00  0.00    +0.000 A 
ATOM      4  C   UNL     1      -5.241  12.849  19.172  0.00  0.00    +0.000 A 
ATOM      5  C   UNL     1      -4.822  12.044  18.106  0.00  0.00    +0.000 A 
ATOM      6  C   UNL     1      -3.534  11.490  18.123  0.00  0.00    +0.000 A 
ATOM      7  C   UNL     1      -2.695  11.683  19.232  0.00  0.00    +0.000 A 
ATOM      8  C   UNL     1      -3.129  12.484  20.287  0.00  0.00    +0.000 A 
ATOM      9  C   UNL     1      -2.405  12.864  21.553  0.00  0.00    +0.000 C 
ATOM     10  N   UNL     1      -1.220  13.743  21.357  0.00  0.00    +0.000 N 
ATOM     11  C   UNL     1      -0.603  14.237  22.501  0.00  0.00    +0.000 C 
ATOM     12  O   UNL     1       0.590  14.489  22.592  0.00  0.00    +0.000 OA
ATOM     13  C   UNL     1      -1.538  14.677  23.565  0.00  0.00    +0.000 A 
ATOM     14  C   UNL     1      -0.996  15.346  24.673  0.00  0.00    +0.000 A 
ATOM     15  C   UNL     1      -1.823  15.943  25.608  0.00  0.00    +0.000 A 
ATOM     16  C   UNL     1      -3.198  15.949  25.393  0.00  0.00    +0.000 A 
ATOM     17  C   UNL     1      -3.747  15.285  24.296  0.00  0.00    +0.000 A 
ATOM     18  C   UNL     1      -2.929  14.577  23.394  0.00  0.00    +0.000 A 
ENDROOT
BRANCH  10  19
ATOM     19  C   UNL     1      -0.700  14.200  20.040  0.00  0.00    +0.000 C 
ATOM     20  C   UNL     1      -0.717  15.735  19.946  0.00  0.00    +0.000 C 
ATOM     21  C   UNL     1       0.699  13.676  19.703  0.00  0.00    +0.000 C 
ENDBRANCH  10  19
BRANCH   1  22
ATOM     22  C   UNL     1      -4.361  12.601  23.364  0.00  0.00    +0.000 C 
ATOM     23  O   UNL     1      -3.817  11.806  24.131  0.00  0.00    +0.000 OA
BRANCH  22  24
ATOM     24  O   UNL     1      -5.682  12.505  23.046  0.00  0.00    +0.000 OA
BRANCH  24  26
ATOM     25  C   UNL     1      -7.520  13.818  24.113  0.00  0.00    +0.000 C 
ATOM     26  C   UNL     1      -6.560  12.634  24.193  0.00  0.00    +0.000 C 
ENDBRANCH  24  26
ENDBRANCH  22  24
ENDBRANCH   1  22
BRANCH   5  27
ATOM     27  O   UNL     1      -5.754  11.891  17.115  0.00  0.00    +0.000 OA
ATOM     28  C   UNL     1      -6.858  12.785  17.100  0.00  0.00    +0.000 C 
ENDBRANCH   5  27
BRANCH  15  29
ATOM     29  O   UNL     1      -1.172  16.512  26.674  0.00  0.00    +0.000 OA
ATOM     30  C   UNL     1      -0.217  17.522  26.383  0.00  0.00    +0.000 C 
ENDBRANCH  15  29
TORSDOF 6
ENDMDL
MODEL 8
REMARK VINA RESULT:      -5.7      7.326     11.696
REMARK  Name = 
REMARK  11 active torsions:
REMARK  status: ('A' for Active; 'I' for Inactive)
REMARK    1  A    between atoms: C_1  and  C_2
REMARK    2  A    between atoms: C_2  and  O_3
REMARK    3  A    between atoms: O_3  and  C_4
REMARK    4  A    between atoms: C_4  and  C_6
REMARK    5  A    between atoms: C_10  and  O_11
REMARK    6  A    between atoms: O_11  and  C_12
REMARK    7  A    between atoms: N_17  and  C_18
REMARK    8  A    between atoms: C_18  and  C_19
REMARK    9  A    between atoms: C_18  and  C_20
REMARK   10  A    between atoms: C_25  and  O_26
REMARK   11  A    between atoms: O_26  and  C_27
REMARK                            x       y       z     vdW  Elec       q    Type
REMARK                         _______ _______ _______ _____ _____    ______ ____
ROOT
ATOM      1  C   UNL     1      -1.375  12.781  21.823  0.00  0.00    +0.000 C 
ATOM      2  C   UNL     1      -2.425  12.535  20.690  0.00  0.00    +0.000 C 
ATOM      3  C   UNL     1      -1.670  11.673  19.717  0.00  0.00    +0.000 A 
ATOM      4  C   UNL     1      -2.190  10.873  18.708  0.00  0.00    +0.000 A 
ATOM      5  C   UNL     1      -1.324  10.257  17.796  0.00  0.00    +0.000 A 
ATOM      6  C   UNL     1       0.059  10.447  17.919  0.00  0.00    +0.000 A 
ATOM      7  C   UNL     1       0.579  11.193  18.989  0.00  0.00    +0.000 A 
ATOM      8  C   UNL     1      -0.296  11.796  19.891  0.00  0.00    +0.000 A 
ATOM      9  C   UNL     1       0.016  12.664  21.084  0.00  0.00    +0.000 C 
ATOM     10  N   UNL     1       0.610  13.988  20.756  0.00  0.00    +0.000 N 
ATOM     11  C   UNL     1       0.785  14.881  21.808  0.00  0.00    +0.000 C 
ATOM     12  O   UNL     1       1.675  15.717  21.869  0.00  0.00    +0.000 OA
ATOM     13  C   UNL     1      -0.341  14.923  22.774  0.00  0.00    +0.000 A 
ATOM     14  C   UNL     1      -0.315  15.921  23.759  0.00  0.00    +0.000 A 
ATOM     15  C   UNL     1      -1.415  16.134  24.573  0.00  0.00    +0.000 A 
ATOM     16  C   UNL     1      -2.579  15.407  24.345  0.00  0.00    +0.000 A 
ATOM     17  C   UNL     1      -2.614  14.411  23.369  0.00  0.00    +0.000 A 
ATOM     18  C   UNL     1      -1.470  14.104  22.607  0.00  0.00    +0.000 A 
ENDROOT
BRANCH  10  19
ATOM     19  C   UNL     1       0.952  14.460  19.387  0.00  0.00    +0.000 C 
ATOM     20  C   UNL     1       0.126  15.702  19.012  0.00  0.00    +0.000 C 
ATOM     21  C   UNL     1       2.442  14.747  19.177  0.00  0.00    +0.000 C 
ENDBRANCH  10  19
BRANCH   1  22
ATOM     22  C   UNL     1      -1.704  11.691  22.891  0.00  0.00    +0.000 C 
ATOM     23  O   UNL     1      -2.817  11.614  23.415  0.00  0.00    +0.000 OA
BRANCH  22  24
ATOM     24  O   UNL     1      -0.617  11.058  23.413  0.00  0.00    +0.000 OA
BRANCH  24  26
ATOM     25  C   UNL     1       0.763   9.240  22.399  0.00  0.00    +0.000 C 
ATOM     26  C   UNL     1      -0.547   9.653  23.065  0.00  0.00    +0.000 C 
ENDBRANCH  24  26
ENDBRANCH  22  24
ENDBRANCH   1  22
BRANCH   5  27
ATOM     27  O   UNL     1      -1.955   9.514  16.835  0.00  0.00    +0.000 OA
ATOM     28  C   UNL     1      -2.706  10.206  15.849  0.00  0.00    +0.000 C 
ENDBRANCH   5  27
BRANCH  15  29
ATOM     29  O   UNL     1      -1.242  17.096  25.536  0.00  0.00    +0.000 OA
ATOM     30  C   UNL     1      -0.713  16.671  26.784  0.00  0.00    +0.000 C 
ENDBRANCH  15  29
TORSDOF 6
ENDMDL
MODEL 9
REMARK VINA RESULT:      -5.7      8.022     10.533
REMARK  Name = 
REMARK  11 active torsions:
REMARK  status: ('A' for Active; 'I' for Inactive)
REMARK    1  A    between atoms: C_1  and  C_2
REMARK    2  A    between atoms: C_2  and  O_3
REMARK    3  A    between atoms: O_3  and  C_4
REMARK    4  A    between atoms: C_4  and  C_6
REMARK    5  A    between atoms: C_10  and  O_11
REMARK    6  A    between atoms: O_11  and  C_12
REMARK    7  A    between atoms: N_17  and  C_18
REMARK    8  A    between atoms: C_18  and  C_19
REMARK    9  A    between atoms: C_18  and  C_20
REMARK   10  A    between atoms: C_25  and  O_26
REMARK   11  A    between atoms: O_26  and  C_27
REMARK                            x       y       z     vdW  Elec       q    Type
REMARK                         _______ _______ _______ _____ _____    ______ ____
ROOT
ATOM      1  C   UNL     1      -1.617  12.610  20.486  0.00  0.00    +0.000 C 
ATOM      2  C   UNL     1      -0.856  13.971  20.616  0.00  0.00    +0.000 C 
ATOM      3  C   UNL     1      -1.016  14.305  22.073  0.00  0.00    +0.000 A 
ATOM      4  C   UNL     1      -0.272  15.203  22.827  0.00  0.00    +0.000 A 
ATOM      5  C   UNL     1      -0.664  15.500  24.139  0.00  0.00    +0.000 A 
ATOM      6  C   UNL     1      -1.798  14.878  24.678  0.00  0.00    +0.000 A 
ATOM      7  C   UNL     1      -2.498  13.913  23.936  0.00  0.00    +0.000 A 
ATOM      8  C   UNL     1      -2.092  13.626  22.634  0.00  0.00    +0.000 A 
ATOM      9  C   UNL     1      -2.696  12.667  21.639  0.00  0.00    +0.000 C 
ATOM     10  N   UNL     1      -4.049  13.045  21.147  0.00  0.00    +0.000 N 
ATOM     11  C   UNL     1      -4.588  12.273  20.125  0.00  0.00    +0.000 C 
ATOM     12  O   UNL     1      -5.783  12.068  19.967  0.00  0.00    +0.000 OA
ATOM     13  C   UNL     1      -3.623  11.891  19.065  0.00  0.00    +0.000 A 
ATOM     14  C   UNL     1      -4.130  11.263  17.918  0.00  0.00    +0.000 A 
ATOM     15  C   UNL     1      -3.320  11.047  16.817  0.00  0.00    +0.000 A 
ATOM     16  C   UNL     1      -2.017  11.538  16.827  0.00  0.00    +0.000 A 
ATOM     17  C   UNL     1      -1.503  12.162  17.963  0.00  0.00    +0.000 A 
ATOM     18  C   UNL     1      -2.278  12.291  19.132  0.00  0.00    +0.000 A 
ENDROOT
BRANCH  10  19
ATOM     19  C   UNL     1      -4.827  14.228  21.603  0.00  0.00    +0.000 C 
ATOM     20  C   UNL     1      -5.263  15.092  20.408  0.00  0.00    +0.000 C 
ATOM     21  C   UNL     1      -6.047  13.882  22.463  0.00  0.00    +0.000 C 
ENDBRANCH  10  19
BRANCH   1  22
ATOM     22  C   UNL     1      -0.495  11.533  20.617  0.00  0.00    +0.000 C 
ATOM     23  O   UNL     1       0.682  11.789  20.359  0.00  0.00    +0.000 OA
BRANCH  22  24
ATOM     24  O   UNL     1      -0.946  10.252  20.727  0.00  0.00    +0.000 OA
BRANCH  24  26
ATOM     25  C   UNL     1      -0.562  10.031  23.185  0.00  0.00    +0.000 C 
ATOM     26  C   UNL     1      -0.292   9.500  21.780  0.00  0.00    +0.000 C 
ENDBRANCH  24  26
ENDBRANCH  22  24
ENDBRANCH   1  22
BRANCH   5  27
ATOM     27  O   UNL     1       0.134  16.416  24.770  0.00  0.00    +0.000 OA
ATOM     28  C   UNL     1       0.132  17.748  24.279  0.00  0.00    +0.000 C 
ENDBRANCH   5  27
BRANCH  15  29
ATOM     29  O   UNL     1      -3.917  10.370  15.784  0.00  0.00    +0.000 OA
ATOM     30  C   UNL     1      -3.128  10.130  14.628  0.00  0.00    +0.000 C 
ENDBRANCH  15  29
TORSDOF 6
ENDMDL
