MODEL 1
REMARK VINA RESULT:      -8.2      0.000      0.000
REMARK  Name = 
REMARK  12 active torsions:
REMARK  status: ('A' for Active; 'I' for Inactive)
REMARK    1  A    between atoms: C_1  and  C_2
REMARK    2  A    between atoms: C_2  and  C_3
REMARK    3  A    between atoms: N_14  and  C_15
REMARK    4  A    between atoms: C_20  and  N_21
REMARK    5  A    between atoms: N_21  and  C_22
REMARK    6  A    between atoms: C_22  and  C_23
REMARK    7  A    between atoms: C_23  and  N_24
REMARK    8  A    between atoms: N_24  and  C_25
REMARK    9  A    between atoms: N_24  and  C_27
REMARK   10  A    between atoms: C_25  and  C_26
REMARK   11  A    between atoms: C_27  and  C_28
REMARK   12  A    between atoms: C_29  and  C_30
REMARK                            x       y       z     vdW  Elec       q    Type
REMARK                         _______ _______ _______ _____ _____    ______ ____
ROOT
ATOM      1  C   UNL     1       5.053   4.821  18.944  0.00  0.00    +0.000 A 
ATOM      2  N   UNL     1       5.700   3.655  18.765  0.00  0.00    +0.000 NA
ATOM      3  N   UNL     1       4.846   2.739  19.257  0.00  0.00    +0.000 N 
ATOM      4  C   UNL     1       3.693   3.269  19.747  0.00  0.00    +0.000 A 
ATOM      5  N   UNL     1       2.701   2.583  20.335  0.00  0.00    +0.000 NA
ATOM      6  C   UNL     1       1.716   3.404  20.724  0.00  0.00    +0.000 A 
ATOM      7  N   UNL     1       1.637   4.736  20.548  0.00  0.00    +0.000 NA
ATOM      8  C   UNL     1       2.648   5.398  19.916  0.00  0.00    +0.000 A 
ATOM      9  N   UNL     1       2.559   6.791  19.724  0.00  0.00    +0.000 N 
ATOM     10  C   UNL     1       1.579   7.407  20.658  0.00  0.00    +0.000 C 
ATOM     11  C   UNL     1       1.542   8.937  20.473  0.00  0.00    +0.000 C 
ATOM     12  N   UNL     1       1.205   9.264  19.062  0.00  0.00    +0.000 N 
ATOM     13  C   UNL     1       2.164   8.662  18.119  0.00  0.00    +0.000 C 
ATOM     14  C   UNL     1       2.213   7.119  18.312  0.00  0.00    +0.000 C 
ATOM     15  C   UNL     1       3.762   4.632  19.520  0.00  0.00    +0.000 A 
ATOM     16  H   UNL     1       5.110   1.762  19.250  0.00  0.00    +0.000 HD
ENDROOT
BRANCH  12  17
ATOM     17  C   UNL     1       0.141  10.102  18.753  0.00  0.00    +0.000 A 
ATOM     18  C   UNL     1      -0.809   9.635  17.821  0.00  0.00    +0.000 A 
ATOM     19  C   UNL     1      -1.838  10.428  17.343  0.00  0.00    +0.000 A 
ATOM     20 CL   UNL     1      -2.893   9.836  16.118  0.00  0.00    +0.000 Cl
ATOM     21  C   UNL     1      -2.024  11.697  17.853  0.00  0.00    +0.000 A 
ATOM     22  C   UNL     1      -1.219  12.183  18.893  0.00  0.00    +0.000 A 
ATOM     23  C   UNL     1      -0.059  11.427  19.265  0.00  0.00    +0.000 A 
ATOM     24  C   UNL     1       0.972  12.077  20.157  0.00  0.00    +0.000 C 
BRANCH  22  25
ATOM     25  N   UNL     1      -1.512  13.459  19.449  0.00  0.00    +0.000 N 
ATOM     26  H   UNL     1      -0.703  13.907  19.871  0.00  0.00    +0.000 HD
BRANCH  25  27
ATOM     27  C   UNL     1      -2.688  13.499  20.343  0.00  0.00    +0.000 C 
BRANCH  27  28
ATOM     28  C   UNL     1      -2.644  12.489  21.511  0.00  0.00    +0.000 C 
BRANCH  28  29
ATOM     29  N   UNL     1      -3.824  12.362  22.394  0.00  0.00    +0.000 NA
BRANCH  29  30
ATOM     30  C   UNL     1      -3.531  12.619  23.814  0.00  0.00    +0.000 C 
ATOM     31  C   UNL     1      -4.659  12.349  24.808  0.00  0.00    +0.000 C 
ENDBRANCH  29  30
BRANCH  29  32
ATOM     32  C   UNL     1      -4.915  13.194  21.851  0.00  0.00    +0.000 C 
ATOM     33  C   UNL     1      -6.065  12.409  21.230  0.00  0.00    +0.000 C 
ENDBRANCH  29  32
ENDBRANCH  28  29
ENDBRANCH  27  28
ENDBRANCH  25  27
ENDBRANCH  22  25
ENDBRANCH  12  17
BRANCH   1  35
ATOM     34  C   UNL     1       7.258   5.988  18.674  0.00  0.00    +0.000 C 
ATOM     35  C   UNL     1       5.745   6.089  18.563  0.00  0.00    +0.000 C 
ENDBRANCH   1  35
TORSDOF 8
ENDMDL
MODEL 2
REMARK VINA RESULT:      -8.0      1.041      1.344
REMARK  Name = 
REMARK  12 active torsions:
REMARK  status: ('A' for Active; 'I' for Inactive)
REMARK    1  A    between atoms: C_1  and  C_2
REMARK    2  A    between atoms: C_2  and  C_3
REMARK    3  A    between atoms: N_14  and  C_15
REMARK    4  A    between atoms: C_20  and  N_21
REMARK    5  A    between atoms: N_21  and  C_22
REMARK    6  A    between atoms: C_22  and  C_23
REMARK    7  A    between atoms: C_23  and  N_24
REMARK    8  A    between atoms: N_24  and  C_25
REMARK    9  A    between atoms: N_24  and  C_27
REMARK   10  A    between atoms: C_25  and  C_26
REMARK   11  A    between atoms: C_27  and  C_28
REMARK   12  A    between atoms: C_29  and  C_30
REMARK                            x       y       z     vdW  Elec       q    Type
REMARK                         _______ _______ _______ _____ _____    ______ ____
ROOT
ATOM      1  C   UNL     1       5.258   5.256  18.764  0.00  0.00    +0.000 A 
ATOM      2  N   UNL     1       5.998   4.146  18.591  0.00  0.00    +0.000 NA
ATOM      3  N   UNL     1       5.246   3.174  19.140  0.00  0.00    +0.000 N 
ATOM      4  C   UNL     1       4.069   3.617  19.659  0.00  0.00    +0.000 A 
ATOM      5  N   UNL     1       3.162   2.865  20.302  0.00  0.00    +0.000 NA
ATOM      6  C   UNL     1       2.124   3.609  20.707  0.00  0.00    +0.000 A 
ATOM      7  N   UNL     1       1.922   4.923  20.499  0.00  0.00    +0.000 NA
ATOM      8  C   UNL     1       2.848   5.651  19.812  0.00  0.00    +0.000 A 
ATOM      9  N   UNL     1       2.630   7.024  19.586  0.00  0.00    +0.000 N 
ATOM     10  C   UNL     1       1.633   7.580  20.541  0.00  0.00    +0.000 C 
ATOM     11  C   UNL     1       1.456   9.096  20.316  0.00  0.00    +0.000 C 
ATOM     12  N   UNL     1       1.041   9.350  18.912  0.00  0.00    +0.000 N 
ATOM     13  C   UNL     1       2.016   8.806  17.949  0.00  0.00    +0.000 C 
ATOM     14  C   UNL     1       2.206   7.280  18.180  0.00  0.00    +0.000 C 
ATOM     15  C   UNL     1       4.010   4.973  19.394  0.00  0.00    +0.000 A 
ATOM     16  H   UNL     1       5.595   2.225  19.148  0.00  0.00    +0.000 HD
ENDROOT
BRANCH  12  17
ATOM     17  C   UNL     1      -0.102  10.083  18.621  0.00  0.00    +0.000 A 
ATOM     18  C   UNL     1      -0.927   9.619  17.575  0.00  0.00    +0.000 A 
ATOM     19  C   UNL     1      -2.021  10.333  17.115  0.00  0.00    +0.000 A 
ATOM     20 CL   UNL     1      -2.916   9.769  15.757  0.00  0.00    +0.000 Cl
ATOM     21  C   UNL     1      -2.400  11.498  17.750  0.00  0.00    +0.000 A 
ATOM     22  C   UNL     1      -1.727  11.950  18.893  0.00  0.00    +0.000 A 
ATOM     23  C   UNL     1      -0.503  11.302  19.262  0.00  0.00    +0.000 A 
ATOM     24  C   UNL     1       0.381  11.961  20.295  0.00  0.00    +0.000 C 
BRANCH  22  25
ATOM     25  N   UNL     1      -2.216  13.105  19.566  0.00  0.00    +0.000 N 
ATOM     26  H   UNL     1      -1.478  13.744  19.852  0.00  0.00    +0.000 HD
BRANCH  25  27
ATOM     27  C   UNL     1      -3.164  12.836  20.667  0.00  0.00    +0.000 C 
BRANCH  27  28
ATOM     28  C   UNL     1      -4.654  12.943  20.273  0.00  0.00    +0.000 C 
BRANCH  28  29
ATOM     29  N   UNL     1      -5.654  12.163  21.035  0.00  0.00    +0.000 NA
BRANCH  29  30
ATOM     30  C   UNL     1      -6.196  12.877  22.203  0.00  0.00    +0.000 C 
ATOM     31  C   UNL     1      -7.053  14.109  21.917  0.00  0.00    +0.000 C 
ENDBRANCH  29  30
BRANCH  29  32
ATOM     32  C   UNL     1      -6.689  11.678  20.101  0.00  0.00    +0.000 C 
ATOM     33  C   UNL     1      -7.604  10.599  20.671  0.00  0.00    +0.000 C 
ENDBRANCH  29  32
ENDBRANCH  28  29
ENDBRANCH  27  28
ENDBRANCH  25  27
ENDBRANCH  22  25
ENDBRANCH  12  17
BRANCH   1  35
ATOM     34  C   UNL     1       7.115   6.416  17.539  0.00  0.00    +0.000 C 
ATOM     35  C   UNL     1       5.822   6.567  18.324  0.00  0.00    +0.000 C 
ENDBRANCH   1  35
TORSDOF 8
ENDMDL
MODEL 3
REMARK VINA RESULT:      -8.0      0.761      1.424
REMARK  Name = 
REMARK  12 active torsions:
REMARK  status: ('A' for Active; 'I' for Inactive)
REMARK    1  A    between atoms: C_1  and  C_2
REMARK    2  A    between atoms: C_2  and  C_3
REMARK    3  A    between atoms: N_14  and  C_15
REMARK    4  A    between atoms: C_20  and  N_21
REMARK    5  A    between atoms: N_21  and  C_22
REMARK    6  A    between atoms: C_22  and  C_23
REMARK    7  A    between atoms: C_23  and  N_24
REMARK    8  A    between atoms: N_24  and  C_25
REMARK    9  A    between atoms: N_24  and  C_27
REMARK   10  A    between atoms: C_25  and  C_26
REMARK   11  A    between atoms: C_27  and  C_28
REMARK   12  A    between atoms: C_29  and  C_30
REMARK                            x       y       z     vdW  Elec       q    Type
REMARK                         _______ _______ _______ _____ _____    ______ ____
ROOT
ATOM      1  C   UNL     1       5.185   5.001  18.847  0.00  0.00    +0.000 A 
ATOM      2  N   UNL     1       5.836   3.836  18.677  0.00  0.00    +0.000 NA
ATOM      3  N   UNL     1       4.983   2.921  19.172  0.00  0.00    +0.000 N 
ATOM      4  C   UNL     1       3.827   3.450  19.655  0.00  0.00    +0.000 A 
ATOM      5  N   UNL     1       2.835   2.765  20.245  0.00  0.00    +0.000 NA
ATOM      6  C   UNL     1       1.847   3.585  20.626  0.00  0.00    +0.000 A 
ATOM      7  N   UNL     1       1.764   4.916  20.442  0.00  0.00    +0.000 NA
ATOM      8  C   UNL     1       2.775   5.577  19.809  0.00  0.00    +0.000 A 
ATOM      9  N   UNL     1       2.682   6.968  19.608  0.00  0.00    +0.000 N 
ATOM     10  C   UNL     1       1.698   7.587  20.536  0.00  0.00    +0.000 C 
ATOM     11  C   UNL     1       1.657   9.116  20.341  0.00  0.00    +0.000 C 
ATOM     12  N   UNL     1       1.323   9.433  18.927  0.00  0.00    +0.000 N 
ATOM     13  C   UNL     1       2.287   8.828  17.991  0.00  0.00    +0.000 C 
ATOM     14  C   UNL     1       2.339   7.287  18.193  0.00  0.00    +0.000 C 
ATOM     15  C   UNL     1       3.893   4.812  19.420  0.00  0.00    +0.000 A 
ATOM     16  H   UNL     1       5.250   1.945  19.172  0.00  0.00    +0.000 HD
ENDROOT
BRANCH  12  17
ATOM     17  C   UNL     1       0.257  10.266  18.610  0.00  0.00    +0.000 A 
ATOM     18  C   UNL     1      -0.830   9.698  17.914  0.00  0.00    +0.000 A 
ATOM     19  C   UNL     1      -1.886  10.456  17.436  0.00  0.00    +0.000 A 
ATOM     20 CL   UNL     1      -3.124   9.720  16.491  0.00  0.00    +0.000 Cl
ATOM     21  C   UNL     1      -1.954  11.804  17.722  0.00  0.00    +0.000 A 
ATOM     22  C   UNL     1      -0.994  12.418  18.538  0.00  0.00    +0.000 A 
ATOM     23  C   UNL     1       0.179  11.671  18.889  0.00  0.00    +0.000 A 
ATOM     24  C   UNL     1       1.348  12.406  19.501  0.00  0.00    +0.000 C 
BRANCH  22  25
ATOM     25  N   UNL     1      -1.159  13.789  18.882  0.00  0.00    +0.000 N 
ATOM     26  H   UNL     1      -0.347  14.358  18.659  0.00  0.00    +0.000 HD
BRANCH  25  27
ATOM     27  C   UNL     1      -1.643  14.038  20.255  0.00  0.00    +0.000 C 
BRANCH  27  28
ATOM     28  C   UNL     1      -2.390  12.849  20.899  0.00  0.00    +0.000 C 
BRANCH  28  29
ATOM     29  N   UNL     1      -2.802  12.945  22.318  0.00  0.00    +0.000 NA
BRANCH  29  30
ATOM     30  C   UNL     1      -4.261  13.014  22.505  0.00  0.00    +0.000 C 
ATOM     31  C   UNL     1      -5.126  12.579  21.323  0.00  0.00    +0.000 C 
ENDBRANCH  29  30
BRANCH  29  32
ATOM     32  C   UNL     1      -2.155  11.857  23.075  0.00  0.00    +0.000 C 
ATOM     33  C   UNL     1      -0.871  11.324  22.450  0.00  0.00    +0.000 C 
ENDBRANCH  29  32
ENDBRANCH  28  29
ENDBRANCH  27  28
ENDBRANCH  25  27
ENDBRANCH  22  25
ENDBRANCH  12  17
BRANCH   1  35
ATOM     34  C   UNL     1       5.844   6.519  16.961  0.00  0.00    +0.000 C 
ATOM     35  C   UNL     1       5.873   6.269  18.461  0.00  0.00    +0.000 C 
ENDBRANCH   1  35
TORSDOF 8
ENDMDL
MODEL 4
REMARK VINA RESULT:      -7.8      2.129      2.699
REMARK  Name = 
REMARK  12 active torsions:
REMARK  status: ('A' for Active; 'I' for Inactive)
REMARK    1  A    between atoms: C_1  and  C_2
REMARK    2  A    between atoms: C_2  and  C_3
REMARK    3  A    between atoms: N_14  and  C_15
REMARK    4  A    between atoms: C_20  and  N_21
REMARK    5  A    between atoms: N_21  and  C_22
REMARK    6  A    between atoms: C_22  and  C_23
REMARK    7  A    between atoms: C_23  and  N_24
REMARK    8  A    between atoms: N_24  and  C_25
REMARK    9  A    between atoms: N_24  and  C_27
REMARK   10  A    between atoms: C_25  and  C_26
REMARK   11  A    between atoms: C_27  and  C_28
REMARK   12  A    between atoms: C_29  and  C_30
REMARK                            x       y       z     vdW  Elec       q    Type
REMARK                         _______ _______ _______ _____ _____    ______ ____
ROOT
ATOM      1  C   UNL     1       4.890   5.395  17.306  0.00  0.00    +0.000 A 
ATOM      2  N   UNL     1       5.479   4.413  16.600  0.00  0.00    +0.000 NA
ATOM      3  N   UNL     1       4.634   3.375  16.735  0.00  0.00    +0.000 N 
ATOM      4  C   UNL     1       3.543   3.649  17.499  0.00  0.00    +0.000 A 
ATOM      5  N   UNL     1       2.576   2.778  17.829  0.00  0.00    +0.000 NA
ATOM      6  C   UNL     1       1.655   3.360  18.610  0.00  0.00    +0.000 A 
ATOM      7  N   UNL     1       1.610   4.642  19.016  0.00  0.00    +0.000 NA
ATOM      8  C   UNL     1       2.592   5.509  18.635  0.00  0.00    +0.000 A 
ATOM      9  N   UNL     1       2.537   6.853  19.052  0.00  0.00    +0.000 N 
ATOM     10  C   UNL     1       1.656   7.018  20.239  0.00  0.00    +0.000 C 
ATOM     11  C   UNL     1       1.660   8.485  20.716  0.00  0.00    +0.000 C 
ATOM     12  N   UNL     1       1.225   9.374  19.607  0.00  0.00    +0.000 N 
ATOM     13  C   UNL     1       2.085   9.225  18.420  0.00  0.00    +0.000 C 
ATOM     14  C   UNL     1       2.093   7.745  17.943  0.00  0.00    +0.000 C 
ATOM     15  C   UNL     1       3.643   4.981  17.859  0.00  0.00    +0.000 A 
ATOM     16  H   UNL     1       4.862   2.492  16.296  0.00  0.00    +0.000 HD
ENDROOT
BRANCH  12  17
ATOM     17  C   UNL     1       0.171  10.264  19.771  0.00  0.00    +0.000 A 
ATOM     18  C   UNL     1       0.058  10.920  21.015  0.00  0.00    +0.000 A 
ATOM     19  C   UNL     1      -1.019  11.729  21.336  0.00  0.00    +0.000 A 
ATOM     20 CL   UNL     1      -1.156  12.405  22.914  0.00  0.00    +0.000 Cl
ATOM     21  C   UNL     1      -1.983  12.002  20.388  0.00  0.00    +0.000 A 
ATOM     22  C   UNL     1      -1.867  11.516  19.079  0.00  0.00    +0.000 A 
ATOM     23  C   UNL     1      -0.846  10.549  18.801  0.00  0.00    +0.000 A 
ATOM     24  C   UNL     1      -0.900   9.796  17.492  0.00  0.00    +0.000 C 
BRANCH  22  25
ATOM     25  N   UNL     1      -2.837  11.904  18.113  0.00  0.00    +0.000 N 
ATOM     26  H   UNL     1      -2.990  12.908  18.079  0.00  0.00    +0.000 HD
BRANCH  25  27
ATOM     27  C   UNL     1      -4.111  11.158  18.168  0.00  0.00    +0.000 C 
BRANCH  27  28
ATOM     28  C   UNL     1      -5.345  12.017  18.527  0.00  0.00    +0.000 C 
BRANCH  28  29
ATOM     29  N   UNL     1      -5.845  12.007  19.919  0.00  0.00    +0.000 NA
BRANCH  29  30
ATOM     30  C   UNL     1      -5.459  13.198  20.694  0.00  0.00    +0.000 C 
ATOM     31  C   UNL     1      -5.182  12.988  22.182  0.00  0.00    +0.000 C 
ENDBRANCH  29  30
BRANCH  29  32
ATOM     32  C   UNL     1      -7.299  11.754  19.900  0.00  0.00    +0.000 C 
ATOM     33  C   UNL     1      -7.747  10.559  20.735  0.00  0.00    +0.000 C 
ENDBRANCH  29  32
ENDBRANCH  28  29
ENDBRANCH  27  28
ENDBRANCH  25  27
ENDBRANCH  22  25
ENDBRANCH  12  17
BRANCH   1  35
ATOM     34  C   UNL     1       7.089   6.548  17.668  0.00  0.00    +0.000 C 
ATOM     35  C   UNL     1       5.595   6.706  17.434  0.00  0.00    +0.000 C 
ENDBRANCH   1  35
TORSDOF 8
ENDMDL
MODEL 5
REMARK VINA RESULT:      -7.8      0.963      1.215
REMARK  Name = 
REMARK  12 active torsions:
REMARK  status: ('A' for Active; 'I' for Inactive)
REMARK    1  A    between atoms: C_1  and  C_2
REMARK    2  A    between atoms: C_2  and  C_3
REMARK    3  A    between atoms: N_14  and  C_15
REMARK    4  A    between atoms: C_20  and  N_21
REMARK    5  A    between atoms: N_21  and  C_22
REMARK    6  A    between atoms: C_22  and  C_23
REMARK    7  A    between atoms: C_23  and  N_24
REMARK    8  A    between atoms: N_24  and  C_25
REMARK    9  A    between atoms: N_24  and  C_27
REMARK   10  A    between atoms: C_25  and  C_26
REMARK   11  A    between atoms: C_27  and  C_28
REMARK   12  A    between atoms: C_29  and  C_30
REMARK                            x       y       z     vdW  Elec       q    Type
REMARK                         _______ _______ _______ _____ _____    ______ ____
ROOT
ATOM      1  C   UNL     1       5.242   5.314  18.603  0.00  0.00    +0.000 A 
ATOM      2  N   UNL     1       5.979   4.202  18.430  0.00  0.00    +0.000 NA
ATOM      3  N   UNL     1       5.262   3.247  19.049  0.00  0.00    +0.000 N 
ATOM      4  C   UNL     1       4.110   3.701  19.613  0.00  0.00    +0.000 A 
ATOM      5  N   UNL     1       3.242   2.968  20.327  0.00  0.00    +0.000 NA
ATOM      6  C   UNL     1       2.221   3.720  20.759  0.00  0.00    +0.000 A 
ATOM      7  N   UNL     1       2.001   5.026  20.517  0.00  0.00    +0.000 NA
ATOM      8  C   UNL     1       2.886   5.734  19.759  0.00  0.00    +0.000 A 
ATOM      9  N   UNL     1       2.648   7.098  19.498  0.00  0.00    +0.000 N 
ATOM     10  C   UNL     1       1.698   7.681  20.483  0.00  0.00    +0.000 C 
ATOM     11  C   UNL     1       1.500   9.188  20.217  0.00  0.00    +0.000 C 
ATOM     12  N   UNL     1       1.012   9.392  18.827  0.00  0.00    +0.000 N 
ATOM     13  C   UNL     1       1.939   8.819  17.835  0.00  0.00    +0.000 C 
ATOM     14  C   UNL     1       2.151   7.303  18.108  0.00  0.00    +0.000 C 
ATOM     15  C   UNL     1       4.029   5.047  19.305  0.00  0.00    +0.000 A 
ATOM     16  H   UNL     1       5.616   2.299  19.072  0.00  0.00    +0.000 HD
ENDROOT
BRANCH  12  17
ATOM     17  C   UNL     1      -0.150  10.109  18.571  0.00  0.00    +0.000 A 
ATOM     18  C   UNL     1      -0.965   9.672  17.506  0.00  0.00    +0.000 A 
ATOM     19  C   UNL     1      -2.077  10.379  17.080  0.00  0.00    +0.000 A 
ATOM     20 CL   UNL     1      -2.962   9.855  15.699  0.00  0.00    +0.000 Cl
ATOM     21  C   UNL     1      -2.483  11.506  17.766  0.00  0.00    +0.000 A 
ATOM     22  C   UNL     1      -1.818  11.922  18.927  0.00  0.00    +0.000 A 
ATOM     23  C   UNL     1      -0.578  11.288  19.266  0.00  0.00    +0.000 A 
ATOM     24  C   UNL     1       0.292  11.922  20.326  0.00  0.00    +0.000 C 
BRANCH  22  25
ATOM     25  N   UNL     1      -2.333  13.034  19.652  0.00  0.00    +0.000 N 
ATOM     26  H   UNL     1      -1.694  13.378  20.364  0.00  0.00    +0.000 HD
BRANCH  25  27
ATOM     27  C   UNL     1      -3.701  12.859  20.182  0.00  0.00    +0.000 C 
BRANCH  27  28
ATOM     28  C   UNL     1      -4.136  13.931  21.207  0.00  0.00    +0.000 C 
BRANCH  28  29
ATOM     29  N   UNL     1      -3.734  13.774  22.622  0.00  0.00    +0.000 NA
BRANCH  29  30
ATOM     30  C   UNL     1      -2.524  14.533  22.980  0.00  0.00    +0.000 C 
ATOM     31  C   UNL     1      -1.281  13.717  23.332  0.00  0.00    +0.000 C 
ENDBRANCH  29  30
BRANCH  29  32
ATOM     32  C   UNL     1      -4.897  14.067  23.482  0.00  0.00    +0.000 C 
ATOM     33  C   UNL     1      -5.624  12.836  24.010  0.00  0.00    +0.000 C 
ENDBRANCH  29  32
ENDBRANCH  28  29
ENDBRANCH  27  28
ENDBRANCH  25  27
ENDBRANCH  22  25
ENDBRANCH  12  17
BRANCH   1  35
ATOM     34  C   UNL     1       7.269   6.568  17.820  0.00  0.00    +0.000 C 
ATOM     35  C   UNL     1       5.773   6.612  18.090  0.00  0.00    +0.000 C 
ENDBRANCH   1  35
TORSDOF 8
ENDMDL
MODEL 6
REMARK VINA RESULT:      -7.8      2.344      3.304
REMARK  Name = 
REMARK  12 active torsions:
REMARK  status: ('A' for Active; 'I' for Inactive)
REMARK    1  A    between atoms: C_1  and  C_2
REMARK    2  A    between atoms: C_2  and  C_3
REMARK    3  A    between atoms: N_14  and  C_15
REMARK    4  A    between atoms: C_20  and  N_21
REMARK    5  A    between atoms: N_21  and  C_22
REMARK    6  A    between atoms: C_22  and  C_23
REMARK    7  A    between atoms: C_23  and  N_24
REMARK    8  A    between atoms: N_24  and  C_25
REMARK    9  A    between atoms: N_24  and  C_27
REMARK   10  A    between atoms: C_25  and  C_26
REMARK   11  A    between atoms: C_27  and  C_28
REMARK   12  A    between atoms: C_29  and  C_30
REMARK                            x       y       z     vdW  Elec       q    Type
REMARK                         _______ _______ _______ _____ _____    ______ ____
ROOT
ATOM      1  C   UNL     1       4.936   4.741  19.119  0.00  0.00    +0.000 A 
ATOM      2  N   UNL     1       5.528   3.545  18.950  0.00  0.00    +0.000 NA
ATOM      3  N   UNL     1       4.607   2.669  19.390  0.00  0.00    +0.000 N 
ATOM      4  C   UNL     1       3.462   3.252  19.836  0.00  0.00    +0.000 A 
ATOM      5  N   UNL     1       2.410   2.611  20.369  0.00  0.00    +0.000 NA
ATOM      6  C   UNL     1       1.453   3.478  20.727  0.00  0.00    +0.000 A 
ATOM      7  N   UNL     1       1.451   4.815  20.569  0.00  0.00    +0.000 NA
ATOM      8  C   UNL     1       2.523   5.431  19.993  0.00  0.00    +0.000 A 
ATOM      9  N   UNL     1       2.515   6.829  19.819  0.00  0.00    +0.000 N 
ATOM     10  C   UNL     1       1.527   7.483  20.718  0.00  0.00    +0.000 C 
ATOM     11  C   UNL     1       1.578   9.015  20.555  0.00  0.00    +0.000 C 
ATOM     12  N   UNL     1       1.322   9.378  19.136  0.00  0.00    +0.000 N 
ATOM     13  C   UNL     1       2.290   8.739  18.228  0.00  0.00    +0.000 C 
ATOM     14  C   UNL     1       2.250   7.194  18.398  0.00  0.00    +0.000 C 
ATOM     15  C   UNL     1       3.612   4.613  19.634  0.00  0.00    +0.000 A 
ATOM     16  H   UNL     1       4.820   1.680  19.379  0.00  0.00    +0.000 HD
ENDROOT
BRANCH  12  17
ATOM     17  C   UNL     1       0.318  10.275  18.794  0.00  0.00    +0.000 A 
ATOM     18  C   UNL     1      -0.940   9.743  18.441  0.00  0.00    +0.000 A 
ATOM     19  C   UNL     1      -1.974  10.530  17.963  0.00  0.00    +0.000 A 
ATOM     20 CL   UNL     1      -3.445   9.804  17.438  0.00  0.00    +0.000 Cl
ATOM     21  C   UNL     1      -1.831  11.901  17.911  0.00  0.00    +0.000 A 
ATOM     22  C   UNL     1      -0.669  12.524  18.387  0.00  0.00    +0.000 A 
ATOM     23  C   UNL     1       0.455  11.701  18.723  0.00  0.00    +0.000 A 
ATOM     24  C   UNL     1       1.796  12.362  18.941  0.00  0.00    +0.000 C 
BRANCH  22  25
ATOM     25  N   UNL     1      -0.608  13.946  18.400  0.00  0.00    +0.000 N 
ATOM     26  H   UNL     1       0.235  14.315  17.967  0.00  0.00    +0.000 HD
BRANCH  25  27
ATOM     27  C   UNL     1      -0.870  14.574  19.712  0.00  0.00    +0.000 C 
BRANCH  27  28
ATOM     28  C   UNL     1       0.231  15.547  20.190  0.00  0.00    +0.000 C 
BRANCH  28  29
ATOM     29  N   UNL     1       0.249  16.927  19.655  0.00  0.00    +0.000 NA
BRANCH  29  30
ATOM     30  C   UNL     1       1.242  17.133  18.587  0.00  0.00    +0.000 C 
ATOM     31  C   UNL     1       2.369  16.106  18.491  0.00  0.00    +0.000 C 
ENDBRANCH  29  30
BRANCH  29  32
ATOM     32  C   UNL     1      -1.124  17.306  19.273  0.00  0.00    +0.000 C 
ATOM     33  C   UNL     1      -1.220  18.158  18.012  0.00  0.00    +0.000 C 
ENDBRANCH  29  32
ENDBRANCH  28  29
ENDBRANCH  27  28
ENDBRANCH  25  27
ENDBRANCH  22  25
ENDBRANCH  12  17
BRANCH   1  35
ATOM     34  C   UNL     1       6.169   6.010  17.340  0.00  0.00    +0.000 C 
ATOM     35  C   UNL     1       5.709   5.976  18.789  0.00  0.00    +0.000 C 
ENDBRANCH   1  35
TORSDOF 8
ENDMDL
MODEL 7
REMARK VINA RESULT:      -7.8      1.345      1.567
REMARK  Name = 
REMARK  12 active torsions:
REMARK  status: ('A' for Active; 'I' for Inactive)
REMARK    1  A    between atoms: C_1  and  C_2
REMARK    2  A    between atoms: C_2  and  C_3
REMARK    3  A    between atoms: N_14  and  C_15
REMARK    4  A    between atoms: C_20  and  N_21
REMARK    5  A    between atoms: N_21  and  C_22
REMARK    6  A    between atoms: C_22  and  C_23
REMARK    7  A    between atoms: C_23  and  N_24
REMARK    8  A    between atoms: N_24  and  C_25
REMARK    9  A    between atoms: N_24  and  C_27
REMARK   10  A    between atoms: C_25  and  C_26
REMARK   11  A    between atoms: C_27  and  C_28
REMARK   12  A    between atoms: C_29  and  C_30
REMARK                            x       y       z     vdW  Elec       q    Type
REMARK                         _______ _______ _______ _____ _____    ______ ____
ROOT
ATOM      1  C   UNL     1       5.466   5.708  17.398  0.00  0.00    +0.000 A 
ATOM      2  N   UNL     1       6.226   4.745  16.845  0.00  0.00    +0.000 NA
ATOM      3  N   UNL     1       5.496   3.628  17.012  0.00  0.00    +0.000 N 
ATOM      4  C   UNL     1       4.313   3.835  17.651  0.00  0.00    +0.000 A 
ATOM      5  N   UNL     1       3.424   2.886  17.984  0.00  0.00    +0.000 NA
ATOM      6  C   UNL     1       2.373   3.419  18.623  0.00  0.00    +0.000 A 
ATOM      7  N   UNL     1       2.145   4.717  18.893  0.00  0.00    +0.000 NA
ATOM      8  C   UNL     1       3.053   5.659  18.511  0.00  0.00    +0.000 A 
ATOM      9  N   UNL     1       2.808   7.019  18.785  0.00  0.00    +0.000 N 
ATOM     10  C   UNL     1       1.805   7.181  19.871  0.00  0.00    +0.000 C 
ATOM     11  C   UNL     1       1.597   8.675  20.198  0.00  0.00    +0.000 C 
ATOM     12  N   UNL     1       1.171   9.401  18.972  0.00  0.00    +0.000 N 
ATOM     13  C   UNL     1       2.152   9.252  17.882  0.00  0.00    +0.000 C 
ATOM     14  C   UNL     1       2.372   7.747  17.559  0.00  0.00    +0.000 C 
ATOM     15  C   UNL     1       4.226   5.196  17.883  0.00  0.00    +0.000 A 
ATOM     16  H   UNL     1       5.863   2.744  16.685  0.00  0.00    +0.000 HD
ENDROOT
BRANCH  12  17
ATOM     17  C   UNL     1       0.012  10.167  18.957  0.00  0.00    +0.000 A 
ATOM     18  C   UNL     1      -0.959   9.861  17.981  0.00  0.00    +0.000 A 
ATOM     19  C   UNL     1      -2.093  10.633  17.790  0.00  0.00    +0.000 A 
ATOM     20 CL   UNL     1      -3.180  10.274  16.504  0.00  0.00    +0.000 Cl
ATOM     21  C   UNL     1      -2.358  11.691  18.636  0.00  0.00    +0.000 A 
ATOM     22  C   UNL     1      -1.523  11.970  19.726  0.00  0.00    +0.000 A 
ATOM     23  C   UNL     1      -0.271  11.277  19.820  0.00  0.00    +0.000 A 
ATOM     24  C   UNL     1       0.761  11.778  20.803  0.00  0.00    +0.000 C 
BRANCH  22  25
ATOM     25  N   UNL     1      -1.890  13.011  20.624  0.00  0.00    +0.000 N 
ATOM     26  H   UNL     1      -1.091  13.474  21.049  0.00  0.00    +0.000 HD
BRANCH  25  27
ATOM     27  C   UNL     1      -2.909  12.644  21.629  0.00  0.00    +0.000 C 
BRANCH  27  28
ATOM     28  C   UNL     1      -4.365  12.943  21.208  0.00  0.00    +0.000 C 
BRANCH  28  29
ATOM     29  N   UNL     1      -5.473  12.354  21.993  0.00  0.00    +0.000 NA
BRANCH  29  30
ATOM     30  C   UNL     1      -5.840  13.144  23.180  0.00  0.00    +0.000 C 
ATOM     31  C   UNL     1      -7.051  12.661  23.978  0.00  0.00    +0.000 C 
ENDBRANCH  29  30
BRANCH  29  32
ATOM     32  C   UNL     1      -6.605  12.081  21.087  0.00  0.00    +0.000 C 
ATOM     33  C   UNL     1      -6.718  13.037  19.905  0.00  0.00    +0.000 C 
ENDBRANCH  29  32
ENDBRANCH  28  29
ENDBRANCH  27  28
ENDBRANCH  25  27
ENDBRANCH  22  25
ENDBRANCH  12  17
BRANCH   1  35
ATOM     34  C   UNL     1       7.520   7.143  17.524  0.00  0.00    +0.000 C 
ATOM     35  C   UNL     1       6.002   7.101  17.452  0.00  0.00    +0.000 C 
ENDBRANCH   1  35
TORSDOF 8
ENDMDL
MODEL 8
REMARK VINA RESULT:      -7.7      1.366      1.825
REMARK  Name = 
REMARK  12 active torsions:
REMARK  status: ('A' for Active; 'I' for Inactive)
REMARK    1  A    between atoms: C_1  and  C_2
REMARK    2  A    between atoms: C_2  and  C_3
REMARK    3  A    between atoms: N_14  and  C_15
REMARK    4  A    between atoms: C_20  and  N_21
REMARK    5  A    between atoms: N_21  and  C_22
REMARK    6  A    between atoms: C_22  and  C_23
REMARK    7  A    between atoms: C_23  and  N_24
REMARK    8  A    between atoms: N_24  and  C_25
REMARK    9  A    between atoms: N_24  and  C_27
REMARK   10  A    between atoms: C_25  and  C_26
REMARK   11  A    between atoms: C_27  and  C_28
REMARK   12  A    between atoms: C_29  and  C_30
REMARK                            x       y       z     vdW  Elec       q    Type
REMARK                         _______ _______ _______ _____ _____    ______ ____
ROOT
ATOM      1  C   UNL     1       5.298   5.612  17.292  0.00  0.00    +0.000 A 
ATOM      2  N   UNL     1       5.992   4.629  16.691  0.00  0.00    +0.000 NA
ATOM      3  N   UNL     1       5.201   3.550  16.830  0.00  0.00    +0.000 N 
ATOM      4  C   UNL     1       4.042   3.801  17.498  0.00  0.00    +0.000 A 
ATOM      5  N   UNL     1       3.104   2.893  17.813  0.00  0.00    +0.000 NA
ATOM      6  C   UNL     1       2.097   3.460  18.489  0.00  0.00    +0.000 A 
ATOM      7  N   UNL     1       1.949   4.758  18.811  0.00  0.00    +0.000 NA
ATOM      8  C   UNL     1       2.904   5.661  18.446  0.00  0.00    +0.000 A 
ATOM      9  N   UNL     1       2.742   7.021  18.774  0.00  0.00    +0.000 N 
ATOM     10  C   UNL     1       1.768   7.200  19.884  0.00  0.00    +0.000 C 
ATOM     11  C   UNL     1       1.653   8.689  20.268  0.00  0.00    +0.000 C 
ATOM     12  N   UNL     1       1.250   9.484  19.078  0.00  0.00    +0.000 N 
ATOM     13  C   UNL     1       2.203   9.320  17.965  0.00  0.00    +0.000 C 
ATOM     14  C   UNL     1       2.330   7.818  17.584  0.00  0.00    +0.000 C 
ATOM     15  C   UNL     1       4.038   5.155  17.780  0.00  0.00    +0.000 A 
ATOM     16  H   UNL     1       5.510   2.659  16.465  0.00  0.00    +0.000 HD
ENDROOT
BRANCH  12  17
ATOM     17  C   UNL     1       0.138  10.316  19.112  0.00  0.00    +0.000 A 
ATOM     18  C   UNL     1      -1.034   9.865  18.467  0.00  0.00    +0.000 A 
ATOM     19  C   UNL     1      -2.160  10.658  18.328  0.00  0.00    +0.000 A 
ATOM     20 CL   UNL     1      -3.514  10.090  17.429  0.00  0.00    +0.000 Cl
ATOM     21  C   UNL     1      -2.203  11.905  18.917  0.00  0.00    +0.000 A 
ATOM     22  C   UNL     1      -1.141  12.368  19.705  0.00  0.00    +0.000 A 
ATOM     23  C   UNL     1       0.082  11.619  19.708  0.00  0.00    +0.000 A 
ATOM     24  C   UNL     1       1.319  12.255  20.297  0.00  0.00    +0.000 C 
BRANCH  22  25
ATOM     25  N   UNL     1      -1.272  13.620  20.368  0.00  0.00    +0.000 N 
ATOM     26  H   UNL     1      -0.457  14.219  20.259  0.00  0.00    +0.000 HD
BRANCH  25  27
ATOM     27  C   UNL     1      -1.709  13.542  21.777  0.00  0.00    +0.000 C 
BRANCH  27  28
ATOM     28  C   UNL     1      -2.840  14.525  22.156  0.00  0.00    +0.000 C 
BRANCH  28  29
ATOM     29  N   UNL     1      -4.135  13.982  22.621  0.00  0.00    +0.000 NA
BRANCH  29  30
ATOM     30  C   UNL     1      -4.533  12.738  21.941  0.00  0.00    +0.000 C 
ATOM     31  C   UNL     1      -5.363  12.887  20.667  0.00  0.00    +0.000 C 
ENDBRANCH  29  30
BRANCH  29  32
ATOM     32  C   UNL     1      -4.104  13.872  24.092  0.00  0.00    +0.000 C 
ATOM     33  C   UNL     1      -4.349  12.466  24.630  0.00  0.00    +0.000 C 
ENDBRANCH  29  32
ENDBRANCH  28  29
ENDBRANCH  27  28
ENDBRANCH  25  27
ENDBRANCH  22  25
ENDBRANCH  12  17
BRANCH   1  35
ATOM     34  C   UNL     1       7.429   6.918  17.511  0.00  0.00    +0.000 C 
ATOM     35  C   UNL     1       5.914   6.970  17.386  0.00  0.00    +0.000 C 
ENDBRANCH   1  35
TORSDOF 8
ENDMDL
MODEL 9
REMARK VINA RESULT:      -7.7      2.347      3.170
REMARK  Name = 
REMARK  12 active torsions:
REMARK  status: ('A' for Active; 'I' for Inactive)
REMARK    1  A    between atoms: C_1  and  C_2
REMARK    2  A    between atoms: C_2  and  C_3
REMARK    3  A    between atoms: N_14  and  C_15
REMARK    4  A    between atoms: C_20  and  N_21
REMARK    5  A    between atoms: N_21  and  C_22
REMARK    6  A    between atoms: C_22  and  C_23
REMARK    7  A    between atoms: C_23  and  N_24
REMARK    8  A    between atoms: N_24  and  C_25
REMARK    9  A    between atoms: N_24  and  C_27
REMARK   10  A    between atoms: C_25  and  C_26
REMARK   11  A    between atoms: C_27  and  C_28
REMARK   12  A    between atoms: C_29  and  C_30
REMARK                            x       y       z     vdW  Elec       q    Type
REMARK                         _______ _______ _______ _____ _____    ______ ____
ROOT
ATOM      1  C   UNL     1       5.077   5.610  17.237  0.00  0.00    +0.000 A 
ATOM      2  N   UNL     1       5.713   4.655  16.536  0.00  0.00    +0.000 NA
ATOM      3  N   UNL     1       4.891   3.594  16.628  0.00  0.00    +0.000 N 
ATOM      4  C   UNL     1       3.769   3.828  17.360  0.00  0.00    +0.000 A 
ATOM      5  N   UNL     1       2.814   2.929  17.645  0.00  0.00    +0.000 NA
ATOM      6  C   UNL     1       1.854   3.474  18.403  0.00  0.00    +0.000 A 
ATOM      7  N   UNL     1       1.763   4.748  18.827  0.00  0.00    +0.000 NA
ATOM      8  C   UNL     1       2.734   5.646  18.491  0.00  0.00    +0.000 A 
ATOM      9  N   UNL     1       2.632   6.981  18.927  0.00  0.00    +0.000 N 
ATOM     10  C   UNL     1       1.708   7.106  20.086  0.00  0.00    +0.000 C 
ATOM     11  C   UNL     1       1.660   8.565  20.585  0.00  0.00    +0.000 C 
ATOM     12  N   UNL     1       1.238   9.460  19.475  0.00  0.00    +0.000 N 
ATOM     13  C   UNL     1       2.140   9.351  18.315  0.00  0.00    +0.000 C 
ATOM     14  C   UNL     1       2.201   7.879  17.817  0.00  0.00    +0.000 C 
ATOM     15  C   UNL     1       3.823   5.157  17.743  0.00  0.00    +0.000 A 
ATOM     16  H   UNL     1       5.156   2.724  16.184  0.00  0.00    +0.000 HD
ENDROOT
BRANCH  12  17
ATOM     17  C   UNL     1       0.157  10.321  19.618  0.00  0.00    +0.000 A 
ATOM     18  C   UNL     1       0.047  11.035  20.829  0.00  0.00    +0.000 A 
ATOM     19  C   UNL     1      -1.051  11.823  21.132  0.00  0.00    +0.000 A 
ATOM     20 CL   UNL     1      -1.179  12.575  22.676  0.00  0.00    +0.000 Cl
ATOM     21  C   UNL     1      -2.044  12.013  20.194  0.00  0.00    +0.000 A 
ATOM     22  C   UNL     1      -1.938  11.464  18.909  0.00  0.00    +0.000 A 
ATOM     23  C   UNL     1      -0.890  10.519  18.657  0.00  0.00    +0.000 A 
ATOM     24  C   UNL     1      -0.945   9.698  17.391  0.00  0.00    +0.000 C 
BRANCH  22  25
ATOM     25  N   UNL     1      -2.942  11.767  17.947  0.00  0.00    +0.000 N 
ATOM     26  H   UNL     1      -3.209  12.749  17.942  0.00  0.00    +0.000 HD
BRANCH  25  27
ATOM     27  C   UNL     1      -4.123  10.879  17.970  0.00  0.00    +0.000 C 
BRANCH  27  28
ATOM     28  C   UNL     1      -5.481  11.615  17.987  0.00  0.00    +0.000 C 
BRANCH  28  29
ATOM     29  N   UNL     1      -5.689  12.713  18.958  0.00  0.00    +0.000 NA
BRANCH  29  30
ATOM     30  C   UNL     1      -6.587  13.772  18.468  0.00  0.00    +0.000 C 
ATOM     31  C   UNL     1      -6.758  13.881  16.953  0.00  0.00    +0.000 C 
ENDBRANCH  29  30
BRANCH  29  32
ATOM     32  C   UNL     1      -6.103  12.132  20.249  0.00  0.00    +0.000 C 
ATOM     33  C   UNL     1      -5.432  12.753  21.469  0.00  0.00    +0.000 C 
ENDBRANCH  29  32
ENDBRANCH  28  29
ENDBRANCH  27  28
ENDBRANCH  25  27
ENDBRANCH  22  25
ENDBRANCH  12  17
BRANCH   1  35
ATOM     34  C   UNL     1       7.258   6.826  17.486  0.00  0.00    +0.000 C 
ATOM     35  C   UNL     1       5.743   6.937  17.408  0.00  0.00    +0.000 C 
ENDBRANCH   1  35
TORSDOF 8
ENDMDL
