MODEL 1
REMARK VINA RESULT:      -8.7      0.000      0.000
REMARK  Name = 
REMARK  2 active torsions:
REMARK  status: ('A' for Active; 'I' for Inactive)
REMARK    1  A    between atoms: N_2  and  C_4
REMARK    2  A    between atoms: C_8  and  C_9
REMARK                            x       y       z     vdW  Elec       q    Type
REMARK                         _______ _______ _______ _____ _____    ______ ____
ROOT
ATOM      1  C   UNL     1       6.736   5.109  16.164  0.00  0.00    +0.000 A 
ATOM      2  N   UNL     1       7.838   4.876  16.884  0.00  0.00    +0.000 NA
ATOM      3  N   UNL     1       7.459   4.368  18.108  0.00  0.00    +0.000 NA
ATOM      4  C   UNL     1       6.152   4.400  18.111  0.00  0.00    +0.000 A 
ATOM      5  C   UNL     1       5.104   3.688  18.782  0.00  0.00    +0.000 A 
ATOM      6  C   UNL     1       4.098   3.363  17.924  0.00  0.00    +0.000 A 
ATOM      7  C   UNL     1       3.461   4.635  17.450  0.00  0.00    +0.000 A 
ATOM      8  C   UNL     1       2.132   4.885  17.775  0.00  0.00    +0.000 A 
ATOM      9  C   UNL     1       1.758   6.193  18.058  0.00  0.00    +0.000 A 
ATOM     10  C   UNL     1       2.711   7.218  17.990  0.00  0.00    +0.000 A 
ATOM     11  C   UNL     1       4.004   6.975  17.485  0.00  0.00    +0.000 A 
ATOM     12  C   UNL     1       4.361   5.674  17.104  0.00  0.00    +0.000 A 
ATOM     13  N   UNL     1       5.732   5.288  17.118  0.00  0.00    +0.000 N 
ENDROOT
BRANCH   1  18
ATOM     14  C   UNL     1       6.062   3.746  12.620  0.00  0.00    +0.000 A 
ATOM     15  C   UNL     1       7.079   4.384  11.898  0.00  0.00    +0.000 A 
ATOM     16  C   UNL     1       7.929   5.245  12.569  0.00  0.00    +0.000 A 
ATOM     17  C   UNL     1       7.741   5.477  13.938  0.00  0.00    +0.000 A 
ATOM     18  C   UNL     1       6.711   4.865  14.697  0.00  0.00    +0.000 A 
ATOM     19  C   UNL     1       5.880   3.965  14.016  0.00  0.00    +0.000 A 
BRANCH  14  21
ATOM     20  O   UNL     1       5.681   1.717  11.535  0.00  0.00    +0.000 OA
ATOM     21  N   UNL     1       5.187   2.800  11.893  0.00  0.00    +0.000 N 
ATOM     22  O   UNL     1       4.029   3.168  11.686  0.00  0.00    +0.000 OA
ENDBRANCH  14  21
ENDBRANCH   1  18
TORSDOF 2
ENDMDL
MODEL 2
REMARK VINA RESULT:      -8.5      2.724      4.343
REMARK  Name = 
REMARK  2 active torsions:
REMARK  status: ('A' for Active; 'I' for Inactive)
REMARK    1  A    between atoms: N_2  and  C_4
REMARK    2  A    between atoms: C_8  and  C_9
REMARK                            x       y       z     vdW  Elec       q    Type
REMARK                         _______ _______ _______ _____ _____    ______ ____
ROOT
ATOM      1  C   UNL     1       3.542   6.298  17.742  0.00  0.00    +0.000 A 
ATOM      2  N   UNL     1       3.155   7.578  17.726  0.00  0.00    +0.000 NA
ATOM      3  N   UNL     1       2.332   7.798  18.808  0.00  0.00    +0.000 NA
ATOM      4  C   UNL     1       2.184   6.630  19.379  0.00  0.00    +0.000 A 
ATOM      5  C   UNL     1       1.870   6.158  20.695  0.00  0.00    +0.000 A 
ATOM      6  C   UNL     1       2.669   5.114  21.051  0.00  0.00    +0.000 A 
ATOM      7  C   UNL     1       2.362   3.963  20.141  0.00  0.00    +0.000 A 
ATOM      8  C   UNL     1       1.825   2.800  20.685  0.00  0.00    +0.000 A 
ATOM      9  C   UNL     1       0.879   2.103  19.943  0.00  0.00    +0.000 A 
ATOM     10  C   UNL     1       0.507   2.569  18.676  0.00  0.00    +0.000 A 
ATOM     11  C   UNL     1       1.191   3.642  18.069  0.00  0.00    +0.000 A 
ATOM     12  C   UNL     1       2.216   4.291  18.770  0.00  0.00    +0.000 A 
ATOM     13  N   UNL     1       2.537   5.643  18.456  0.00  0.00    +0.000 N 
ENDROOT
BRANCH   1  18
ATOM     14  C   UNL     1       6.674   5.155  15.805  0.00  0.00    +0.000 A 
ATOM     15  C   UNL     1       7.551   4.885  16.864  0.00  0.00    +0.000 A 
ATOM     16  C   UNL     1       7.114   5.100  18.158  0.00  0.00    +0.000 A 
ATOM     17  C   UNL     1       5.825   5.602  18.379  0.00  0.00    +0.000 A 
ATOM     18  C   UNL     1       4.917   5.906  17.333  0.00  0.00    +0.000 A 
ATOM     19  C   UNL     1       5.357   5.648  16.027  0.00  0.00    +0.000 A 
BRANCH  14  21
ATOM     20  O   UNL     1       8.078   5.578  13.991  0.00  0.00    +0.000 OA
ATOM     21  N   UNL     1       7.146   4.882  14.429  0.00  0.00    +0.000 N 
ATOM     22  O   UNL     1       6.565   3.985  13.814  0.00  0.00    +0.000 OA
ENDBRANCH  14  21
ENDBRANCH   1  18
TORSDOF 2
ENDMDL
MODEL 3
REMARK VINA RESULT:      -8.4      5.599      7.726
REMARK  Name = 
REMARK  2 active torsions:
REMARK  status: ('A' for Active; 'I' for Inactive)
REMARK    1  A    between atoms: N_2  and  C_4
REMARK    2  A    between atoms: C_8  and  C_9
REMARK                            x       y       z     vdW  Elec       q    Type
REMARK                         _______ _______ _______ _____ _____    ______ ____
ROOT
ATOM      1  C   UNL     1       3.058   6.956  18.695  0.00  0.00    +0.000 A 
ATOM      2  N   UNL     1       4.036   7.066  17.790  0.00  0.00    +0.000 NA
ATOM      3  N   UNL     1       4.147   5.868  17.120  0.00  0.00    +0.000 NA
ATOM      4  C   UNL     1       3.300   5.060  17.705  0.00  0.00    +0.000 A 
ATOM      5  C   UNL     1       2.572   3.883  17.332  0.00  0.00    +0.000 A 
ATOM      6  C   UNL     1       1.284   3.937  17.772  0.00  0.00    +0.000 A 
ATOM      7  C   UNL     1       1.304   3.924  19.271  0.00  0.00    +0.000 A 
ATOM      8  C   UNL     1       0.729   2.850  19.943  0.00  0.00    +0.000 A 
ATOM      9  C   UNL     1       1.336   2.402  21.110  0.00  0.00    +0.000 A 
ATOM     10  C   UNL     1       2.485   3.045  21.587  0.00  0.00    +0.000 A 
ATOM     11  C   UNL     1       2.946   4.239  20.997  0.00  0.00    +0.000 A 
ATOM     12  C   UNL     1       2.281   4.754  19.876  0.00  0.00    +0.000 A 
ATOM     13  N   UNL     1       2.987   5.587  18.960  0.00  0.00    +0.000 N 
ENDROOT
BRANCH   1  18
ATOM     14  C   UNL     1       0.644   9.478  20.331  0.00  0.00    +0.000 A 
ATOM     15  C   UNL     1       0.186  10.170  19.202  0.00  0.00    +0.000 A 
ATOM     16  C   UNL     1       0.685   9.818  17.961  0.00  0.00    +0.000 A 
ATOM     17  C   UNL     1       1.646   8.804  17.863  0.00  0.00    +0.000 A 
ATOM     18  C   UNL     1       2.148   8.095  18.985  0.00  0.00    +0.000 A 
ATOM     19  C   UNL     1       1.607   8.434  20.233  0.00  0.00    +0.000 A 
BRANCH  14  21
ATOM     20  O   UNL     1       0.271  10.997  22.061  0.00  0.00    +0.000 OA
ATOM     21  N   UNL     1       0.070   9.843  21.646  0.00  0.00    +0.000 N 
ATOM     22  O   UNL     1      -0.558   8.962  22.238  0.00  0.00    +0.000 OA
ENDBRANCH  14  21
ENDBRANCH   1  18
TORSDOF 2
ENDMDL
MODEL 4
REMARK VINA RESULT:      -7.7      4.358      6.944
REMARK  Name = 
REMARK  2 active torsions:
REMARK  status: ('A' for Active; 'I' for Inactive)
REMARK    1  A    between atoms: N_2  and  C_4
REMARK    2  A    between atoms: C_8  and  C_9
REMARK                            x       y       z     vdW  Elec       q    Type
REMARK                         _______ _______ _______ _____ _____    ______ ____
ROOT
ATOM      1  C   UNL     1       3.121   6.128  18.731  0.00  0.00    +0.000 A 
ATOM      2  N   UNL     1       2.553   7.300  18.428  0.00  0.00    +0.000 NA
ATOM      3  N   UNL     1       3.212   7.836  17.343  0.00  0.00    +0.000 NA
ATOM      4  C   UNL     1       4.200   7.016  17.094  0.00  0.00    +0.000 A 
ATOM      5  C   UNL     1       4.992   6.674  15.950  0.00  0.00    +0.000 A 
ATOM      6  C   UNL     1       5.170   5.326  15.856  0.00  0.00    +0.000 A 
ATOM      7  C   UNL     1       5.980   4.882  17.036  0.00  0.00    +0.000 A 
ATOM      8  C   UNL     1       7.243   4.337  16.820  0.00  0.00    +0.000 A 
ATOM      9  C   UNL     1       8.248   4.624  17.736  0.00  0.00    +0.000 A 
ATOM     10  C   UNL     1       7.967   5.426  18.849  0.00  0.00    +0.000 A 
ATOM     11  C   UNL     1       6.646   5.816  19.147  0.00  0.00    +0.000 A 
ATOM     12  C   UNL     1       5.607   5.449  18.281  0.00  0.00    +0.000 A 
ATOM     13  N   UNL     1       4.420   6.235  18.231  0.00  0.00    +0.000 N 
ENDROOT
BRANCH   1  18
ATOM     14  C   UNL     1       1.664   3.130  20.670  0.00  0.00    +0.000 A 
ATOM     15  C   UNL     1       0.788   2.603  19.712  0.00  0.00    +0.000 A 
ATOM     16  C   UNL     1       0.680   3.239  18.490  0.00  0.00    +0.000 A 
ATOM     17  C   UNL     1       1.423   4.402  18.246  0.00  0.00    +0.000 A 
ATOM     18  C   UNL     1       2.304   4.977  19.197  0.00  0.00    +0.000 A 
ATOM     19  C   UNL     1       2.435   4.301  20.418  0.00  0.00    +0.000 A 
BRANCH  14  21
ATOM     20  O   UNL     1       0.766   2.256  22.637  0.00  0.00    +0.000 OA
ATOM     21  N   UNL     1       1.795   2.413  21.957  0.00  0.00    +0.000 N 
ATOM     22  O   UNL     1       2.928   2.035  22.266  0.00  0.00    +0.000 OA
ENDBRANCH  14  21
ENDBRANCH   1  18
TORSDOF 2
ENDMDL
MODEL 5
REMARK VINA RESULT:      -7.6      1.498      2.116
REMARK  Name = 
REMARK  2 active torsions:
REMARK  status: ('A' for Active; 'I' for Inactive)
REMARK    1  A    between atoms: N_2  and  C_4
REMARK    2  A    between atoms: C_8  and  C_9
REMARK                            x       y       z     vdW  Elec       q    Type
REMARK                         _______ _______ _______ _____ _____    ______ ____
ROOT
ATOM      1  C   UNL     1       5.133   5.753  15.861  0.00  0.00    +0.000 A 
ATOM      2  N   UNL     1       5.530   6.963  16.267  0.00  0.00    +0.000 NA
ATOM      3  N   UNL     1       5.593   6.962  17.643  0.00  0.00    +0.000 NA
ATOM      4  C   UNL     1       5.148   5.789  18.014  0.00  0.00    +0.000 A 
ATOM      5  C   UNL     1       5.315   4.935  19.152  0.00  0.00    +0.000 A 
ATOM      6  C   UNL     1       5.494   3.638  18.778  0.00  0.00    +0.000 A 
ATOM      7  C   UNL     1       4.232   3.166  18.119  0.00  0.00    +0.000 A 
ATOM      8  C   UNL     1       3.505   2.140  18.714  0.00  0.00    +0.000 A 
ATOM      9  C   UNL     1       2.118   2.193  18.649  0.00  0.00    +0.000 A 
ATOM     10  C   UNL     1       1.493   3.252  17.979  0.00  0.00    +0.000 A 
ATOM     11  C   UNL     1       2.244   4.181  17.231  0.00  0.00    +0.000 A 
ATOM     12  C   UNL     1       3.642   4.078  17.209  0.00  0.00    +0.000 A 
ATOM     13  N   UNL     1       4.428   5.237  16.951  0.00  0.00    +0.000 N 
ENDROOT
BRANCH   1  18
ATOM     14  C   UNL     1       5.733   3.643  12.689  0.00  0.00    +0.000 A 
ATOM     15  C   UNL     1       7.100   3.868  12.482  0.00  0.00    +0.000 A 
ATOM     16  C   UNL     1       7.773   4.706  13.353  0.00  0.00    +0.000 A 
ATOM     17  C   UNL     1       7.076   5.324  14.398  0.00  0.00    +0.000 A 
ATOM     18  C   UNL     1       5.689   5.136  14.628  0.00  0.00    +0.000 A 
ATOM     19  C   UNL     1       5.024   4.256  13.763  0.00  0.00    +0.000 A 
BRANCH  14  21
ATOM     20  O   UNL     1       5.623   1.662  11.464  0.00  0.00    +0.000 OA
ATOM     21  N   UNL     1       5.037   2.715  11.771  0.00  0.00    +0.000 N 
ATOM     22  O   UNL     1       3.927   3.066  11.367  0.00  0.00    +0.000 OA
ENDBRANCH  14  21
ENDBRANCH   1  18
TORSDOF 2
ENDMDL
MODEL 6
REMARK VINA RESULT:      -7.5      4.791      7.447
REMARK  Name = 
REMARK  2 active torsions:
REMARK  status: ('A' for Active; 'I' for Inactive)
REMARK    1  A    between atoms: N_2  and  C_4
REMARK    2  A    between atoms: C_8  and  C_9
REMARK                            x       y       z     vdW  Elec       q    Type
REMARK                         _______ _______ _______ _____ _____    ______ ____
ROOT
ATOM      1  C   UNL     1       2.567   5.867  18.660  0.00  0.00    +0.000 A 
ATOM      2  N   UNL     1       1.910   4.849  19.226  0.00  0.00    +0.000 NA
ATOM      3  N   UNL     1       2.818   3.857  19.527  0.00  0.00    +0.000 NA
ATOM      4  C   UNL     1       3.963   4.275  19.052  0.00  0.00    +0.000 A 
ATOM      5  C   UNL     1       5.347   4.036  19.337  0.00  0.00    +0.000 A 
ATOM      6  C   UNL     1       6.061   5.196  19.334  0.00  0.00    +0.000 A 
ATOM      7  C   UNL     1       6.041   5.750  17.941  0.00  0.00    +0.000 A 
ATOM      8  C   UNL     1       7.239   5.854  17.240  0.00  0.00    +0.000 A 
ATOM      9  C   UNL     1       7.226   5.606  15.873  0.00  0.00    +0.000 A 
ATOM     10  C   UNL     1       6.021   5.281  15.237  0.00  0.00    +0.000 A 
ATOM     11  C   UNL     1       4.793   5.358  15.925  0.00  0.00    +0.000 A 
ATOM     12  C   UNL     1       4.786   5.704  17.284  0.00  0.00    +0.000 A 
ATOM     13  N   UNL     1       3.709   5.278  18.113  0.00  0.00    +0.000 N 
ENDROOT
BRANCH   1  18
ATOM     14  C   UNL     1       1.271   9.139  20.235  0.00  0.00    +0.000 A 
ATOM     15  C   UNL     1       1.245   9.976  19.112  0.00  0.00    +0.000 A 
ATOM     16  C   UNL     1       1.665   9.468  17.896  0.00  0.00    +0.000 A 
ATOM     17  C   UNL     1       2.126   8.147  17.819  0.00  0.00    +0.000 A 
ATOM     18  C   UNL     1       2.186   7.277  18.938  0.00  0.00    +0.000 A 
ATOM     19  C   UNL     1       1.721   7.790  20.157  0.00  0.00    +0.000 A 
BRANCH  14  21
ATOM     20  O   UNL     1      -0.353  10.196  21.533  0.00  0.00    +0.000 OA
ATOM     21  N   UNL     1       0.781   9.689  21.518  0.00  0.00    +0.000 N 
ATOM     22  O   UNL     1       1.549   9.612  22.480  0.00  0.00    +0.000 OA
ENDBRANCH  14  21
ENDBRANCH   1  18
TORSDOF 2
ENDMDL
MODEL 7
REMARK VINA RESULT:      -7.4      4.109      6.563
REMARK  Name = 
REMARK  2 active torsions:
REMARK  status: ('A' for Active; 'I' for Inactive)
REMARK    1  A    between atoms: N_2  and  C_4
REMARK    2  A    between atoms: C_8  and  C_9
REMARK                            x       y       z     vdW  Elec       q    Type
REMARK                         _______ _______ _______ _____ _____    ______ ____
ROOT
ATOM      1  C   UNL     1       4.331   4.875  17.552  0.00  0.00    +0.000 A 
ATOM      2  N   UNL     1       4.192   4.001  16.550  0.00  0.00    +0.000 NA
ATOM      3  N   UNL     1       5.443   3.698  16.059  0.00  0.00    +0.000 NA
ATOM      4  C   UNL     1       6.273   4.463  16.718  0.00  0.00    +0.000 A 
ATOM      5  C   UNL     1       7.662   4.418  17.068  0.00  0.00    +0.000 A 
ATOM      6  C   UNL     1       7.859   4.791  18.363  0.00  0.00    +0.000 A 
ATOM      7  C   UNL     1       7.473   6.233  18.495  0.00  0.00    +0.000 A 
ATOM      8  C   UNL     1       8.450   7.164  18.834  0.00  0.00    +0.000 A 
ATOM      9  C   UNL     1       8.386   8.426  18.254  0.00  0.00    +0.000 A 
ATOM     10  C   UNL     1       7.343   8.733  17.371  0.00  0.00    +0.000 A 
ATOM     11  C   UNL     1       6.267   7.843  17.181  0.00  0.00    +0.000 A 
ATOM     12  C   UNL     1       6.272   6.605  17.839  0.00  0.00    +0.000 A 
ATOM     13  N   UNL     1       5.546   5.511  17.287  0.00  0.00    +0.000 N 
ENDROOT
BRANCH   1  18
ATOM     14  C   UNL     1       2.406   3.777  20.708  0.00  0.00    +0.000 A 
ATOM     15  C   UNL     1       1.481   4.822  20.824  0.00  0.00    +0.000 A 
ATOM     16  C   UNL     1       1.522   5.851  19.901  0.00  0.00    +0.000 A 
ATOM     17  C   UNL     1       2.495   5.838  18.893  0.00  0.00    +0.000 A 
ATOM     18  C   UNL     1       3.461   4.809  18.755  0.00  0.00    +0.000 A 
ATOM     19  C   UNL     1       3.385   3.752  19.674  0.00  0.00    +0.000 A 
BRANCH  14  21
ATOM     20  O   UNL     1       3.356   2.011  21.900  0.00  0.00    +0.000 OA
ATOM     21  N   UNL     1       2.322   2.667  21.682  0.00  0.00    +0.000 N 
ATOM     22  O   UNL     1       1.220   2.468  22.198  0.00  0.00    +0.000 OA
ENDBRANCH  14  21
ENDBRANCH   1  18
TORSDOF 2
ENDMDL
MODEL 8
REMARK VINA RESULT:      -7.4      5.563      7.877
REMARK  Name = 
REMARK  2 active torsions:
REMARK  status: ('A' for Active; 'I' for Inactive)
REMARK    1  A    between atoms: N_2  and  C_4
REMARK    2  A    between atoms: C_8  and  C_9
REMARK                            x       y       z     vdW  Elec       q    Type
REMARK                         _______ _______ _______ _____ _____    ______ ____
ROOT
ATOM      1  C   UNL     1       2.690   7.278  19.115  0.00  0.00    +0.000 A 
ATOM      2  N   UNL     1       3.660   7.585  18.248  0.00  0.00    +0.000 NA
ATOM      3  N   UNL     1       3.905   6.483  17.459  0.00  0.00    +0.000 NA
ATOM      4  C   UNL     1       3.143   5.533  17.938  0.00  0.00    +0.000 A 
ATOM      5  C   UNL     1       2.549   4.333  17.429  0.00  0.00    +0.000 A 
ATOM      6  C   UNL     1       1.258   4.205  17.844  0.00  0.00    +0.000 A 
ATOM      7  C   UNL     1       1.263   4.035  19.333  0.00  0.00    +0.000 A 
ATOM      8  C   UNL     1       0.798   2.841  19.876  0.00  0.00    +0.000 A 
ATOM      9  C   UNL     1       1.436   2.338  21.003  0.00  0.00    +0.000 A 
ATOM     10  C   UNL     1       2.505   3.044  21.570  0.00  0.00    +0.000 A 
ATOM     11  C   UNL     1       2.843   4.335  21.117  0.00  0.00    +0.000 A 
ATOM     12  C   UNL     1       2.139   4.894  20.042  0.00  0.00    +0.000 A 
ATOM     13  N   UNL     1       2.762   5.888  19.234  0.00  0.00    +0.000 N 
ENDROOT
BRANCH   1  18
ATOM     14  C   UNL     1       0.372  10.352  19.334  0.00  0.00    +0.000 A 
ATOM     15  C   UNL     1      -0.147  10.194  20.625  0.00  0.00    +0.000 A 
ATOM     16  C   UNL     1       0.247   9.097  21.370  0.00  0.00    +0.000 A 
ATOM     17  C   UNL     1       1.129   8.163  20.813  0.00  0.00    +0.000 A 
ATOM     18  C   UNL     1       1.660   8.278  19.502  0.00  0.00    +0.000 A 
ATOM     19  C   UNL     1       1.284   9.413  18.771  0.00  0.00    +0.000 A 
BRANCH  14  21
ATOM     20  O   UNL     1       0.778  12.492  18.502  0.00  0.00    +0.000 OA
ATOM     21  N   UNL     1      -0.032  11.551  18.567  0.00  0.00    +0.000 N 
ATOM     22  O   UNL     1      -1.155  11.529  18.059  0.00  0.00    +0.000 OA
ENDBRANCH  14  21
ENDBRANCH   1  18
TORSDOF 2
ENDMDL
MODEL 9
REMARK VINA RESULT:      -7.3      4.958      7.507
REMARK  Name = 
REMARK  2 active torsions:
REMARK  status: ('A' for Active; 'I' for Inactive)
REMARK    1  A    between atoms: N_2  and  C_4
REMARK    2  A    between atoms: C_8  and  C_9
REMARK                            x       y       z     vdW  Elec       q    Type
REMARK                         _______ _______ _______ _____ _____    ______ ____
ROOT
ATOM      1  C   UNL     1       2.362   6.114  18.043  0.00  0.00    +0.000 A 
ATOM      2  N   UNL     1       1.442   5.176  17.797  0.00  0.00    +0.000 NA
ATOM      3  N   UNL     1       2.014   3.940  18.004  0.00  0.00    +0.000 NA
ATOM      4  C   UNL     1       3.271   4.177  18.276  0.00  0.00    +0.000 A 
ATOM      5  C   UNL     1       4.318   3.502  18.985  0.00  0.00    +0.000 A 
ATOM      6  C   UNL     1       5.022   4.366  19.768  0.00  0.00    +0.000 A 
ATOM      7  C   UNL     1       5.726   5.339  18.870  0.00  0.00    +0.000 A 
ATOM      8  C   UNL     1       7.117   5.353  18.852  0.00  0.00    +0.000 A 
ATOM      9  C   UNL     1       7.756   5.591  17.641  0.00  0.00    +0.000 A 
ATOM     10  C   UNL     1       6.997   5.826  16.488  0.00  0.00    +0.000 A 
ATOM     11  C   UNL     1       5.598   5.987  16.560  0.00  0.00    +0.000 A 
ATOM     12  C   UNL     1       4.952   5.846  17.796  0.00  0.00    +0.000 A 
ATOM     13  N   UNL     1       3.580   5.465  17.834  0.00  0.00    +0.000 N 
ENDROOT
BRANCH   1  18
ATOM     14  C   UNL     1       1.185   8.846  20.498  0.00  0.00    +0.000 A 
ATOM     15  C   UNL     1       1.048   9.935  19.628  0.00  0.00    +0.000 A 
ATOM     16  C   UNL     1       1.359   9.761  18.292  0.00  0.00    +0.000 A 
ATOM     17  C   UNL     1       1.823   8.517  17.845  0.00  0.00    +0.000 A 
ATOM     18  C   UNL     1       1.994   7.397  18.699  0.00  0.00    +0.000 A 
ATOM     19  C   UNL     1       1.639   7.575  20.044  0.00  0.00    +0.000 A 
BRANCH  14  21
ATOM     20  O   UNL     1       1.699   9.416  22.700  0.00  0.00    +0.000 OA
ATOM     21  N   UNL     1       0.811   9.042  21.916  0.00  0.00    +0.000 N 
ATOM     22  O   UNL     1      -0.361   8.803  22.215  0.00  0.00    +0.000 OA
ENDBRANCH  14  21
ENDBRANCH   1  18
TORSDOF 2
ENDMDL
