MODEL 1
REMARK VINA RESULT:      -7.8      0.000      0.000
REMARK  Name = 
REMARK  4 active torsions:
REMARK  status: ('A' for Active; 'I' for Inactive)
REMARK    1  A    between atoms: C_2  and  C_3
REMARK    2  A    between atoms: C_3  and  N_4
REMARK    3  A    between atoms: C_5  and  C_6
REMARK    4  A    between atoms: C_6  and  N_7
REMARK                            x       y       z     vdW  Elec       q    Type
REMARK                         _______ _______ _______ _____ _____    ______ ____
ROOT
ATOM      1  N   UNL     1       1.323   9.359  20.029  0.00  0.00    +0.000 N 
ATOM      2  C   UNL     1       0.953   8.655  21.145  0.00  0.00    +0.000 A 
ATOM      3  N   UNL     1       1.335   7.398  21.094  0.00  0.00    +0.000 NA
ATOM      4  C   UNL     1       1.986   7.257  19.886  0.00  0.00    +0.000 A 
ATOM      5  C   UNL     1       2.547   6.133  19.222  0.00  0.00    +0.000 A 
ATOM      6  N   UNL     1       2.511   4.823  19.656  0.00  0.00    +0.000 N 
ATOM      7  C   UNL     1       3.090   3.752  18.839  0.00  0.00    +0.000 C 
ATOM      8  C   UNL     1       2.100   2.578  18.764  0.00  0.00    +0.000 C 
ATOM      9  O   UNL     1       1.723   2.117  20.073  0.00  0.00    +0.000 OA
ATOM     10  C   UNL     1       1.106   3.184  20.816  0.00  0.00    +0.000 C 
ATOM     11  C   UNL     1       2.049   4.391  20.977  0.00  0.00    +0.000 C 
ATOM     12  N   UNL     1       3.117   6.392  18.001  0.00  0.00    +0.000 NA
ATOM     13  C   UNL     1       3.091   7.637  17.493  0.00  0.00    +0.000 A 
ATOM     14  N   UNL     1       2.543   8.744  18.016  0.00  0.00    +0.000 NA
ATOM     15  C   UNL     1       2.012   8.481  19.223  0.00  0.00    +0.000 A 
ENDROOT
BRANCH   1  16
ATOM     16  C   UNL     1       0.913  10.708  19.629  0.00  0.00    +0.000 C 
BRANCH  16  18
ATOM     17  N   UNL     1      -1.488  11.580  19.391  0.00  0.00    +0.000 N 
ATOM     18  C   UNL     1      -0.429  10.793  18.960  0.00  0.00    +0.000 A 
ATOM     19  N   UNL     1      -0.780  10.135  17.870  0.00  0.00    +0.000 NA
ATOM     20  C   UNL     1      -2.071  10.472  17.600  0.00  0.00    +0.000 A 
ATOM     21  C   UNL     1      -2.888  10.059  16.538  0.00  0.00    +0.000 A 
ATOM     22  C   UNL     1      -4.209  10.513  16.496  0.00  0.00    +0.000 A 
ATOM     23  C   UNL     1      -4.703  11.361  17.489  0.00  0.00    +0.000 A 
ATOM     24  C   UNL     1      -3.888  11.802  18.542  0.00  0.00    +0.000 A 
ATOM     25  C   UNL     1      -2.565  11.343  18.560  0.00  0.00    +0.000 A 
BRANCH  17  26
ATOM     26  C   UNL     1      -1.490  12.578  20.454  0.00  0.00    +0.000 C 
BRANCH  26  28
ATOM     27  C   UNL     1      -1.113  11.452  22.673  0.00  0.00    +0.000 C 
ATOM     28  C   UNL     1      -1.935  12.006  21.768  0.00  0.00    +0.000 C 
ENDBRANCH  26  28
ENDBRANCH  17  26
ENDBRANCH  16  18
ENDBRANCH   1  16
TORSDOF 4
ENDMDL
MODEL 2
REMARK VINA RESULT:      -7.5      2.918      8.201
REMARK  Name = 
REMARK  4 active torsions:
REMARK  status: ('A' for Active; 'I' for Inactive)
REMARK    1  A    between atoms: C_2  and  C_3
REMARK    2  A    between atoms: C_3  and  N_4
REMARK    3  A    between atoms: C_5  and  C_6
REMARK    4  A    between atoms: C_6  and  N_7
REMARK                            x       y       z     vdW  Elec       q    Type
REMARK                         _______ _______ _______ _____ _____    ______ ____
ROOT
ATOM      1  N   UNL     1       1.693   8.458  19.181  0.00  0.00    +0.000 N 
ATOM      2  C   UNL     1       1.289   8.722  17.898  0.00  0.00    +0.000 A 
ATOM      3  N   UNL     1       0.344   9.635  17.847  0.00  0.00    +0.000 NA
ATOM      4  C   UNL     1       0.103   9.991  19.158  0.00  0.00    +0.000 A 
ATOM      5  C   UNL     1      -0.848  10.859  19.758  0.00  0.00    +0.000 A 
ATOM      6  N   UNL     1      -1.855  11.547  19.109  0.00  0.00    +0.000 N 
ATOM      7  C   UNL     1      -2.801  12.371  19.867  0.00  0.00    +0.000 C 
ATOM      8  C   UNL     1      -4.232  12.069  19.390  0.00  0.00    +0.000 C 
ATOM      9  O   UNL     1      -4.369  12.253  17.971  0.00  0.00    +0.000 OA
ATOM     10  C   UNL     1      -3.463  11.383  17.268  0.00  0.00    +0.000 C 
ATOM     11  C   UNL     1      -1.996  11.648  17.655  0.00  0.00    +0.000 C 
ATOM     12  N   UNL     1      -0.782  10.955  21.126  0.00  0.00    +0.000 NA
ATOM     13  C   UNL     1       0.120  10.229  21.811  0.00  0.00    +0.000 A 
ATOM     14  N   UNL     1       1.019   9.350  21.342  0.00  0.00    +0.000 NA
ATOM     15  C   UNL     1       0.959   9.287  20.000  0.00  0.00    +0.000 A 
ENDROOT
BRANCH   1  16
ATOM     16  C   UNL     1       2.565   7.380  19.655  0.00  0.00    +0.000 C 
BRANCH  16  18
ATOM     17  N   UNL     1       3.392   5.263  18.466  0.00  0.00    +0.000 N 
ATOM     18  C   UNL     1       3.310   6.644  18.578  0.00  0.00    +0.000 A 
ATOM     19  N   UNL     1       3.981   7.210  17.592  0.00  0.00    +0.000 NA
ATOM     20  C   UNL     1       4.520   6.206  16.848  0.00  0.00    +0.000 A 
ATOM     21  C   UNL     1       5.298   6.288  15.685  0.00  0.00    +0.000 A 
ATOM     22  C   UNL     1       5.778   5.105  15.118  0.00  0.00    +0.000 A 
ATOM     23  C   UNL     1       5.487   3.868  15.697  0.00  0.00    +0.000 A 
ATOM     24  C   UNL     1       4.690   3.771  16.845  0.00  0.00    +0.000 A 
ATOM     25  C   UNL     1       4.210   4.968  17.393  0.00  0.00    +0.000 A 
BRANCH  17  26
ATOM     26  C   UNL     1       2.679   4.255  19.241  0.00  0.00    +0.000 C 
BRANCH  26  28
ATOM     27  C   UNL     1       0.853   2.608  18.711  0.00  0.00    +0.000 C 
ATOM     28  C   UNL     1       1.406   3.824  18.577  0.00  0.00    +0.000 C 
ENDBRANCH  26  28
ENDBRANCH  17  26
ENDBRANCH  16  18
ENDBRANCH   1  16
TORSDOF 4
ENDMDL
MODEL 3
REMARK VINA RESULT:      -7.5      0.980      2.663
REMARK  Name = 
REMARK  4 active torsions:
REMARK  status: ('A' for Active; 'I' for Inactive)
REMARK    1  A    between atoms: C_2  and  C_3
REMARK    2  A    between atoms: C_3  and  N_4
REMARK    3  A    between atoms: C_5  and  C_6
REMARK    4  A    between atoms: C_6  and  N_7
REMARK                            x       y       z     vdW  Elec       q    Type
REMARK                         _______ _______ _______ _____ _____    ______ ____
ROOT
ATOM      1  N   UNL     1       1.290   9.460  19.260  0.00  0.00    +0.000 N 
ATOM      2  C   UNL     1       0.827   8.925  20.434  0.00  0.00    +0.000 A 
ATOM      3  N   UNL     1       1.282   7.710  20.646  0.00  0.00    +0.000 NA
ATOM      4  C   UNL     1       2.081   7.419  19.560  0.00  0.00    +0.000 A 
ATOM      5  C   UNL     1       2.781   6.246  19.167  0.00  0.00    +0.000 A 
ATOM      6  N   UNL     1       2.765   5.028  19.816  0.00  0.00    +0.000 N 
ATOM      7  C   UNL     1       3.498   3.883  19.267  0.00  0.00    +0.000 C 
ATOM      8  C   UNL     1       2.591   2.641  19.290  0.00  0.00    +0.000 C 
ATOM      9  O   UNL     1       2.084   2.377  20.610  0.00  0.00    +0.000 OA
ATOM     10  C   UNL     1       1.324   3.504  21.083  0.00  0.00    +0.000 C 
ATOM     11  C   UNL     1       2.172   4.788  21.134  0.00  0.00    +0.000 C 
ATOM     12  N   UNL     1       3.479   6.340  17.990  0.00  0.00    +0.000 NA
ATOM     13  C   UNL     1       3.445   7.477  17.273  0.00  0.00    +0.000 A 
ATOM     14  N   UNL     1       2.777   8.612  17.532  0.00  0.00    +0.000 NA
ATOM     15  C   UNL     1       2.120   8.513  18.699  0.00  0.00    +0.000 A 
ENDROOT
BRANCH   1  16
ATOM     16  C   UNL     1       0.857  10.688  18.588  0.00  0.00    +0.000 C 
BRANCH  16  18
ATOM     17  N   UNL     1      -1.685  10.873  18.301  0.00  0.00    +0.000 N 
ATOM     18  C   UNL     1      -0.510  11.176  18.974  0.00  0.00    +0.000 A 
ATOM     19  N   UNL     1      -0.778  11.954  20.006  0.00  0.00    +0.000 NA
ATOM     20  C   UNL     1      -2.121  12.179  19.999  0.00  0.00    +0.000 A 
ATOM     21  C   UNL     1      -2.898  12.922  20.898  0.00  0.00    +0.000 A 
ATOM     22  C   UNL     1      -4.268  13.045  20.655  0.00  0.00    +0.000 A 
ATOM     23  C   UNL     1      -4.850  12.438  19.540  0.00  0.00    +0.000 A 
ATOM     24  C   UNL     1      -4.089  11.672  18.647  0.00  0.00    +0.000 A 
ATOM     25  C   UNL     1      -2.719  11.553  18.915  0.00  0.00    +0.000 A 
BRANCH  17  26
ATOM     26  C   UNL     1      -1.875   9.929  17.206  0.00  0.00    +0.000 C 
BRANCH  26  28
ATOM     27  C   UNL     1      -3.192   9.984  15.063  0.00  0.00    +0.000 C 
ATOM     28  C   UNL     1      -2.413  10.591  15.973  0.00  0.00    +0.000 C 
ENDBRANCH  26  28
ENDBRANCH  17  26
ENDBRANCH  16  18
ENDBRANCH   1  16
TORSDOF 4
ENDMDL
MODEL 4
REMARK VINA RESULT:      -7.4      1.836      2.848
REMARK  Name = 
REMARK  4 active torsions:
REMARK  status: ('A' for Active; 'I' for Inactive)
REMARK    1  A    between atoms: C_2  and  C_3
REMARK    2  A    between atoms: C_3  and  N_4
REMARK    3  A    between atoms: C_5  and  C_6
REMARK    4  A    between atoms: C_6  and  N_7
REMARK                            x       y       z     vdW  Elec       q    Type
REMARK                         _______ _______ _______ _____ _____    ______ ____
ROOT
ATOM      1  N   UNL     1       1.392   9.292  19.024  0.00  0.00    +0.000 N 
ATOM      2  C   UNL     1       2.022   9.506  17.826  0.00  0.00    +0.000 A 
ATOM      3  N   UNL     1       2.775   8.489  17.466  0.00  0.00    +0.000 NA
ATOM      4  C   UNL     1       2.644   7.557  18.474  0.00  0.00    +0.000 A 
ATOM      5  C   UNL     1       3.264   6.299  18.705  0.00  0.00    +0.000 A 
ATOM      6  N   UNL     1       4.250   5.717  17.935  0.00  0.00    +0.000 N 
ATOM      7  C   UNL     1       4.837   4.431  18.323  0.00  0.00    +0.000 C 
ATOM      8  C   UNL     1       6.369   4.519  18.218  0.00  0.00    +0.000 C 
ATOM      9  O   UNL     1       6.788   4.931  16.905  0.00  0.00    +0.000 OA
ATOM     10  C   UNL     1       6.236   6.223  16.591  0.00  0.00    +0.000 C 
ATOM     11  C   UNL     1       4.697   6.215  16.631  0.00  0.00    +0.000 C 
ATOM     12  N   UNL     1       2.873   5.649  19.849  0.00  0.00    +0.000 NA
ATOM     13  C   UNL     1       1.985   6.221  20.682  0.00  0.00    +0.000 A 
ATOM     14  N   UNL     1       1.388   7.418  20.577  0.00  0.00    +0.000 NA
ATOM     15  C   UNL     1       1.761   8.031  19.440  0.00  0.00    +0.000 A 
ENDROOT
BRANCH   1  16
ATOM     16  C   UNL     1       0.644  10.250  19.841  0.00  0.00    +0.000 C 
BRANCH  16  18
ATOM     17  N   UNL     1      -1.564  11.556  19.875  0.00  0.00    +0.000 N 
ATOM     18  C   UNL     1      -0.714  10.613  19.313  0.00  0.00    +0.000 A 
ATOM     19  N   UNL     1      -1.280  10.090  18.241  0.00  0.00    +0.000 NA
ATOM     20  C   UNL     1      -2.505  10.670  18.113  0.00  0.00    +0.000 A 
ATOM     21  C   UNL     1      -3.478  10.469  17.124  0.00  0.00    +0.000 A 
ATOM     22  C   UNL     1      -4.690  11.156  17.230  0.00  0.00    +0.000 A 
ATOM     23  C   UNL     1      -4.924  12.026  18.297  0.00  0.00    +0.000 A 
ATOM     24  C   UNL     1      -3.949  12.254  19.278  0.00  0.00    +0.000 A 
ATOM     25  C   UNL     1      -2.738  11.562  19.148  0.00  0.00    +0.000 A 
BRANCH  17  26
ATOM     26  C   UNL     1      -1.284  12.479  20.968  0.00  0.00    +0.000 C 
BRANCH  26  28
ATOM     27  C   UNL     1      -1.196  11.002  23.003  0.00  0.00    +0.000 C 
ATOM     28  C   UNL     1      -1.788  11.969  22.285  0.00  0.00    +0.000 C 
ENDBRANCH  26  28
ENDBRANCH  17  26
ENDBRANCH  16  18
ENDBRANCH   1  16
TORSDOF 4
ENDMDL
MODEL 5
REMARK VINA RESULT:      -7.4      2.658      8.030
REMARK  Name = 
REMARK  4 active torsions:
REMARK  status: ('A' for Active; 'I' for Inactive)
REMARK    1  A    between atoms: C_2  and  C_3
REMARK    2  A    between atoms: C_3  and  N_4
REMARK    3  A    between atoms: C_5  and  C_6
REMARK    4  A    between atoms: C_6  and  N_7
REMARK                            x       y       z     vdW  Elec       q    Type
REMARK                         _______ _______ _______ _____ _____    ______ ____
ROOT
ATOM      1  N   UNL     1       1.601   8.796  19.362  0.00  0.00    +0.000 N 
ATOM      2  C   UNL     1       1.239   8.889  18.043  0.00  0.00    +0.000 A 
ATOM      3  N   UNL     1       0.225   9.706  17.857  0.00  0.00    +0.000 NA
ATOM      4  C   UNL     1      -0.106  10.175  19.111  0.00  0.00    +0.000 A 
ATOM      5  C   UNL     1      -1.153  11.016  19.577  0.00  0.00    +0.000 A 
ATOM      6  N   UNL     1      -2.180  11.543  18.819  0.00  0.00    +0.000 N 
ATOM      7  C   UNL     1      -3.226  12.356  19.445  0.00  0.00    +0.000 C 
ATOM      8  C   UNL     1      -4.603  11.884  18.948  0.00  0.00    +0.000 C 
ATOM      9  O   UNL     1      -4.685  11.907  17.512  0.00  0.00    +0.000 OA
ATOM     10  C   UNL     1      -3.679  11.050  16.944  0.00  0.00    +0.000 C 
ATOM     11  C   UNL     1      -2.259  11.479  17.357  0.00  0.00    +0.000 C 
ATOM     12  N   UNL     1      -1.161  11.258  20.927  0.00  0.00    +0.000 NA
ATOM     13  C   UNL     1      -0.236  10.689  21.721  0.00  0.00    +0.000 A 
ATOM     14  N   UNL     1       0.753   9.846  21.386  0.00  0.00    +0.000 NA
ATOM     15  C   UNL     1       0.762   9.639  20.058  0.00  0.00    +0.000 A 
ENDROOT
BRANCH   1  16
ATOM     16  C   UNL     1       2.533   7.852  19.983  0.00  0.00    +0.000 C 
BRANCH  16  18
ATOM     17  N   UNL     1       2.944   5.809  18.486  0.00  0.00    +0.000 N 
ATOM     18  C   UNL     1       2.347   6.416  19.582  0.00  0.00    +0.000 A 
ATOM     19  N   UNL     1       1.596   5.538  20.221  0.00  0.00    +0.000 NA
ATOM     20  C   UNL     1       1.682   4.365  19.535  0.00  0.00    +0.000 A 
ATOM     21  C   UNL     1       1.087   3.129  19.821  0.00  0.00    +0.000 A 
ATOM     22  C   UNL     1       1.291   2.069  18.934  0.00  0.00    +0.000 A 
ATOM     23  C   UNL     1       2.072   2.238  17.789  0.00  0.00    +0.000 A 
ATOM     24  C   UNL     1       2.693   3.462  17.505  0.00  0.00    +0.000 A 
ATOM     25  C   UNL     1       2.483   4.509  18.412  0.00  0.00    +0.000 A 
BRANCH  17  26
ATOM     26  C   UNL     1       3.964   6.358  17.601  0.00  0.00    +0.000 C 
BRANCH  26  28
ATOM     27  C   UNL     1       6.073   5.021  17.298  0.00  0.00    +0.000 C 
ATOM     28  C   UNL     1       5.345   5.917  17.983  0.00  0.00    +0.000 C 
ENDBRANCH  26  28
ENDBRANCH  17  26
ENDBRANCH  16  18
ENDBRANCH   1  16
TORSDOF 4
ENDMDL
MODEL 6
REMARK VINA RESULT:      -7.4      3.609      8.367
REMARK  Name = 
REMARK  4 active torsions:
REMARK  status: ('A' for Active; 'I' for Inactive)
REMARK    1  A    between atoms: C_2  and  C_3
REMARK    2  A    between atoms: C_3  and  N_4
REMARK    3  A    between atoms: C_5  and  C_6
REMARK    4  A    between atoms: C_6  and  N_7
REMARK                            x       y       z     vdW  Elec       q    Type
REMARK                         _______ _______ _______ _____ _____    ______ ____
ROOT
ATOM      1  N   UNL     1       3.675   4.893  19.523  0.00  0.00    +0.000 N 
ATOM      2  C   UNL     1       2.805   4.771  20.574  0.00  0.00    +0.000 A 
ATOM      3  N   UNL     1       2.019   5.818  20.699  0.00  0.00    +0.000 NA
ATOM      4  C   UNL     1       2.386   6.679  19.687  0.00  0.00    +0.000 A 
ATOM      5  C   UNL     1       1.971   7.995  19.346  0.00  0.00    +0.000 A 
ATOM      6  N   UNL     1       1.075   8.779  20.047  0.00  0.00    +0.000 N 
ATOM      7  C   UNL     1       0.777  10.144  19.605  0.00  0.00    +0.000 C 
ATOM      8  C   UNL     1       0.831  11.092  20.815  0.00  0.00    +0.000 C 
ATOM      9  O   UNL     1      -0.047  10.660  21.868  0.00  0.00    +0.000 OA
ATOM     10  C   UNL     1       0.319   9.340  22.309  0.00  0.00    +0.000 C 
ATOM     11  C   UNL     1       0.251   8.312  21.164  0.00  0.00    +0.000 C 
ATOM     12  N   UNL     1       2.584   8.543  18.248  0.00  0.00    +0.000 NA
ATOM     13  C   UNL     1       3.533   7.854  17.590  0.00  0.00    +0.000 A 
ATOM     14  N   UNL     1       4.026   6.637  17.863  0.00  0.00    +0.000 NA
ATOM     15  C   UNL     1       3.399   6.103  18.925  0.00  0.00    +0.000 A 
ENDROOT
BRANCH   1  16
ATOM     16  C   UNL     1       4.821   4.044  19.189  0.00  0.00    +0.000 C 
BRANCH  16  18
ATOM     17  N   UNL     1       6.489   4.602  17.321  0.00  0.00    +0.000 N 
ATOM     18  C   UNL     1       5.266   4.110  17.755  0.00  0.00    +0.000 A 
ATOM     19  N   UNL     1       4.557   3.704  16.718  0.00  0.00    +0.000 NA
ATOM     20  C   UNL     1       5.302   3.949  15.605  0.00  0.00    +0.000 A 
ATOM     21  C   UNL     1       5.001   3.679  14.263  0.00  0.00    +0.000 A 
ATOM     22  C   UNL     1       5.917   4.066  13.282  0.00  0.00    +0.000 A 
ATOM     23  C   UNL     1       7.107   4.708  13.632  0.00  0.00    +0.000 A 
ATOM     24  C   UNL     1       7.431   4.961  14.972  0.00  0.00    +0.000 A 
ATOM     25  C   UNL     1       6.503   4.556  15.940  0.00  0.00    +0.000 A 
BRANCH  17  26
ATOM     26  C   UNL     1       7.632   5.007  18.129  0.00  0.00    +0.000 C 
BRANCH  26  28
ATOM     27  C   UNL     1       7.687   7.478  17.660  0.00  0.00    +0.000 C 
ATOM     28  C   UNL     1       7.568   6.454  18.519  0.00  0.00    +0.000 C 
ENDBRANCH  26  28
ENDBRANCH  17  26
ENDBRANCH  16  18
ENDBRANCH   1  16
TORSDOF 4
ENDMDL
MODEL 7
REMARK VINA RESULT:      -7.3      3.079      8.321
REMARK  Name = 
REMARK  4 active torsions:
REMARK  status: ('A' for Active; 'I' for Inactive)
REMARK    1  A    between atoms: C_2  and  C_3
REMARK    2  A    between atoms: C_3  and  N_4
REMARK    3  A    between atoms: C_5  and  C_6
REMARK    4  A    between atoms: C_6  and  N_7
REMARK                            x       y       z     vdW  Elec       q    Type
REMARK                         _______ _______ _______ _____ _____    ______ ____
ROOT
ATOM      1  N   UNL     1       2.190   7.749  19.297  0.00  0.00    +0.000 N 
ATOM      2  C   UNL     1       1.925   8.256  18.052  0.00  0.00    +0.000 A 
ATOM      3  N   UNL     1       1.091   9.272  18.090  0.00  0.00    +0.000 NA
ATOM      4  C   UNL     1       0.781   9.446  19.423  0.00  0.00    +0.000 A 
ATOM      5  C   UNL     1      -0.119  10.316  20.095  0.00  0.00    +0.000 A 
ATOM      6  N   UNL     1      -0.988  11.212  19.503  0.00  0.00    +0.000 N 
ATOM      7  C   UNL     1      -1.901  12.014  20.323  0.00  0.00    +0.000 C 
ATOM      8  C   UNL     1      -3.311  11.963  19.710  0.00  0.00    +0.000 C 
ATOM      9  O   UNL     1      -3.308  12.383  18.334  0.00  0.00    +0.000 OA
ATOM     10  C   UNL     1      -2.444  11.531  17.559  0.00  0.00    +0.000 C 
ATOM     11  C   UNL     1      -0.995  11.555  18.079  0.00  0.00    +0.000 C 
ATOM     12  N   UNL     1      -0.158  10.188  21.460  0.00  0.00    +0.000 NA
ATOM     13  C   UNL     1       0.601   9.262  22.074  0.00  0.00    +0.000 A 
ATOM     14  N   UNL     1       1.436   8.366  21.526  0.00  0.00    +0.000 NA
ATOM     15  C   UNL     1       1.482   8.521  20.192  0.00  0.00    +0.000 A 
ENDROOT
BRANCH   1  16
ATOM     16  C   UNL     1       2.898   6.514  19.643  0.00  0.00    +0.000 C 
BRANCH  16  18
ATOM     17  N   UNL     1       3.442   4.958  17.677  0.00  0.00    +0.000 N 
ATOM     18  C   UNL     1       3.789   5.967  18.564  0.00  0.00    +0.000 A 
ATOM     19  N   UNL     1       5.018   6.378  18.311  0.00  0.00    +0.000 NA
ATOM     20  C   UNL     1       5.485   5.625  17.276  0.00  0.00    +0.000 A 
ATOM     21  C   UNL     1       6.725   5.690  16.626  0.00  0.00    +0.000 A 
ATOM     22  C   UNL     1       6.993   4.773  15.607  0.00  0.00    +0.000 A 
ATOM     23  C   UNL     1       6.045   3.814  15.243  0.00  0.00    +0.000 A 
ATOM     24  C   UNL     1       4.792   3.756  15.869  0.00  0.00    +0.000 A 
ATOM     25  C   UNL     1       4.540   4.690  16.882  0.00  0.00    +0.000 A 
BRANCH  17  26
ATOM     26  C   UNL     1       2.140   4.330  17.496  0.00  0.00    +0.000 C 
BRANCH  26  28
ATOM     27  C   UNL     1       1.116   3.108  19.443  0.00  0.00    +0.000 C 
ATOM     28  C   UNL     1       1.952   3.142  18.393  0.00  0.00    +0.000 C 
ENDBRANCH  26  28
ENDBRANCH  17  26
ENDBRANCH  16  18
ENDBRANCH   1  16
TORSDOF 4
ENDMDL
MODEL 8
REMARK VINA RESULT:      -7.3      1.211      1.377
REMARK  Name = 
REMARK  4 active torsions:
REMARK  status: ('A' for Active; 'I' for Inactive)
REMARK    1  A    between atoms: C_2  and  C_3
REMARK    2  A    between atoms: C_3  and  N_4
REMARK    3  A    between atoms: C_5  and  C_6
REMARK    4  A    between atoms: C_6  and  N_7
REMARK                            x       y       z     vdW  Elec       q    Type
REMARK                         _______ _______ _______ _____ _____    ______ ____
ROOT
ATOM      1  N   UNL     1       0.789  10.212  20.540  0.00  0.00    +0.000 N 
ATOM      2  C   UNL     1       0.557   9.329  21.562  0.00  0.00    +0.000 A 
ATOM      3  N   UNL     1       1.006   8.122  21.294  0.00  0.00    +0.000 NA
ATOM      4  C   UNL     1       1.557   8.204  20.033  0.00  0.00    +0.000 A 
ATOM      5  C   UNL     1       2.124   7.230  19.167  0.00  0.00    +0.000 A 
ATOM      6  N   UNL     1       2.201   5.871  19.400  0.00  0.00    +0.000 N 
ATOM      7  C   UNL     1       2.769   4.974  18.390  0.00  0.00    +0.000 C 
ATOM      8  C   UNL     1       1.845   3.756  18.215  0.00  0.00    +0.000 C 
ATOM      9  O   UNL     1       1.609   3.085  19.465  0.00  0.00    +0.000 OA
ATOM     10  C   UNL     1       0.998   3.988  20.405  0.00  0.00    +0.000 C 
ATOM     11  C   UNL     1       1.880   5.221  20.673  0.00  0.00    +0.000 C 
ATOM     12  N   UNL     1       2.571   7.702  17.958  0.00  0.00    +0.000 NA
ATOM     13  C   UNL     1       2.430   9.003  17.646  0.00  0.00    +0.000 A 
ATOM     14  N   UNL     1       1.866   9.981  18.370  0.00  0.00    +0.000 NA
ATOM     15  C   UNL     1       1.456   9.509  19.560  0.00  0.00    +0.000 A 
ENDROOT
BRANCH   1  16
ATOM     16  C   UNL     1       0.269  11.572  20.379  0.00  0.00    +0.000 C 
BRANCH  16  18
ATOM     17  N   UNL     1      -2.195  12.285  20.379  0.00  0.00    +0.000 N 
ATOM     18  C   UNL     1      -1.108  11.661  19.784  0.00  0.00    +0.000 A 
ATOM     19  N   UNL     1      -1.466  11.163  18.615  0.00  0.00    +0.000 NA
ATOM     20  C   UNL     1      -2.790  11.440  18.453  0.00  0.00    +0.000 A 
ATOM     21  C   UNL     1      -3.628  11.142  17.370  0.00  0.00    +0.000 A 
ATOM     22  C   UNL     1      -4.977  11.494  17.453  0.00  0.00    +0.000 A 
ATOM     23  C   UNL     1      -5.478  12.131  18.590  0.00  0.00    +0.000 A 
ATOM     24  C   UNL     1      -4.645  12.457  19.669  0.00  0.00    +0.000 A 
ATOM     25  C   UNL     1      -3.294  12.103  19.561  0.00  0.00    +0.000 A 
BRANCH  17  26
ATOM     26  C   UNL     1      -2.214  13.095  21.591  0.00  0.00    +0.000 C 
BRANCH  26  28
ATOM     27  C   UNL     1      -3.442  12.332  23.650  0.00  0.00    +0.000 C 
ATOM     28  C   UNL     1      -2.384  12.263  22.827  0.00  0.00    +0.000 C 
ENDBRANCH  26  28
ENDBRANCH  17  26
ENDBRANCH  16  18
ENDBRANCH   1  16
TORSDOF 4
ENDMDL
MODEL 9
REMARK VINA RESULT:      -7.3      1.024      1.407
REMARK  Name = 
REMARK  4 active torsions:
REMARK  status: ('A' for Active; 'I' for Inactive)
REMARK    1  A    between atoms: C_2  and  C_3
REMARK    2  A    between atoms: C_3  and  N_4
REMARK    3  A    between atoms: C_5  and  C_6
REMARK    4  A    between atoms: C_6  and  N_7
REMARK                            x       y       z     vdW  Elec       q    Type
REMARK                         _______ _______ _______ _____ _____    ______ ____
ROOT
ATOM      1  N   UNL     1       1.490   9.229  19.302  0.00  0.00    +0.000 N 
ATOM      2  C   UNL     1       1.003   8.715  20.475  0.00  0.00    +0.000 A 
ATOM      3  N   UNL     1       1.415   7.486  20.695  0.00  0.00    +0.000 NA
ATOM      4  C   UNL     1       2.210   7.164  19.614  0.00  0.00    +0.000 A 
ATOM      5  C   UNL     1       2.872   5.966  19.231  0.00  0.00    +0.000 A 
ATOM      6  N   UNL     1       2.812   4.752  19.885  0.00  0.00    +0.000 N 
ATOM      7  C   UNL     1       3.508   3.581  19.344  0.00  0.00    +0.000 C 
ATOM      8  C   UNL     1       2.560   2.370  19.367  0.00  0.00    +0.000 C 
ATOM      9  O   UNL     1       2.037   2.129  20.685  0.00  0.00    +0.000 OA
ATOM     10  C   UNL     1       1.313   3.283  21.149  0.00  0.00    +0.000 C 
ATOM     11  C   UNL     1       2.203   4.538  21.200  0.00  0.00    +0.000 C 
ATOM     12  N   UNL     1       3.579   6.031  18.057  0.00  0.00    +0.000 NA
ATOM     13  C   UNL     1       3.588   7.166  17.335  0.00  0.00    +0.000 A 
ATOM     14  N   UNL     1       2.957   8.324  17.586  0.00  0.00    +0.000 NA
ATOM     15  C   UNL     1       2.290   8.253  18.750  0.00  0.00    +0.000 A 
ENDROOT
BRANCH   1  16
ATOM     16  C   UNL     1       1.103  10.468  18.623  0.00  0.00    +0.000 C 
BRANCH  16  18
ATOM     17  N   UNL     1      -1.065  11.716  19.192  0.00  0.00    +0.000 N 
ATOM     18  C   UNL     1      -0.378  10.708  18.531  0.00  0.00    +0.000 A 
ATOM     19  N   UNL     1      -1.221   9.996  17.807  0.00  0.00    +0.000 NA
ATOM     20  C   UNL     1      -2.461  10.521  18.008  0.00  0.00    +0.000 A 
ATOM     21  C   UNL     1      -3.686  10.134  17.447  0.00  0.00    +0.000 A 
ATOM     22  C   UNL     1      -4.845  10.805  17.845  0.00  0.00    +0.000 A 
ATOM     23  C   UNL     1      -4.782  11.841  18.780  0.00  0.00    +0.000 A 
ATOM     24  C   UNL     1      -3.561  12.254  19.329  0.00  0.00    +0.000 A 
ATOM     25  C   UNL     1      -2.410  11.574  18.909  0.00  0.00    +0.000 A 
BRANCH  17  26
ATOM     26  C   UNL     1      -0.514  12.819  19.970  0.00  0.00    +0.000 C 
BRANCH  26  28
ATOM     27  C   UNL     1       0.746  14.931  19.443  0.00  0.00    +0.000 C 
ATOM     28  C   UNL     1      -0.159  13.997  19.113  0.00  0.00    +0.000 C 
ENDBRANCH  26  28
ENDBRANCH  17  26
ENDBRANCH  16  18
ENDBRANCH   1  16
TORSDOF 4
ENDMDL
