MODEL 1
REMARK VINA RESULT:      -8.1      0.000      0.000
REMARK  Name = 
REMARK  6 active torsions:
REMARK  status: ('A' for Active; 'I' for Inactive)
REMARK    1  A    between atoms: C_1  and  O_2
REMARK    2  A    between atoms: O_2  and  C_3
REMARK    3  A    between atoms: C_5  and  C_6
REMARK    4  A    between atoms: N_10  and  C_11
REMARK    5  A    between atoms: C_14  and  C_15
REMARK    6  A    between atoms: C_31  and  O_32
REMARK                            x       y       z     vdW  Elec       q    Type
REMARK                         _______ _______ _______ _____ _____    ______ ____
ROOT
ATOM      1  C   UNL     1       2.499   5.697  20.023  0.00  0.00    +0.000 C 
ATOM      2  C   UNL     1       1.981   6.932  19.956  0.00  0.00    +0.000 C 
ATOM      3  S   UNL     1       0.933   7.648  21.153  0.00  0.00    +0.000 S 
ATOM      4  C   UNL     1       0.938   9.212  20.352  0.00  0.00    +0.000 C 
ATOM      5  N   UNL     1       0.373  10.269  20.835  0.00  0.00    +0.000 NA
ATOM      6  N   UNL     1       1.634   9.099  19.187  0.00  0.00    +0.000 N 
ATOM      7  C   UNL     1       2.227   7.918  18.872  0.00  0.00    +0.000 C 
ATOM      8  O   UNL     1       2.855   7.736  17.845  0.00  0.00    +0.000 OA
ATOM      9  H   UNL     1       1.744   9.886  18.566  0.00  0.00    +0.000 HD
ENDROOT
BRANCH   1  12
ATOM     10  C   UNL     1       5.681   4.597  18.249  0.00  0.00    +0.000 A 
ATOM     11  C   UNL     1       4.808   5.177  19.190  0.00  0.00    +0.000 A 
ATOM     12  C   UNL     1       3.415   5.117  19.027  0.00  0.00    +0.000 A 
ATOM     13  C   UNL     1       2.894   4.495  17.888  0.00  0.00    +0.000 A 
ATOM     14  C   UNL     1       3.747   3.917  16.948  0.00  0.00    +0.000 A 
ATOM     15  C   UNL     1       5.131   3.961  17.129  0.00  0.00    +0.000 A 
BRANCH  10  17
ATOM     16  C   UNL     1       7.595   6.017  18.414  0.00  0.00    +0.000 C 
ATOM     17  O   UNL     1       7.011   4.726  18.565  0.00  0.00    +0.000 OA
ENDBRANCH  10  17
BRANCH  15  18
ATOM     18  O   UNL     1       5.916   3.356  16.186  0.00  0.00    +0.000 OA
ATOM     19  H   UNL     1       5.824   2.393  16.261  0.00  0.00    +0.000 HD
ENDBRANCH  15  18
ENDBRANCH   1  12
BRANCH   5  20
ATOM     20  C   UNL     1       0.527  11.433  20.138  0.00  0.00    +0.000 A 
ATOM     21  N   UNL     1       0.022  11.751  18.956  0.00  0.00    +0.000 NA
ATOM     22  N   UNL     1       0.423  12.975  18.483  0.00  0.00    +0.000 NA
ATOM     23  C   UNL     1       1.223  13.603  19.318  0.00  0.00    +0.000 A 
ATOM     24  S   UNL     1       1.510  12.708  20.773  0.00  0.00    +0.000 S 
BRANCH  23  25
ATOM     25  C   UNL     1       1.842  14.970  19.052  0.00  0.00    +0.000 C 
ATOM     26  C   UNL     1       2.881  14.892  17.887  0.00  0.00    +0.000 C 
ATOM     27  C   UNL     1       3.515  16.269  17.613  0.00  0.00    +0.000 C 
ATOM     28  C   UNL     1       2.411  17.266  17.227  0.00  0.00    +0.000 C 
ATOM     29  C   UNL     1       1.388  17.381  18.367  0.00  0.00    +0.000 C 
ATOM     30  C   UNL     1       2.102  17.868  19.639  0.00  0.00    +0.000 C 
ATOM     31  C   UNL     1       3.212  16.880  20.034  0.00  0.00    +0.000 C 
ATOM     32  C   UNL     1       4.222  16.765  18.884  0.00  0.00    +0.000 C 
ATOM     33  C   UNL     1       2.587  15.500  20.306  0.00  0.00    +0.000 C 
ATOM     34  C   UNL     1       0.760  16.000  18.634  0.00  0.00    +0.000 C 
ENDBRANCH  23  25
ENDBRANCH   5  20
TORSDOF 5
ENDMDL
MODEL 2
REMARK VINA RESULT:      -8.1      0.120      1.359
REMARK  Name = 
REMARK  6 active torsions:
REMARK  status: ('A' for Active; 'I' for Inactive)
REMARK    1  A    between atoms: C_1  and  O_2
REMARK    2  A    between atoms: O_2  and  C_3
REMARK    3  A    between atoms: C_5  and  C_6
REMARK    4  A    between atoms: N_10  and  C_11
REMARK    5  A    between atoms: C_14  and  C_15
REMARK    6  A    between atoms: C_31  and  O_32
REMARK                            x       y       z     vdW  Elec       q    Type
REMARK                         _______ _______ _______ _____ _____    ______ ____
ROOT
ATOM      1  C   UNL     1       2.588   5.693  20.003  0.00  0.00    +0.000 C 
ATOM      2  C   UNL     1       2.050   6.920  19.939  0.00  0.00    +0.000 C 
ATOM      3  S   UNL     1       0.981   7.612  21.132  0.00  0.00    +0.000 S 
ATOM      4  C   UNL     1       0.966   9.180  20.340  0.00  0.00    +0.000 C 
ATOM      5  N   UNL     1       0.379  10.225  20.824  0.00  0.00    +0.000 NA
ATOM      6  N   UNL     1       1.673   9.085  19.180  0.00  0.00    +0.000 N 
ATOM      7  C   UNL     1       2.288   7.916  18.862  0.00  0.00    +0.000 C 
ATOM      8  O   UNL     1       2.927   7.751  17.840  0.00  0.00    +0.000 OA
ATOM      9  H   UNL     1       1.774   9.878  18.563  0.00  0.00    +0.000 HD
ENDROOT
BRANCH   1  12
ATOM     10  C   UNL     1       5.801   4.627  18.265  0.00  0.00    +0.000 A 
ATOM     11  C   UNL     1       4.912   5.187  19.203  0.00  0.00    +0.000 A 
ATOM     12  C   UNL     1       3.522   5.135  19.011  0.00  0.00    +0.000 A 
ATOM     13  C   UNL     1       3.021   4.542  17.849  0.00  0.00    +0.000 A 
ATOM     14  C   UNL     1       3.890   3.984  16.911  0.00  0.00    +0.000 A 
ATOM     15  C   UNL     1       5.271   4.019  17.120  0.00  0.00    +0.000 A 
BRANCH  10  17
ATOM     16  C   UNL     1       7.637   6.062  18.790  0.00  0.00    +0.000 C 
ATOM     17  O   UNL     1       7.125   4.745  18.609  0.00  0.00    +0.000 OA
ENDBRANCH  10  17
BRANCH  15  18
ATOM     18  O   UNL     1       6.072   3.435  16.178  0.00  0.00    +0.000 OA
ATOM     19  H   UNL     1       6.451   2.618  16.541  0.00  0.00    +0.000 HD
ENDBRANCH  15  18
ENDBRANCH   1  12
BRANCH   5  20
ATOM     20  C   UNL     1       0.520  11.396  20.135  0.00  0.00    +0.000 A 
ATOM     21  N   UNL     1       0.001  11.720  18.961  0.00  0.00    +0.000 NA
ATOM     22  N   UNL     1       0.390  12.950  18.494  0.00  0.00    +0.000 NA
ATOM     23  C   UNL     1       1.194  13.576  19.326  0.00  0.00    +0.000 A 
ATOM     24  S   UNL     1       1.502  12.671  20.770  0.00  0.00    +0.000 S 
BRANCH  23  25
ATOM     25  C   UNL     1       1.802  14.949  19.063  0.00  0.00    +0.000 C 
ATOM     26  C   UNL     1       2.460  15.522  20.359  0.00  0.00    +0.000 C 
ATOM     27  C   UNL     1       3.075  16.911  20.105  0.00  0.00    +0.000 C 
ATOM     28  C   UNL     1       4.149  16.797  19.011  0.00  0.00    +0.000 C 
ATOM     29  C   UNL     1       3.523  16.258  17.717  0.00  0.00    +0.000 C 
ATOM     30  C   UNL     1       2.416  17.220  17.254  0.00  0.00    +0.000 C 
ATOM     31  C   UNL     1       1.336  17.347  18.340  0.00  0.00    +0.000 C 
ATOM     32  C   UNL     1       1.975  17.875  19.633  0.00  0.00    +0.000 C 
ATOM     33  C   UNL     1       0.719  15.961  18.604  0.00  0.00    +0.000 C 
ATOM     34  C   UNL     1       2.911  14.870  17.982  0.00  0.00    +0.000 C 
ENDBRANCH  23  25
ENDBRANCH   5  20
TORSDOF 5
ENDMDL
MODEL 3
REMARK VINA RESULT:      -8.1      0.115      1.312
REMARK  Name = 
REMARK  6 active torsions:
REMARK  status: ('A' for Active; 'I' for Inactive)
REMARK    1  A    between atoms: C_1  and  O_2
REMARK    2  A    between atoms: O_2  and  C_3
REMARK    3  A    between atoms: C_5  and  C_6
REMARK    4  A    between atoms: N_10  and  C_11
REMARK    5  A    between atoms: C_14  and  C_15
REMARK    6  A    between atoms: C_31  and  O_32
REMARK                            x       y       z     vdW  Elec       q    Type
REMARK                         _______ _______ _______ _____ _____    ______ ____
ROOT
ATOM      1  C   UNL     1       2.465   5.773  20.088  0.00  0.00    +0.000 C 
ATOM      2  C   UNL     1       1.939   7.004  20.012  0.00  0.00    +0.000 C 
ATOM      3  S   UNL     1       0.873   7.716  21.195  0.00  0.00    +0.000 S 
ATOM      4  C   UNL     1       0.876   9.279  20.390  0.00  0.00    +0.000 C 
ATOM      5  N   UNL     1       0.299  10.333  20.863  0.00  0.00    +0.000 NA
ATOM      6  N   UNL     1       1.587   9.167  19.234  0.00  0.00    +0.000 N 
ATOM      7  C   UNL     1       2.191   7.989  18.928  0.00  0.00    +0.000 C 
ATOM      8  O   UNL     1       2.832   7.809  17.909  0.00  0.00    +0.000 OA
ATOM      9  H   UNL     1       1.698   9.954  18.611  0.00  0.00    +0.000 HD
ENDROOT
BRANCH   1  12
ATOM     10  C   UNL     1       5.675   4.693  18.353  0.00  0.00    +0.000 A 
ATOM     11  C   UNL     1       4.788   5.269  19.283  0.00  0.00    +0.000 A 
ATOM     12  C   UNL     1       3.396   5.197  19.105  0.00  0.00    +0.000 A 
ATOM     13  C   UNL     1       2.893   4.566  17.963  0.00  0.00    +0.000 A 
ATOM     14  C   UNL     1       3.760   3.991  17.035  0.00  0.00    +0.000 A 
ATOM     15  C   UNL     1       5.142   4.047  17.230  0.00  0.00    +0.000 A 
BRANCH  10  17
ATOM     16  C   UNL     1       7.616   6.084  18.386  0.00  0.00    +0.000 C 
ATOM     17  O   UNL     1       7.000   4.835  18.683  0.00  0.00    +0.000 OA
ENDBRANCH  10  17
BRANCH  15  18
ATOM     18  O   UNL     1       5.942   3.445  16.298  0.00  0.00    +0.000 OA
ATOM     19  H   UNL     1       5.646   2.530  16.164  0.00  0.00    +0.000 HD
ENDBRANCH  15  18
ENDBRANCH   1  12
BRANCH   5  20
ATOM     20  C   UNL     1       0.454  11.497  20.165  0.00  0.00    +0.000 A 
ATOM     21  N   UNL     1      -0.070  11.821  18.993  0.00  0.00    +0.000 NA
ATOM     22  N   UNL     1       0.336  13.042  18.514  0.00  0.00    +0.000 NA
ATOM     23  C   UNL     1       1.159  13.659  19.335  0.00  0.00    +0.000 A 
ATOM     24  S   UNL     1       1.463  12.759  20.783  0.00  0.00    +0.000 S 
BRANCH  23  25
ATOM     25  C   UNL     1       1.788  15.019  19.058  0.00  0.00    +0.000 C 
ATOM     26  C   UNL     1       0.712  16.041  18.569  0.00  0.00    +0.000 C 
ATOM     27  C   UNL     1       1.341  17.418  18.283  0.00  0.00    +0.000 C 
ATOM     28  C   UNL     1       1.988  17.956  19.569  0.00  0.00    +0.000 C 
ATOM     29  C   UNL     1       3.069  16.981  20.058  0.00  0.00    +0.000 C 
ATOM     30  C   UNL     1       4.141  16.827  18.967  0.00  0.00    +0.000 C 
ATOM     31  C   UNL     1       3.506  16.292  17.672  0.00  0.00    +0.000 C 
ATOM     32  C   UNL     1       2.420  17.269  17.199  0.00  0.00    +0.000 C 
ATOM     33  C   UNL     1       2.872  14.918  17.951  0.00  0.00    +0.000 C 
ATOM     34  C   UNL     1       2.431  15.607  20.341  0.00  0.00    +0.000 C 
ENDBRANCH  23  25
ENDBRANCH   5  20
TORSDOF 5
ENDMDL
MODEL 4
REMARK VINA RESULT:      -7.9      3.360      4.289
REMARK  Name = 
REMARK  6 active torsions:
REMARK  status: ('A' for Active; 'I' for Inactive)
REMARK    1  A    between atoms: C_1  and  O_2
REMARK    2  A    between atoms: O_2  and  C_3
REMARK    3  A    between atoms: C_5  and  C_6
REMARK    4  A    between atoms: N_10  and  C_11
REMARK    5  A    between atoms: C_14  and  C_15
REMARK    6  A    between atoms: C_31  and  O_32
REMARK                            x       y       z     vdW  Elec       q    Type
REMARK                         _______ _______ _______ _____ _____    ______ ____
ROOT
ATOM      1  C   UNL     1       4.330   4.526  18.705  0.00  0.00    +0.000 C 
ATOM      2  C   UNL     1       3.419   5.398  19.163  0.00  0.00    +0.000 C 
ATOM      3  S   UNL     1       2.436   5.170  20.586  0.00  0.00    +0.000 S 
ATOM      4  C   UNL     1       1.755   6.787  20.485  0.00  0.00    +0.000 C 
ATOM      5  N   UNL     1       0.966   7.291  21.375  0.00  0.00    +0.000 NA
ATOM      6  N   UNL     1       2.216   7.379  19.348  0.00  0.00    +0.000 N 
ATOM      7  C   UNL     1       3.104   6.720  18.560  0.00  0.00    +0.000 C 
ATOM      8  O   UNL     1       3.551   7.178  17.525  0.00  0.00    +0.000 OA
ATOM      9  H   UNL     1       1.930   8.313  19.094  0.00  0.00    +0.000 HD
ENDROOT
BRANCH   1  12
ATOM     10  C   UNL     1       7.004   5.935  16.393  0.00  0.00    +0.000 A 
ATOM     11  C   UNL     1       6.172   5.744  17.513  0.00  0.00    +0.000 A 
ATOM     12  C   UNL     1       5.183   4.747  17.526  0.00  0.00    +0.000 A 
ATOM     13  C   UNL     1       5.008   3.954  16.389  0.00  0.00    +0.000 A 
ATOM     14  C   UNL     1       5.826   4.132  15.273  0.00  0.00    +0.000 A 
ATOM     15  C   UNL     1       6.822   5.110  15.276  0.00  0.00    +0.000 A 
BRANCH  10  17
ATOM     16  C   UNL     1       7.681   7.903  17.565  0.00  0.00    +0.000 C 
ATOM     17  O   UNL     1       7.930   6.937  16.549  0.00  0.00    +0.000 OA
ENDBRANCH  10  17
BRANCH  15  18
ATOM     18  O   UNL     1       7.609   5.222  14.162  0.00  0.00    +0.000 OA
ATOM     19  H   UNL     1       8.539   5.281  14.431  0.00  0.00    +0.000 HD
ENDBRANCH  15  18
ENDBRANCH   1  12
BRANCH   5  20
ATOM     20  C   UNL     1       0.579   8.590  21.202  0.00  0.00    +0.000 A 
ATOM     21  N   UNL     1       1.009   9.457  20.299  0.00  0.00    +0.000 NA
ATOM     22  N   UNL     1       0.481  10.716  20.430  0.00  0.00    +0.000 NA
ATOM     23  C   UNL     1      -0.372  10.805  21.428  0.00  0.00    +0.000 A 
ATOM     24  S   UNL     1      -0.590   9.302  22.261  0.00  0.00    +0.000 S 
BRANCH  23  25
ATOM     25  C   UNL     1      -1.098  12.085  21.827  0.00  0.00    +0.000 C 
ATOM     26  C   UNL     1      -0.094  13.274  21.964  0.00  0.00    +0.000 C 
ATOM     27  C   UNL     1      -0.819  14.571  22.369  0.00  0.00    +0.000 C 
ATOM     28  C   UNL     1      -1.864  14.924  21.299  0.00  0.00    +0.000 C 
ATOM     29  C   UNL     1      -2.879  13.780  21.163  0.00  0.00    +0.000 C 
ATOM     30  C   UNL     1      -3.579  13.562  22.514  0.00  0.00    +0.000 C 
ATOM     31  C   UNL     1      -2.544  13.212  23.596  0.00  0.00    +0.000 C 
ATOM     32  C   UNL     1      -1.528  14.357  23.716  0.00  0.00    +0.000 C 
ATOM     33  C   UNL     1      -1.812  11.918  23.195  0.00  0.00    +0.000 C 
ATOM     34  C   UNL     1      -2.145  12.488  20.757  0.00  0.00    +0.000 C 
ENDBRANCH  23  25
ENDBRANCH   5  20
TORSDOF 5
ENDMDL
MODEL 5
REMARK VINA RESULT:      -7.8      4.382     11.085
REMARK  Name = 
REMARK  6 active torsions:
REMARK  status: ('A' for Active; 'I' for Inactive)
REMARK    1  A    between atoms: C_1  and  O_2
REMARK    2  A    between atoms: O_2  and  C_3
REMARK    3  A    between atoms: C_5  and  C_6
REMARK    4  A    between atoms: N_10  and  C_11
REMARK    5  A    between atoms: C_14  and  C_15
REMARK    6  A    between atoms: C_31  and  O_32
REMARK                            x       y       z     vdW  Elec       q    Type
REMARK                         _______ _______ _______ _____ _____    ______ ____
ROOT
ATOM      1  C   UNL     1      -0.661  14.210  20.711  0.00  0.00    +0.000 C 
ATOM      2  C   UNL     1      -0.244  13.006  20.292  0.00  0.00    +0.000 C 
ATOM      3  S   UNL     1       0.737  12.719  18.877  0.00  0.00    +0.000 S 
ATOM      4  C   UNL     1       0.910  11.007  19.234  0.00  0.00    +0.000 C 
ATOM      5  N   UNL     1       1.656  10.203  18.552  0.00  0.00    +0.000 NA
ATOM      6  N   UNL     1       0.153  10.715  20.328  0.00  0.00    +0.000 N 
ATOM      7  C   UNL     1      -0.515  11.710  20.967  0.00  0.00    +0.000 C 
ATOM      8  O   UNL     1      -1.220  11.526  21.942  0.00  0.00    +0.000 OA
ATOM      9  H   UNL     1       0.102   9.775  20.691  0.00  0.00    +0.000 HD
ENDROOT
BRANCH   1  12
ATOM     10  C   UNL     1      -1.602  14.950  24.323  0.00  0.00    +0.000 A 
ATOM     11  C   UNL     1      -0.839  14.699  23.166  0.00  0.00    +0.000 A 
ATOM     12  C   UNL     1      -1.454  14.444  21.929  0.00  0.00    +0.000 A 
ATOM     13  C   UNL     1      -2.850  14.410  21.862  0.00  0.00    +0.000 A 
ATOM     14  C   UNL     1      -3.617  14.656  23.000  0.00  0.00    +0.000 A 
ATOM     15  C   UNL     1      -2.998  14.932  24.222  0.00  0.00    +0.000 A 
BRANCH  10  17
ATOM     16  C   UNL     1      -0.572  16.562  25.754  0.00  0.00    +0.000 C 
ATOM     17  O   UNL     1      -0.850  15.200  25.445  0.00  0.00    +0.000 OA
ENDBRANCH  10  17
BRANCH  15  18
ATOM     18  O   UNL     1      -3.802  15.190  25.299  0.00  0.00    +0.000 OA
ATOM     19  H   UNL     1      -4.406  14.442  25.435  0.00  0.00    +0.000 HD
ENDBRANCH  15  18
ENDBRANCH   1  12
BRANCH   5  20
ATOM     20  C   UNL     1       1.754   8.914  18.996  0.00  0.00    +0.000 A 
ATOM     21  N   UNL     1       1.537   8.453  20.218  0.00  0.00    +0.000 NA
ATOM     22  N   UNL     1       1.793   7.113  20.367  0.00  0.00    +0.000 NA
ATOM     23  C   UNL     1       2.190   6.546  19.248  0.00  0.00    +0.000 A 
ATOM     24  S   UNL     1       2.246   7.654  17.917  0.00  0.00    +0.000 S 
BRANCH  23  25
ATOM     25  C   UNL     1       2.567   5.075  19.117  0.00  0.00    +0.000 C 
ATOM     26  C   UNL     1       4.113   4.908  18.970  0.00  0.00    +0.000 C 
ATOM     27  C   UNL     1       4.503   3.424  18.833  0.00  0.00    +0.000 C 
ATOM     28  C   UNL     1       4.038   2.661  20.084  0.00  0.00    +0.000 C 
ATOM     29  C   UNL     1       2.516   2.789  20.238  0.00  0.00    +0.000 C 
ATOM     30  C   UNL     1       1.831   2.202  18.992  0.00  0.00    +0.000 C 
ATOM     31  C   UNL     1       2.290   2.954  17.732  0.00  0.00    +0.000 C 
ATOM     32  C   UNL     1       3.815   2.830  17.594  0.00  0.00    +0.000 C 
ATOM     33  C   UNL     1       1.908   4.439  17.863  0.00  0.00    +0.000 C 
ATOM     34  C   UNL     1       2.136   4.275  20.373  0.00  0.00    +0.000 C 
ENDBRANCH  23  25
ENDBRANCH   5  20
TORSDOF 5
ENDMDL
MODEL 6
REMARK VINA RESULT:      -7.8      4.500     11.253
REMARK  Name = 
REMARK  6 active torsions:
REMARK  status: ('A' for Active; 'I' for Inactive)
REMARK    1  A    between atoms: C_1  and  O_2
REMARK    2  A    between atoms: O_2  and  C_3
REMARK    3  A    between atoms: C_5  and  C_6
REMARK    4  A    between atoms: N_10  and  C_11
REMARK    5  A    between atoms: C_14  and  C_15
REMARK    6  A    between atoms: C_31  and  O_32
REMARK                            x       y       z     vdW  Elec       q    Type
REMARK                         _______ _______ _______ _____ _____    ______ ____
ROOT
ATOM      1  C   UNL     1      -0.807  14.168  20.808  0.00  0.00    +0.000 C 
ATOM      2  C   UNL     1      -0.368  12.973  20.386  0.00  0.00    +0.000 C 
ATOM      3  S   UNL     1       0.625  12.707  18.977  0.00  0.00    +0.000 S 
ATOM      4  C   UNL     1       0.823  10.997  19.329  0.00  0.00    +0.000 C 
ATOM      5  N   UNL     1       1.586  10.207  18.648  0.00  0.00    +0.000 NA
ATOM      6  N   UNL     1       0.064  10.689  20.417  0.00  0.00    +0.000 N 
ATOM      7  C   UNL     1      -0.624  11.671  21.055  0.00  0.00    +0.000 C 
ATOM      8  O   UNL     1      -1.332  11.472  22.025  0.00  0.00    +0.000 OA
ATOM      9  H   UNL     1       0.024   9.746  20.776  0.00  0.00    +0.000 HD
ENDROOT
BRANCH   1  12
ATOM     10  C   UNL     1      -3.780  14.548  23.152  0.00  0.00    +0.000 A 
ATOM     11  C   UNL     1      -3.015  14.368  21.984  0.00  0.00    +0.000 A 
ATOM     12  C   UNL     1      -1.611  14.386  22.022  0.00  0.00    +0.000 A 
ATOM     13  C   UNL     1      -0.970  14.619  23.242  0.00  0.00    +0.000 A 
ATOM     14  C   UNL     1      -1.717  14.800  24.407  0.00  0.00    +0.000 A 
ATOM     15  C   UNL     1      -3.112  14.758  24.365  0.00  0.00    +0.000 A 
BRANCH  10  17
ATOM     16  C   UNL     1      -5.771  15.642  22.412  0.00  0.00    +0.000 C 
ATOM     17  O   UNL     1      -5.137  14.484  22.947  0.00  0.00    +0.000 OA
ENDBRANCH  10  17
BRANCH  15  18
ATOM     18  O   UNL     1      -3.790  14.918  25.543  0.00  0.00    +0.000 OA
ATOM     19  H   UNL     1      -3.904  15.866  25.721  0.00  0.00    +0.000 HD
ENDBRANCH  15  18
ENDBRANCH   1  12
BRANCH   5  20
ATOM     20  C   UNL     1       1.701   8.918  19.088  0.00  0.00    +0.000 A 
ATOM     21  N   UNL     1       1.548   8.459  20.320  0.00  0.00    +0.000 NA
ATOM     22  N   UNL     1       1.805   7.118  20.457  0.00  0.00    +0.000 NA
ATOM     23  C   UNL     1       2.137   6.548  19.319  0.00  0.00    +0.000 A 
ATOM     24  S   UNL     1       2.127   7.654  17.986  0.00  0.00    +0.000 S 
BRANCH  23  25
ATOM     25  C   UNL     1       2.499   5.075  19.169  0.00  0.00    +0.000 C 
ATOM     26  C   UNL     1       1.990   4.514  17.803  0.00  0.00    +0.000 C 
ATOM     27  C   UNL     1       2.349   3.024  17.644  0.00  0.00    +0.000 C 
ATOM     28  C   UNL     1       3.875   2.860  17.711  0.00  0.00    +0.000 C 
ATOM     29  C   UNL     1       4.398   3.382  19.057  0.00  0.00    +0.000 C 
ATOM     30  C   UNL     1       3.743   2.583  20.197  0.00  0.00    +0.000 C 
ATOM     31  C   UNL     1       2.215   2.736  20.139  0.00  0.00    +0.000 C 
ATOM     32  C   UNL     1       1.704   2.222  18.786  0.00  0.00    +0.000 C 
ATOM     33  C   UNL     1       1.849   4.223  20.293  0.00  0.00    +0.000 C 
ATOM     34  C   UNL     1       4.035   4.871  19.207  0.00  0.00    +0.000 C 
ENDBRANCH  23  25
ENDBRANCH   5  20
TORSDOF 5
ENDMDL
MODEL 7
REMARK VINA RESULT:      -7.8      4.433     11.201
REMARK  Name = 
REMARK  6 active torsions:
REMARK  status: ('A' for Active; 'I' for Inactive)
REMARK    1  A    between atoms: C_1  and  O_2
REMARK    2  A    between atoms: O_2  and  C_3
REMARK    3  A    between atoms: C_5  and  C_6
REMARK    4  A    between atoms: N_10  and  C_11
REMARK    5  A    between atoms: C_14  and  C_15
REMARK    6  A    between atoms: C_31  and  O_32
REMARK                            x       y       z     vdW  Elec       q    Type
REMARK                         _______ _______ _______ _____ _____    ______ ____
ROOT
ATOM      1  C   UNL     1      -0.800  14.242  20.552  0.00  0.00    +0.000 C 
ATOM      2  C   UNL     1      -0.358  13.037  20.166  0.00  0.00    +0.000 C 
ATOM      3  S   UNL     1       0.668  12.738  18.787  0.00  0.00    +0.000 S 
ATOM      4  C   UNL     1       0.848  11.034  19.177  0.00  0.00    +0.000 C 
ATOM      5  N   UNL     1       1.623  10.226  18.532  0.00  0.00    +0.000 NA
ATOM      6  N   UNL     1       0.060  10.751  20.252  0.00  0.00    +0.000 N 
ATOM      7  C   UNL     1      -0.637  11.749  20.853  0.00  0.00    +0.000 C 
ATOM      8  O   UNL     1      -1.370  11.573  21.809  0.00  0.00    +0.000 OA
ATOM      9  H   UNL     1       0.007   9.816  20.629  0.00  0.00    +0.000 HD
ENDROOT
BRANCH   1  12
ATOM     10  C   UNL     1      -3.828  14.674  22.816  0.00  0.00    +0.000 A 
ATOM     11  C   UNL     1      -3.035  14.466  21.671  0.00  0.00    +0.000 A 
ATOM     12  C   UNL     1      -1.633  14.488  21.741  0.00  0.00    +0.000 A 
ATOM     13  C   UNL     1      -1.021  14.753  22.970  0.00  0.00    +0.000 A 
ATOM     14  C   UNL     1      -1.795  14.961  24.112  0.00  0.00    +0.000 A 
ATOM     15  C   UNL     1      -3.189  14.915  24.039  0.00  0.00    +0.000 A 
BRANCH  10  17
ATOM     16  C   UNL     1      -5.691  13.369  22.084  0.00  0.00    +0.000 C 
ATOM     17  O   UNL     1      -5.179  14.602  22.582  0.00  0.00    +0.000 OA
ENDBRANCH  10  17
BRANCH  15  18
ATOM     18  O   UNL     1      -3.894  15.103  25.196  0.00  0.00    +0.000 OA
ATOM     19  H   UNL     1      -3.880  14.284  25.717  0.00  0.00    +0.000 HD
ENDBRANCH  15  18
ENDBRANCH   1  12
BRANCH   5  20
ATOM     20  C   UNL     1       1.720   8.946  18.999  0.00  0.00    +0.000 A 
ATOM     21  N   UNL     1       1.556   8.516  20.240  0.00  0.00    +0.000 NA
ATOM     22  N   UNL     1       1.796   7.175  20.408  0.00  0.00    +0.000 NA
ATOM     23  C   UNL     1       2.127   6.577  19.284  0.00  0.00    +0.000 A 
ATOM     24  S   UNL     1       2.136   7.653  17.927  0.00  0.00    +0.000 S 
BRANCH  23  25
ATOM     25  C   UNL     1       2.471   5.096  19.168  0.00  0.00    +0.000 C 
ATOM     26  C   UNL     1       4.016   4.877  19.247  0.00  0.00    +0.000 C 
ATOM     27  C   UNL     1       4.373   3.383  19.127  0.00  0.00    +0.000 C 
ATOM     28  C   UNL     1       3.703   2.609  20.272  0.00  0.00    +0.000 C 
ATOM     29  C   UNL     1       2.179   2.787  20.203  0.00  0.00    +0.000 C 
ATOM     30  C   UNL     1       1.670   2.256  18.853  0.00  0.00    +0.000 C 
ATOM     31  C   UNL     1       2.336   3.020  17.697  0.00  0.00    +0.000 C 
ATOM     32  C   UNL     1       3.859   2.844  17.783  0.00  0.00    +0.000 C 
ATOM     33  C   UNL     1       1.986   4.515  17.812  0.00  0.00    +0.000 C 
ATOM     34  C   UNL     1       1.832   4.283  20.323  0.00  0.00    +0.000 C 
ENDBRANCH  23  25
ENDBRANCH   5  20
TORSDOF 5
ENDMDL
MODEL 8
REMARK VINA RESULT:      -7.8      2.989      4.054
REMARK  Name = 
REMARK  6 active torsions:
REMARK  status: ('A' for Active; 'I' for Inactive)
REMARK    1  A    between atoms: C_1  and  O_2
REMARK    2  A    between atoms: O_2  and  C_3
REMARK    3  A    between atoms: C_5  and  C_6
REMARK    4  A    between atoms: N_10  and  C_11
REMARK    5  A    between atoms: C_14  and  C_15
REMARK    6  A    between atoms: C_31  and  O_32
REMARK                            x       y       z     vdW  Elec       q    Type
REMARK                         _______ _______ _______ _____ _____    ______ ____
ROOT
ATOM      1  C   UNL     1       4.178   4.780  18.863  0.00  0.00    +0.000 C 
ATOM      2  C   UNL     1       3.265   5.674  19.271  0.00  0.00    +0.000 C 
ATOM      3  S   UNL     1       2.275   5.518  20.699  0.00  0.00    +0.000 S 
ATOM      4  C   UNL     1       1.596   7.128  20.514  0.00  0.00    +0.000 C 
ATOM      5  N   UNL     1       0.802   7.677  21.373  0.00  0.00    +0.000 NA
ATOM      6  N   UNL     1       2.062   7.662  19.351  0.00  0.00    +0.000 N 
ATOM      7  C   UNL     1       2.954   6.964  18.602  0.00  0.00    +0.000 C 
ATOM      8  O   UNL     1       3.405   7.369  17.547  0.00  0.00    +0.000 OA
ATOM      9  H   UNL     1       1.778   8.583  19.049  0.00  0.00    +0.000 HD
ENDROOT
BRANCH   1  12
ATOM     10  C   UNL     1       6.906   6.026  16.520  0.00  0.00    +0.000 A 
ATOM     11  C   UNL     1       6.069   5.893  17.645  0.00  0.00    +0.000 A 
ATOM     12  C   UNL     1       5.036   4.942  17.678  0.00  0.00    +0.000 A 
ATOM     13  C   UNL     1       4.824   4.136  16.556  0.00  0.00    +0.000 A 
ATOM     14  C   UNL     1       5.645   4.257  15.435  0.00  0.00    +0.000 A 
ATOM     15  C   UNL     1       6.684   5.190  15.419  0.00  0.00    +0.000 A 
BRANCH  10  17
ATOM     16  C   UNL     1       7.782   7.856  17.781  0.00  0.00    +0.000 C 
ATOM     17  O   UNL     1       7.876   6.988  16.655  0.00  0.00    +0.000 OA
ENDBRANCH  10  17
BRANCH  15  18
ATOM     18  O   UNL     1       7.472   5.247  14.301  0.00  0.00    +0.000 OA
ATOM     19  H   UNL     1       7.758   6.163  14.156  0.00  0.00    +0.000 HD
ENDBRANCH  15  18
ENDBRANCH   1  12
BRANCH   5  20
ATOM     20  C   UNL     1       0.417   8.965  21.134  0.00  0.00    +0.000 A 
ATOM     21  N   UNL     1       0.538   9.659  20.012  0.00  0.00    +0.000 NA
ATOM     22  N   UNL     1       0.122  10.962  20.109  0.00  0.00    +0.000 NA
ATOM     23  C   UNL     1      -0.337  11.260  21.306  0.00  0.00    +0.000 A 
ATOM     24  S   UNL     1      -0.301   9.911  22.393  0.00  0.00    +0.000 S 
BRANCH  23  25
ATOM     25  C   UNL     1      -0.846  12.637  21.714  0.00  0.00    +0.000 C 
ATOM     26  C   UNL     1      -1.455  12.601  23.152  0.00  0.00    +0.000 C 
ATOM     27  C   UNL     1      -1.976  13.989  23.571  0.00  0.00    +0.000 C 
ATOM     28  C   UNL     1      -0.814  14.995  23.549  0.00  0.00    +0.000 C 
ATOM     29  C   UNL     1      -0.213  15.067  22.137  0.00  0.00    +0.000 C 
ATOM     30  C   UNL     1      -1.301  15.515  21.148  0.00  0.00    +0.000 C 
ATOM     31  C   UNL     1      -2.472  14.520  21.163  0.00  0.00    +0.000 C 
ATOM     32  C   UNL     1      -3.058  14.446  22.580  0.00  0.00    +0.000 C 
ATOM     33  C   UNL     1      -1.959  13.129  20.749  0.00  0.00    +0.000 C 
ATOM     34  C   UNL     1       0.305  13.676  21.727  0.00  0.00    +0.000 C 
ENDBRANCH  23  25
ENDBRANCH   5  20
TORSDOF 5
ENDMDL
MODEL 9
REMARK VINA RESULT:      -7.8      3.004      3.938
REMARK  Name = 
REMARK  6 active torsions:
REMARK  status: ('A' for Active; 'I' for Inactive)
REMARK    1  A    between atoms: C_1  and  O_2
REMARK    2  A    between atoms: O_2  and  C_3
REMARK    3  A    between atoms: C_5  and  C_6
REMARK    4  A    between atoms: N_10  and  C_11
REMARK    5  A    between atoms: C_14  and  C_15
REMARK    6  A    between atoms: C_31  and  O_32
REMARK                            x       y       z     vdW  Elec       q    Type
REMARK                         _______ _______ _______ _____ _____    ______ ____
ROOT
ATOM      1  C   UNL     1       4.168   4.746  18.812  0.00  0.00    +0.000 C 
ATOM      2  C   UNL     1       3.275   5.655  19.230  0.00  0.00    +0.000 C 
ATOM      3  S   UNL     1       2.269   5.497  20.647  0.00  0.00    +0.000 S 
ATOM      4  C   UNL     1       1.632   7.127  20.487  0.00  0.00    +0.000 C 
ATOM      5  N   UNL     1       0.846   7.679  21.350  0.00  0.00    +0.000 NA
ATOM      6  N   UNL     1       2.121   7.671  19.338  0.00  0.00    +0.000 N 
ATOM      7  C   UNL     1       3.002   6.964  18.583  0.00  0.00    +0.000 C 
ATOM      8  O   UNL     1       3.472   7.378  17.539  0.00  0.00    +0.000 OA
ATOM      9  H   UNL     1       1.863   8.604  19.051  0.00  0.00    +0.000 HD
ENDROOT
BRANCH   1  12
ATOM     10  C   UNL     1       6.908   6.008  16.493  0.00  0.00    +0.000 A 
ATOM     11  C   UNL     1       6.058   5.875  17.608  0.00  0.00    +0.000 A 
ATOM     12  C   UNL     1       5.041   4.908  17.637  0.00  0.00    +0.000 A 
ATOM     13  C   UNL     1       4.856   4.086  16.521  0.00  0.00    +0.000 A 
ATOM     14  C   UNL     1       5.691   4.208  15.410  0.00  0.00    +0.000 A 
ATOM     15  C   UNL     1       6.715   5.157  15.398  0.00  0.00    +0.000 A 
BRANCH  10  17
ATOM     16  C   UNL     1       7.802   7.796  17.801  0.00  0.00    +0.000 C 
ATOM     17  O   UNL     1       7.862   6.987  16.630  0.00  0.00    +0.000 OA
ENDBRANCH  10  17
BRANCH  15  18
ATOM     18  O   UNL     1       7.517   5.214  14.290  0.00  0.00    +0.000 OA
ATOM     19  H   UNL     1       7.701   6.142  14.074  0.00  0.00    +0.000 HD
ENDBRANCH  15  18
ENDBRANCH   1  12
BRANCH   5  20
ATOM     20  C   UNL     1       0.495   8.982  21.132  0.00  0.00    +0.000 A 
ATOM     21  N   UNL     1       0.749   9.728  20.069  0.00  0.00    +0.000 NA
ATOM     22  N   UNL     1       0.328  11.029  20.181  0.00  0.00    +0.000 NA
ATOM     23  C   UNL     1      -0.267  11.271  21.330  0.00  0.00    +0.000 A 
ATOM     24  S   UNL     1      -0.363   9.870  22.344  0.00  0.00    +0.000 S 
BRANCH  23  25
ATOM     25  C   UNL     1      -0.818  12.631  21.743  0.00  0.00    +0.000 C 
ATOM     26  C   UNL     1      -1.915  13.114  20.741  0.00  0.00    +0.000 C 
ATOM     27  C   UNL     1      -2.475  14.490  21.149  0.00  0.00    +0.000 C 
ATOM     28  C   UNL     1      -3.094  14.389  22.552  0.00  0.00    +0.000 C 
ATOM     29  C   UNL     1      -2.028  13.940  23.562  0.00  0.00    +0.000 C 
ATOM     30  C   UNL     1      -0.882  14.964  23.577  0.00  0.00    +0.000 C 
ATOM     31  C   UNL     1      -0.255  15.078  22.177  0.00  0.00    +0.000 C 
ATOM     32  C   UNL     1      -1.331  15.517  21.174  0.00  0.00    +0.000 C 
ATOM     33  C   UNL     1       0.303  13.705  21.761  0.00  0.00    +0.000 C 
ATOM     34  C   UNL     1      -1.474  12.564  23.146  0.00  0.00    +0.000 C 
ENDBRANCH  23  25
ENDBRANCH   5  20
TORSDOF 5
ENDMDL
