MODEL 1
REMARK VINA RESULT:      -9.7      0.000      0.000
REMARK  Name = 
REMARK  4 active torsions:
REMARK  status: ('A' for Active; 'I' for Inactive)
REMARK    1  A    between atoms: C_1  and  C_2
REMARK    2  A    between atoms: C_7  and  N_8
REMARK    3  A    between atoms: C_9  and  C_11
REMARK    4  A    between atoms: C_17  and  O_18
REMARK                            x       y       z     vdW  Elec       q    Type
REMARK                         _______ _______ _______ _____ _____    ______ ____
ROOT
ATOM      1  C   UNL     1       5.860   4.649  16.743  0.00  0.00    +0.000 A 
ATOM      2  C   UNL     1       5.458   3.979  15.646  0.00  0.00    +0.000 A 
ATOM      3  C   UNL     1       6.097   4.178  14.359  0.00  0.00    +0.000 A 
ATOM      4  C   UNL     1       5.678   3.481  13.222  0.00  0.00    +0.000 A 
ATOM      5  C   UNL     1       6.348   3.656  12.009  0.00  0.00    +0.000 A 
ATOM      6  C   UNL     1       7.450   4.513  11.935  0.00  0.00    +0.000 A 
ATOM      7  C   UNL     1       7.866   5.205  13.074  0.00  0.00    +0.000 A 
ATOM      8  C   UNL     1       7.177   5.046  14.276  0.00  0.00    +0.000 A 
ATOM      9  O   UNL     1       7.588   5.777  15.412  0.00  0.00    +0.000 OA
ATOM     10  C   UNL     1       6.937   5.643  16.628  0.00  0.00    +0.000 A 
ATOM     11  N   UNL     1       7.328   6.408  17.596  0.00  0.00    +0.000 NA
ATOM     12  H   UNL     1       8.083   6.991  17.202  0.00  0.00    +0.000 HD
ENDROOT
BRANCH   1  14
ATOM     13  N   UNL     1       3.784   4.128  17.948  0.00  0.00    +0.000 N 
ATOM     14  C   UNL     1       5.158   4.279  18.014  0.00  0.00    +0.000 C 
ATOM     15  O   UNL     1       5.839   4.140  19.031  0.00  0.00    +0.000 OA
ATOM     16  H   UNL     1       3.361   4.225  17.022  0.00  0.00    +0.000 HD
BRANCH  13  23
ATOM     17  C   UNL     1       2.553   6.361  19.467  0.00  0.00    +0.000 C 
ATOM     18  C   UNL     1       2.326   4.907  19.781  0.00  0.00    +0.000 A 
ATOM     19  C   UNL     1       1.469   4.601  20.861  0.00  0.00    +0.000 A 
ATOM     20  C   UNL     1       1.199   3.286  21.228  0.00  0.00    +0.000 A 
ATOM     21  C   UNL     1       1.781   2.252  20.516  0.00  0.00    +0.000 A 
ATOM     22  C   UNL     1       2.627   2.537  19.443  0.00  0.00    +0.000 A 
ATOM     23  C   UNL     1       2.916   3.854  19.046  0.00  0.00    +0.000 A 
ENDBRANCH  13  23
ENDBRANCH   1  14
BRANCH   7  24
ATOM     24  O   UNL     1       8.955   6.026  13.026  0.00  0.00    +0.000 OA
ATOM     25  H   UNL     1       9.231   6.233  13.934  0.00  0.00    +0.000 HD
ENDBRANCH   7  24
TORSDOF 3
ENDMDL
MODEL 2
REMARK VINA RESULT:      -9.7      0.334      1.496
REMARK  Name = 
REMARK  4 active torsions:
REMARK  status: ('A' for Active; 'I' for Inactive)
REMARK    1  A    between atoms: C_1  and  C_2
REMARK    2  A    between atoms: C_7  and  N_8
REMARK    3  A    between atoms: C_9  and  C_11
REMARK    4  A    between atoms: C_17  and  O_18
REMARK                            x       y       z     vdW  Elec       q    Type
REMARK                         _______ _______ _______ _____ _____    ______ ____
ROOT
ATOM      1  C   UNL     1       5.901   4.724  16.715  0.00  0.00    +0.000 A 
ATOM      2  C   UNL     1       5.502   4.043  15.624  0.00  0.00    +0.000 A 
ATOM      3  C   UNL     1       6.144   4.228  14.337  0.00  0.00    +0.000 A 
ATOM      4  C   UNL     1       5.728   3.519  13.206  0.00  0.00    +0.000 A 
ATOM      5  C   UNL     1       6.402   3.681  11.993  0.00  0.00    +0.000 A 
ATOM      6  C   UNL     1       7.504   4.536  11.914  0.00  0.00    +0.000 A 
ATOM      7  C   UNL     1       7.918   5.240  13.046  0.00  0.00    +0.000 A 
ATOM      8  C   UNL     1       7.225   5.095  14.247  0.00  0.00    +0.000 A 
ATOM      9  O   UNL     1       7.633   5.838  15.377  0.00  0.00    +0.000 OA
ATOM     10  C   UNL     1       6.979   5.717  16.592  0.00  0.00    +0.000 A 
ATOM     11  N   UNL     1       7.366   6.492  17.553  0.00  0.00    +0.000 NA
ATOM     12  H   UNL     1       8.123   7.071  17.155  0.00  0.00    +0.000 HD
ENDROOT
BRANCH   1  14
ATOM     13  N   UNL     1       3.827   4.175  17.911  0.00  0.00    +0.000 N 
ATOM     14  C   UNL     1       5.194   4.369  17.988  0.00  0.00    +0.000 C 
ATOM     15  O   UNL     1       5.867   4.278  19.015  0.00  0.00    +0.000 OA
ATOM     16  H   UNL     1       3.412   4.234  16.978  0.00  0.00    +0.000 HD
BRANCH  13  23
ATOM     17  C   UNL     1       3.235   1.373  18.689  0.00  0.00    +0.000 C 
ATOM     18  C   UNL     1       2.660   2.576  19.385  0.00  0.00    +0.000 A 
ATOM     19  C   UNL     1       1.793   2.344  20.477  0.00  0.00    +0.000 A 
ATOM     20  C   UNL     1       1.212   3.393  21.182  0.00  0.00    +0.000 A 
ATOM     21  C   UNL     1       1.491   4.696  20.809  0.00  0.00    +0.000 A 
ATOM     22  C   UNL     1       2.348   4.943  19.736  0.00  0.00    +0.000 A 
ATOM     23  C   UNL     1       2.954   3.905  19.006  0.00  0.00    +0.000 A 
ENDBRANCH  13  23
ENDBRANCH   1  14
BRANCH   7  24
ATOM     24  O   UNL     1       9.006   6.061  12.992  0.00  0.00    +0.000 OA
ATOM     25  H   UNL     1       9.526   5.838  12.201  0.00  0.00    +0.000 HD
ENDBRANCH   7  24
TORSDOF 3
ENDMDL
MODEL 3
REMARK VINA RESULT:      -9.7      0.945      1.006
REMARK  Name = 
REMARK  4 active torsions:
REMARK  status: ('A' for Active; 'I' for Inactive)
REMARK    1  A    between atoms: C_1  and  C_2
REMARK    2  A    between atoms: C_7  and  N_8
REMARK    3  A    between atoms: C_9  and  C_11
REMARK    4  A    between atoms: C_17  and  O_18
REMARK                            x       y       z     vdW  Elec       q    Type
REMARK                         _______ _______ _______ _____ _____    ______ ____
ROOT
ATOM      1  C   UNL     1       5.706   4.993  16.838  0.00  0.00    +0.000 A 
ATOM      2  C   UNL     1       5.292   4.269  15.781  0.00  0.00    +0.000 A 
ATOM      3  C   UNL     1       5.977   4.329  14.504  0.00  0.00    +0.000 A 
ATOM      4  C   UNL     1       5.545   3.575  13.409  0.00  0.00    +0.000 A 
ATOM      5  C   UNL     1       6.258   3.616  12.208  0.00  0.00    +0.000 A 
ATOM      6  C   UNL     1       7.413   4.395  12.107  0.00  0.00    +0.000 A 
ATOM      7  C   UNL     1       7.843   5.144  13.204  0.00  0.00    +0.000 A 
ATOM      8  C   UNL     1       7.112   5.120  14.391  0.00  0.00    +0.000 A 
ATOM      9  O   UNL     1       7.538   5.909  15.483  0.00  0.00    +0.000 OA
ATOM     10  C   UNL     1       6.847   5.908  16.684  0.00  0.00    +0.000 A 
ATOM     11  N   UNL     1       7.259   6.718  17.604  0.00  0.00    +0.000 NA
ATOM     12  H   UNL     1       8.061   7.222  17.193  0.00  0.00    +0.000 HD
ENDROOT
BRANCH   1  14
ATOM     13  N   UNL     1       4.047   3.714  18.122  0.00  0.00    +0.000 N 
ATOM     14  C   UNL     1       4.947   4.765  18.110  0.00  0.00    +0.000 C 
ATOM     15  O   UNL     1       5.164   5.524  19.055  0.00  0.00    +0.000 OA
ATOM     16  H   UNL     1       4.012   3.139  17.277  0.00  0.00    +0.000 HD
BRANCH  13  23
ATOM     17  C   UNL     1       1.136   4.246  17.901  0.00  0.00    +0.000 C 
ATOM     18  C   UNL     1       1.786   3.620  19.105  0.00  0.00    +0.000 A 
ATOM     19  C   UNL     1       0.947   3.263  20.185  0.00  0.00    +0.000 A 
ATOM     20  C   UNL     1       1.457   2.680  21.341  0.00  0.00    +0.000 A 
ATOM     21  C   UNL     1       2.816   2.439  21.435  0.00  0.00    +0.000 A 
ATOM     22  C   UNL     1       3.657   2.782  20.376  0.00  0.00    +0.000 A 
ATOM     23  C   UNL     1       3.173   3.369  19.194  0.00  0.00    +0.000 A 
ENDBRANCH  13  23
ENDBRANCH   1  14
BRANCH   7  24
ATOM     24  O   UNL     1       8.982   5.891  13.129  0.00  0.00    +0.000 OA
ATOM     25  H   UNL     1       8.820   6.751  13.552  0.00  0.00    +0.000 HD
ENDBRANCH   7  24
TORSDOF 3
ENDMDL
MODEL 4
REMARK VINA RESULT:      -8.1      1.140      1.140
REMARK  Name = 
REMARK  4 active torsions:
REMARK  status: ('A' for Active; 'I' for Inactive)
REMARK    1  A    between atoms: C_1  and  C_2
REMARK    2  A    between atoms: C_7  and  N_8
REMARK    3  A    between atoms: C_9  and  C_11
REMARK    4  A    between atoms: C_17  and  O_18
REMARK                            x       y       z     vdW  Elec       q    Type
REMARK                         _______ _______ _______ _____ _____    ______ ____
ROOT
ATOM      1  C   UNL     1       5.048   4.549  16.129  0.00  0.00    +0.000 A 
ATOM      2  C   UNL     1       4.957   3.900  14.952  0.00  0.00    +0.000 A 
ATOM      3  C   UNL     1       5.909   4.128  13.883  0.00  0.00    +0.000 A 
ATOM      4  C   UNL     1       5.812   3.451  12.663  0.00  0.00    +0.000 A 
ATOM      5  C   UNL     1       6.777   3.655  11.673  0.00  0.00    +0.000 A 
ATOM      6  C   UNL     1       7.850   4.518  11.908  0.00  0.00    +0.000 A 
ATOM      7  C   UNL     1       7.945   5.189  13.129  0.00  0.00    +0.000 A 
ATOM      8  C   UNL     1       6.965   5.003  14.104  0.00  0.00    +0.000 A 
ATOM      9  O   UNL     1       7.054   5.713  15.321  0.00  0.00    +0.000 OA
ATOM     10  C   UNL     1       6.108   5.552  16.319  0.00  0.00    +0.000 A 
ATOM     11  N   UNL     1       6.221   6.299  17.370  0.00  0.00    +0.000 NA
ATOM     12  H   UNL     1       7.047   6.893  17.199  0.00  0.00    +0.000 HD
ENDROOT
BRANCH   1  14
ATOM     13  N   UNL     1       4.393   4.339  18.487  0.00  0.00    +0.000 N 
ATOM     14  C   UNL     1       4.040   4.150  17.163  0.00  0.00    +0.000 C 
ATOM     15  O   UNL     1       2.971   3.677  16.774  0.00  0.00    +0.000 OA
ATOM     16  H   UNL     1       5.295   4.791  18.655  0.00  0.00    +0.000 HD
BRANCH  13  23
ATOM     17  C   UNL     1       2.488   6.266  19.699  0.00  0.00    +0.000 C 
ATOM     18  C   UNL     1       2.713   4.871  20.214  0.00  0.00    +0.000 A 
ATOM     19  C   UNL     1       1.960   4.465  21.339  0.00  0.00    +0.000 A 
ATOM     20  C   UNL     1       2.099   3.194  21.888  0.00  0.00    +0.000 A 
ATOM     21  C   UNL     1       2.992   2.304  21.318  0.00  0.00    +0.000 A 
ATOM     22  C   UNL     1       3.740   2.688  20.205  0.00  0.00    +0.000 A 
ATOM     23  C   UNL     1       3.620   3.963  19.624  0.00  0.00    +0.000 A 
ENDBRANCH  13  23
ENDBRANCH   1  14
BRANCH   7  24
ATOM     24  O   UNL     1       8.999   6.018  13.384  0.00  0.00    +0.000 OA
ATOM     25  H   UNL     1       9.377   5.784  14.248  0.00  0.00    +0.000 HD
ENDBRANCH   7  24
TORSDOF 3
ENDMDL
MODEL 5
REMARK VINA RESULT:      -7.9      5.014      8.774
REMARK  Name = 
REMARK  4 active torsions:
REMARK  status: ('A' for Active; 'I' for Inactive)
REMARK    1  A    between atoms: C_1  and  C_2
REMARK    2  A    between atoms: C_7  and  N_8
REMARK    3  A    between atoms: C_9  and  C_11
REMARK    4  A    between atoms: C_17  and  O_18
REMARK                            x       y       z     vdW  Elec       q    Type
REMARK                         _______ _______ _______ _____ _____    ______ ____
ROOT
ATOM      1  C   UNL     1       1.466   8.771  19.563  0.00  0.00    +0.000 A 
ATOM      2  C   UNL     1       0.961   8.709  20.811  0.00  0.00    +0.000 A 
ATOM      3  C   UNL     1       0.191   9.800  21.374  0.00  0.00    +0.000 A 
ATOM      4  C   UNL     1      -0.332   9.731  22.669  0.00  0.00    +0.000 A 
ATOM      5  C   UNL     1      -1.114  10.779  23.163  0.00  0.00    +0.000 A 
ATOM      6  C   UNL     1      -1.390  11.886  22.357  0.00  0.00    +0.000 A 
ATOM      7  C   UNL     1      -0.868  11.950  21.064  0.00  0.00    +0.000 A 
ATOM      8  C   UNL     1      -0.066  10.914  20.586  0.00  0.00    +0.000 A 
ATOM      9  O   UNL     1       0.483  11.006  19.288  0.00  0.00    +0.000 OA
ATOM     10  C   UNL     1       1.278   9.996  18.770  0.00  0.00    +0.000 A 
ATOM     11  N   UNL     1       1.805  10.195  17.606  0.00  0.00    +0.000 NA
ATOM     12  H   UNL     1       1.496  11.137  17.319  0.00  0.00    +0.000 HD
ENDROOT
BRANCH   1  14
ATOM     13  N   UNL     1       2.405   6.552  20.036  0.00  0.00    +0.000 N 
ATOM     14  C   UNL     1       2.170   7.536  19.092  0.00  0.00    +0.000 C 
ATOM     15  O   UNL     1       2.498   7.475  17.907  0.00  0.00    +0.000 OA
ATOM     16  H   UNL     1       2.029   6.722  20.971  0.00  0.00    +0.000 HD
BRANCH  13  23
ATOM     17  C   UNL     1       1.087   3.939  20.532  0.00  0.00    +0.000 C 
ATOM     18  C   UNL     1       2.507   4.086  20.058  0.00  0.00    +0.000 A 
ATOM     19  C   UNL     1       3.243   2.901  19.834  0.00  0.00    +0.000 A 
ATOM     20  C   UNL     1       4.564   2.936  19.396  0.00  0.00    +0.000 A 
ATOM     21  C   UNL     1       5.171   4.159  19.171  0.00  0.00    +0.000 A 
ATOM     22  C   UNL     1       4.456   5.338  19.384  0.00  0.00    +0.000 A 
ATOM     23  C   UNL     1       3.120   5.337  19.822  0.00  0.00    +0.000 A 
ENDBRANCH  13  23
ENDBRANCH   1  14
BRANCH   7  24
ATOM     24  O   UNL     1      -1.147  13.013  20.256  0.00  0.00    +0.000 OA
ATOM     25  H   UNL     1      -0.613  13.772  20.543  0.00  0.00    +0.000 HD
ENDBRANCH   7  24
TORSDOF 3
ENDMDL
MODEL 6
REMARK VINA RESULT:      -7.8      1.226      1.853
REMARK  Name = 
REMARK  4 active torsions:
REMARK  status: ('A' for Active; 'I' for Inactive)
REMARK    1  A    between atoms: C_1  and  C_2
REMARK    2  A    between atoms: C_7  and  N_8
REMARK    3  A    between atoms: C_9  and  C_11
REMARK    4  A    between atoms: C_17  and  O_18
REMARK                            x       y       z     vdW  Elec       q    Type
REMARK                         _______ _______ _______ _____ _____    ______ ____
ROOT
ATOM      1  C   UNL     1       4.962   4.554  16.119  0.00  0.00    +0.000 A 
ATOM      2  C   UNL     1       4.900   3.886  14.951  0.00  0.00    +0.000 A 
ATOM      3  C   UNL     1       5.865   4.113  13.894  0.00  0.00    +0.000 A 
ATOM      4  C   UNL     1       5.798   3.416  12.683  0.00  0.00    +0.000 A 
ATOM      5  C   UNL     1       6.775   3.621  11.705  0.00  0.00    +0.000 A 
ATOM      6  C   UNL     1       7.829   4.505  11.943  0.00  0.00    +0.000 A 
ATOM      7  C   UNL     1       7.894   5.196  13.154  0.00  0.00    +0.000 A 
ATOM      8  C   UNL     1       6.903   5.009  14.116  0.00  0.00    +0.000 A 
ATOM      9  O   UNL     1       6.961   5.739  15.323  0.00  0.00    +0.000 OA
ATOM     10  C   UNL     1       6.002   5.577  16.310  0.00  0.00    +0.000 A 
ATOM     11  N   UNL     1       6.087   6.342  17.350  0.00  0.00    +0.000 NA
ATOM     12  H   UNL     1       6.906   6.948  17.183  0.00  0.00    +0.000 HD
ENDROOT
BRANCH   1  14
ATOM     13  N   UNL     1       4.262   4.398  18.468  0.00  0.00    +0.000 N 
ATOM     14  C   UNL     1       3.945   4.155  17.143  0.00  0.00    +0.000 C 
ATOM     15  O   UNL     1       2.902   3.634  16.748  0.00  0.00    +0.000 OA
ATOM     16  H   UNL     1       5.144   4.884  18.641  0.00  0.00    +0.000 HD
BRANCH  13  23
ATOM     17  C   UNL     1       4.657   1.757  19.764  0.00  0.00    +0.000 C 
ATOM     18  C   UNL     1       3.650   2.776  20.225  0.00  0.00    +0.000 A 
ATOM     19  C   UNL     1       2.857   2.445  21.346  0.00  0.00    +0.000 A 
ATOM     20  C   UNL     1       1.899   3.322  21.845  0.00  0.00    +0.000 A 
ATOM     21  C   UNL     1       1.720   4.549  21.232  0.00  0.00    +0.000 A 
ATOM     22  C   UNL     1       2.498   4.893  20.125  0.00  0.00    +0.000 A 
ATOM     23  C   UNL     1       3.476   4.031  19.600  0.00  0.00    +0.000 A 
ENDBRANCH  13  23
ENDBRANCH   1  14
BRANCH   7  24
ATOM     24  O   UNL     1       8.931   6.046  13.412  0.00  0.00    +0.000 OA
ATOM     25  H   UNL     1       8.572   6.878  13.764  0.00  0.00    +0.000 HD
ENDBRANCH   7  24
TORSDOF 3
ENDMDL
MODEL 7
REMARK VINA RESULT:      -7.7      4.282      6.560
REMARK  Name = 
REMARK  4 active torsions:
REMARK  status: ('A' for Active; 'I' for Inactive)
REMARK    1  A    between atoms: C_1  and  C_2
REMARK    2  A    between atoms: C_7  and  N_8
REMARK    3  A    between atoms: C_9  and  C_11
REMARK    4  A    between atoms: C_17  and  O_18
REMARK                            x       y       z     vdW  Elec       q    Type
REMARK                         _______ _______ _______ _____ _____    ______ ____
ROOT
ATOM      1  C   UNL     1       2.530   7.365  18.909  0.00  0.00    +0.000 A 
ATOM      2  C   UNL     1       3.285   7.543  17.808  0.00  0.00    +0.000 A 
ATOM      3  C   UNL     1       4.074   6.465  17.245  0.00  0.00    +0.000 A 
ATOM      4  C   UNL     1       4.856   6.654  16.102  0.00  0.00    +0.000 A 
ATOM      5  C   UNL     1       5.564   5.580  15.554  0.00  0.00    +0.000 A 
ATOM      6  C   UNL     1       5.474   4.314  16.136  0.00  0.00    +0.000 A 
ATOM      7  C   UNL     1       4.689   4.129  17.276  0.00  0.00    +0.000 A 
ATOM      8  C   UNL     1       4.006   5.209  17.834  0.00  0.00    +0.000 A 
ATOM      9  O   UNL     1       3.243   5.016  19.006  0.00  0.00    +0.000 OA
ATOM     10  C   UNL     1       2.542   6.060  19.588  0.00  0.00    +0.000 A 
ATOM     11  N   UNL     1       1.933   5.816  20.703  0.00  0.00    +0.000 NA
ATOM     12  H   UNL     1       2.137   4.827  20.920  0.00  0.00    +0.000 HD
ENDROOT
BRANCH   1  14
ATOM     13  N   UNL     1       1.454   9.503  18.356  0.00  0.00    +0.000 N 
ATOM     14  C   UNL     1       1.710   8.548  19.325  0.00  0.00    +0.000 C 
ATOM     15  O   UNL     1       1.324   8.601  20.493  0.00  0.00    +0.000 OA
ATOM     16  H   UNL     1       1.797   9.297  17.415  0.00  0.00    +0.000 HD
BRANCH  13  23
ATOM     17  C   UNL     1      -1.388   9.765  17.541  0.00  0.00    +0.000 C 
ATOM     18  C   UNL     1      -0.589  10.875  18.167  0.00  0.00    +0.000 A 
ATOM     19  C   UNL     1      -1.244  12.109  18.379  0.00  0.00    +0.000 A 
ATOM     20  C   UNL     1      -0.587  13.194  18.950  0.00  0.00    +0.000 A 
ATOM     21  C   UNL     1       0.739  13.063  19.324  0.00  0.00    +0.000 A 
ATOM     22  C   UNL     1       1.400  11.850  19.124  0.00  0.00    +0.000 A 
ATOM     23  C   UNL     1       0.763  10.734  18.554  0.00  0.00    +0.000 A 
ENDBRANCH  13  23
ENDBRANCH   1  14
BRANCH   7  24
ATOM     24  O   UNL     1       4.571   2.893  17.843  0.00  0.00    +0.000 OA
ATOM     25  H   UNL     1       3.853   2.413  17.397  0.00  0.00    +0.000 HD
ENDBRANCH   7  24
TORSDOF 3
ENDMDL
MODEL 8
REMARK VINA RESULT:      -7.7      4.198      6.399
REMARK  Name = 
REMARK  4 active torsions:
REMARK  status: ('A' for Active; 'I' for Inactive)
REMARK    1  A    between atoms: C_1  and  C_2
REMARK    2  A    between atoms: C_7  and  N_8
REMARK    3  A    between atoms: C_9  and  C_11
REMARK    4  A    between atoms: C_17  and  O_18
REMARK                            x       y       z     vdW  Elec       q    Type
REMARK                         _______ _______ _______ _____ _____    ______ ____
ROOT
ATOM      1  C   UNL     1       2.562   7.268  18.983  0.00  0.00    +0.000 A 
ATOM      2  C   UNL     1       3.277   7.492  17.864  0.00  0.00    +0.000 A 
ATOM      3  C   UNL     1       4.106   6.460  17.273  0.00  0.00    +0.000 A 
ATOM      4  C   UNL     1       4.847   6.696  16.111  0.00  0.00    +0.000 A 
ATOM      5  C   UNL     1       5.594   5.665  15.537  0.00  0.00    +0.000 A 
ATOM      6  C   UNL     1       5.587   4.392  16.113  0.00  0.00    +0.000 A 
ATOM      7  C   UNL     1       4.844   4.160  17.272  0.00  0.00    +0.000 A 
ATOM      8  C   UNL     1       4.121   5.199  17.855  0.00  0.00    +0.000 A 
ATOM      9  O   UNL     1       3.400   4.960  19.045  0.00  0.00    +0.000 OA
ATOM     10  C   UNL     1       2.662   5.962  19.653  0.00  0.00    +0.000 A 
ATOM     11  N   UNL     1       2.096   5.680  20.782  0.00  0.00    +0.000 NA
ATOM     12  H   UNL     1       2.358   4.702  20.987  0.00  0.00    +0.000 HD
ENDROOT
BRANCH   1  14
ATOM     13  N   UNL     1       1.219   9.253  18.444  0.00  0.00    +0.000 N 
ATOM     14  C   UNL     1       1.693   8.404  19.429  0.00  0.00    +0.000 C 
ATOM     15  O   UNL     1       1.460   8.515  20.633  0.00  0.00    +0.000 OA
ATOM     16  H   UNL     1       1.454   9.005  17.480  0.00  0.00    +0.000 HD
BRANCH  13  23
ATOM     17  C   UNL     1       2.467  11.929  18.149  0.00  0.00    +0.000 C 
ATOM     18  C   UNL     1       1.026  11.712  18.520  0.00  0.00    +0.000 A 
ATOM     19  C   UNL     1       0.229  12.859  18.732  0.00  0.00    +0.000 A 
ATOM     20  C   UNL     1      -1.115  12.759  19.079  0.00  0.00    +0.000 A 
ATOM     21  C   UNL     1      -1.687  11.506  19.218  0.00  0.00    +0.000 A 
ATOM     22  C   UNL     1      -0.914  10.363  19.008  0.00  0.00    +0.000 A 
ATOM     23  C   UNL     1       0.444  10.431  18.653  0.00  0.00    +0.000 A 
ENDBRANCH  13  23
ENDBRANCH   1  14
BRANCH   7  24
ATOM     24  O   UNL     1       4.806   2.916  17.833  0.00  0.00    +0.000 OA
ATOM     25  H   UNL     1       3.928   2.531  17.679  0.00  0.00    +0.000 HD
ENDBRANCH   7  24
TORSDOF 3
ENDMDL
MODEL 9
REMARK VINA RESULT:      -7.6      4.587      8.407
REMARK  Name = 
REMARK  4 active torsions:
REMARK  status: ('A' for Active; 'I' for Inactive)
REMARK    1  A    between atoms: C_1  and  C_2
REMARK    2  A    between atoms: C_7  and  N_8
REMARK    3  A    between atoms: C_9  and  C_11
REMARK    4  A    between atoms: C_17  and  O_18
REMARK                            x       y       z     vdW  Elec       q    Type
REMARK                         _______ _______ _______ _____ _____    ______ ____
ROOT
ATOM      1  C   UNL     1       1.702   8.236  19.497  0.00  0.00    +0.000 A 
ATOM      2  C   UNL     1       1.268   8.191  20.772  0.00  0.00    +0.000 A 
ATOM      3  C   UNL     1       0.530   9.290  21.362  0.00  0.00    +0.000 A 
ATOM      4  C   UNL     1       0.081   9.239  22.685  0.00  0.00    +0.000 A 
ATOM      5  C   UNL     1      -0.674  10.293  23.207  0.00  0.00    +0.000 A 
ATOM      6  C   UNL     1      -0.997  11.388  22.402  0.00  0.00    +0.000 A 
ATOM      7  C   UNL     1      -0.550  11.433  21.081  0.00  0.00    +0.000 A 
ATOM      8  C   UNL     1       0.226  10.391  20.573  0.00  0.00    +0.000 A 
ATOM      9  O   UNL     1       0.701  10.464  19.245  0.00  0.00    +0.000 OA
ATOM     10  C   UNL     1       1.466   9.448  18.698  0.00  0.00    +0.000 A 
ATOM     11  N   UNL     1       1.927   9.630  17.503  0.00  0.00    +0.000 NA
ATOM     12  H   UNL     1       1.600  10.568  17.220  0.00  0.00    +0.000 HD
ENDROOT
BRANCH   1  14
ATOM     13  N   UNL     1       1.754   5.790  19.274  0.00  0.00    +0.000 N 
ATOM     14  C   UNL     1       2.381   6.994  19.005  0.00  0.00    +0.000 C 
ATOM     15  O   UNL     1       3.448   7.119  18.404  0.00  0.00    +0.000 OA
ATOM     16  H   UNL     1       0.845   5.846  19.739  0.00  0.00    +0.000 HD
BRANCH  13  23
ATOM     17  C   UNL     1       2.165   3.797  21.434  0.00  0.00    +0.000 C 
ATOM     18  C   UNL     1       2.463   3.536  19.983  0.00  0.00    +0.000 A 
ATOM     19  C   UNL     1       2.963   2.259  19.643  0.00  0.00    +0.000 A 
ATOM     20  C   UNL     1       3.270   1.924  18.328  0.00  0.00    +0.000 A 
ATOM     21  C   UNL     1       3.078   2.861  17.328  0.00  0.00    +0.000 A 
ATOM     22  C   UNL     1       2.582   4.125  17.647  0.00  0.00    +0.000 A 
ATOM     23  C   UNL     1       2.259   4.493  18.965  0.00  0.00    +0.000 A 
ENDBRANCH  13  23
ENDBRANCH   1  14
BRANCH   7  24
ATOM     24  O   UNL     1      -0.877  12.484  20.274  0.00  0.00    +0.000 OA
ATOM     25  H   UNL     1      -1.553  12.192  19.640  0.00  0.00    +0.000 HD
ENDBRANCH   7  24
TORSDOF 3
ENDMDL
