MODEL 1
REMARK VINA RESULT:      -6.4      0.000      0.000
REMARK  Name = 
REMARK  10 active torsions:
REMARK  status: ('A' for Active; 'I' for Inactive)
REMARK    1  A    between atoms: C_1  and  C_2
REMARK    2  A    between atoms: C_2  and  O_3
REMARK    3  A    between atoms: O_3  and  C_4
REMARK    4  A    between atoms: N_9  and  S_10
REMARK    5  A    between atoms: S_10  and  C_13
REMARK    6  A    between atoms: C_16  and  O_17
REMARK    7  A    between atoms: O_17  and  C_18
REMARK    8  A    between atoms: C_18  and  C_19
REMARK    9  A    between atoms: C_19  and  O_21
REMARK   10  A    between atoms: O_21  and  C_22
REMARK                            x       y       z     vdW  Elec       q    Type
REMARK                         _______ _______ _______ _____ _____    ______ ____
ROOT
ATOM      1  S   UNL     1       6.887   5.000  17.405  0.00  0.00    +0.000 S 
ATOM      2  O   UNL     1       6.860   4.208  18.616  0.00  0.00    +0.000 OA
ATOM      3  O   UNL     1       7.617   4.542  16.245  0.00  0.00    +0.000 OA
ENDROOT
BRANCH   1   9
ATOM      4  C   UNL     1       2.079   3.133  18.563  0.00  0.00    +0.000 C 
ATOM      5  O   UNL     1       1.548   2.234  17.922  0.00  0.00    +0.000 OA
ATOM      6  N   UNL     1       3.341   3.624  18.302  0.00  0.00    +0.000 N 
ATOM      7  C   UNL     1       4.083   3.096  17.159  0.00  0.00    +0.000 C 
ATOM      8  C   UNL     1       4.536   4.227  16.222  0.00  0.00    +0.000 C 
ATOM      9  N   UNL     1       5.267   5.312  16.955  0.00  0.00    +0.000 NA
ATOM     10  C   UNL     1       4.403   5.850  18.057  0.00  0.00    +0.000 C 
ATOM     11  C   UNL     1       3.966   4.739  19.025  0.00  0.00    +0.000 C 
BRANCH   4  12
ATOM     12  O   UNL     1       1.455   3.830  19.550  0.00  0.00    +0.000 OA
BRANCH  12  14
ATOM     13  C   UNL     1       2.122   3.218  21.757  0.00  0.00    +0.000 C 
ATOM     14  C   UNL     1       1.063   3.044  20.681  0.00  0.00    +0.000 C 
ENDBRANCH  12  14
ENDBRANCH   4  12
ENDBRANCH   1   9
BRANCH   1  15
ATOM     15  C   UNL     1       7.502   6.610  17.830  0.00  0.00    +0.000 A 
ATOM     16  C   UNL     1       8.307   6.760  18.958  0.00  0.00    +0.000 A 
ATOM     17  C   UNL     1       8.791   8.025  19.289  0.00  0.00    +0.000 A 
ATOM     18  C   UNL     1       8.489   9.135  18.494  0.00  0.00    +0.000 A 
ATOM     19  C   UNL     1       7.701   8.976  17.353  0.00  0.00    +0.000 A 
ATOM     20  C   UNL     1       7.224   7.708  17.008  0.00  0.00    +0.000 A 
BRANCH  18  21
ATOM     21  O   UNL     1       8.978  10.321  18.962  0.00  0.00    +0.000 OA
BRANCH  21  22
ATOM     22  C   UNL     1       9.627  11.163  18.017  0.00  0.00    +0.000 C 
BRANCH  22  23
ATOM     23  C   UNL     1       8.786  12.408  17.779  0.00  0.00    +0.000 C 
ATOM     24  O   UNL     1       7.776  12.476  17.091  0.00  0.00    +0.000 OA
BRANCH  23  25
ATOM     25  O   UNL     1       9.343  13.466  18.444  0.00  0.00    +0.000 OA
ATOM     26  C   UNL     1       8.550  13.938  19.536  0.00  0.00    +0.000 C 
ENDBRANCH  23  25
ENDBRANCH  22  23
ENDBRANCH  21  22
ENDBRANCH  18  21
ENDBRANCH   1  15
TORSDOF 8
ENDMDL
MODEL 2
REMARK VINA RESULT:      -6.3      9.031     11.393
REMARK  Name = 
REMARK  10 active torsions:
REMARK  status: ('A' for Active; 'I' for Inactive)
REMARK    1  A    between atoms: C_1  and  C_2
REMARK    2  A    between atoms: C_2  and  O_3
REMARK    3  A    between atoms: O_3  and  C_4
REMARK    4  A    between atoms: N_9  and  S_10
REMARK    5  A    between atoms: S_10  and  C_13
REMARK    6  A    between atoms: C_16  and  O_17
REMARK    7  A    between atoms: O_17  and  C_18
REMARK    8  A    between atoms: C_18  and  C_19
REMARK    9  A    between atoms: C_19  and  O_21
REMARK   10  A    between atoms: O_21  and  C_22
REMARK                            x       y       z     vdW  Elec       q    Type
REMARK                         _______ _______ _______ _____ _____    ______ ____
ROOT
ATOM      1  S   UNL     1      -0.346  11.094  22.075  0.00  0.00    +0.000 S 
ATOM      2  O   UNL     1      -0.051  10.426  23.325  0.00  0.00    +0.000 OA
ATOM      3  O   UNL     1       0.599  12.023  21.498  0.00  0.00    +0.000 OA
ENDROOT
BRANCH   1   9
ATOM      4  C   UNL     1       2.242   8.140  18.537  0.00  0.00    +0.000 C 
ATOM      5  O   UNL     1       2.396   8.489  17.374  0.00  0.00    +0.000 OA
ATOM      6  N   UNL     1       1.593   8.899  19.489  0.00  0.00    +0.000 N 
ATOM      7  C   UNL     1       0.996  10.172  19.093  0.00  0.00    +0.000 C 
ATOM      8  C   UNL     1      -0.492  10.229  19.476  0.00  0.00    +0.000 C 
ATOM      9  N   UNL     1      -0.719   9.890  20.920  0.00  0.00    +0.000 NA
ATOM     10  C   UNL     1      -0.145   8.536  21.218  0.00  0.00    +0.000 C 
ATOM     11  C   UNL     1       1.351   8.469  20.873  0.00  0.00    +0.000 C 
BRANCH   4  12
ATOM     12  O   UNL     1       2.600   6.920  19.016  0.00  0.00    +0.000 OA
BRANCH  12  14
ATOM     13  C   UNL     1       2.035   4.863  17.947  0.00  0.00    +0.000 C 
ATOM     14  C   UNL     1       3.047   5.994  18.019  0.00  0.00    +0.000 C 
ENDBRANCH  12  14
ENDBRANCH   4  12
ENDBRANCH   1   9
BRANCH   1  15
ATOM     15  C   UNL     1      -1.890  11.949  22.274  0.00  0.00    +0.000 A 
ATOM     16  C   UNL     1      -2.446  12.619  21.184  0.00  0.00    +0.000 A 
ATOM     17  C   UNL     1      -3.659  13.288  21.340  0.00  0.00    +0.000 A 
ATOM     18  C   UNL     1      -4.326  13.279  22.570  0.00  0.00    +0.000 A 
ATOM     19  C   UNL     1      -3.776  12.588  23.651  0.00  0.00    +0.000 A 
ATOM     20  C   UNL     1      -2.566  11.903  23.498  0.00  0.00    +0.000 A 
BRANCH  18  21
ATOM     21  O   UNL     1      -5.473  14.019  22.602  0.00  0.00    +0.000 OA
BRANCH  21  22
ATOM     22  C   UNL     1      -6.533  13.592  21.755  0.00  0.00    +0.000 C 
BRANCH  22  23
ATOM     23  C   UNL     1      -7.006  12.211  22.183  0.00  0.00    +0.000 C 
ATOM     24  O   UNL     1      -7.505  11.922  23.262  0.00  0.00    +0.000 OA
BRANCH  23  25
ATOM     25  O   UNL     1      -6.774  11.319  21.172  0.00  0.00    +0.000 OA
ATOM     26  C   UNL     1      -7.443  11.648  19.952  0.00  0.00    +0.000 C 
ENDBRANCH  23  25
ENDBRANCH  22  23
ENDBRANCH  21  22
ENDBRANCH  18  21
ENDBRANCH   1  15
TORSDOF 8
ENDMDL
MODEL 3
REMARK VINA RESULT:      -6.3      1.163      1.306
REMARK  Name = 
REMARK  10 active torsions:
REMARK  status: ('A' for Active; 'I' for Inactive)
REMARK    1  A    between atoms: C_1  and  C_2
REMARK    2  A    between atoms: C_2  and  O_3
REMARK    3  A    between atoms: O_3  and  C_4
REMARK    4  A    between atoms: N_9  and  S_10
REMARK    5  A    between atoms: S_10  and  C_13
REMARK    6  A    between atoms: C_16  and  O_17
REMARK    7  A    between atoms: O_17  and  C_18
REMARK    8  A    between atoms: C_18  and  C_19
REMARK    9  A    between atoms: C_19  and  O_21
REMARK   10  A    between atoms: O_21  and  C_22
REMARK                            x       y       z     vdW  Elec       q    Type
REMARK                         _______ _______ _______ _____ _____    ______ ____
ROOT
ATOM      1  S   UNL     1       7.000   5.571  17.630  0.00  0.00    +0.000 S 
ATOM      2  O   UNL     1       7.548   4.663  18.614  0.00  0.00    +0.000 OA
ATOM      3  O   UNL     1       7.190   5.325  16.218  0.00  0.00    +0.000 OA
ENDROOT
BRANCH   1   9
ATOM      4  C   UNL     1       2.822   2.397  18.274  0.00  0.00    +0.000 C 
ATOM      5  O   UNL     1       2.096   2.067  17.345  0.00  0.00    +0.000 OA
ATOM      6  N   UNL     1       3.933   3.204  18.134  0.00  0.00    +0.000 N 
ATOM      7  C   UNL     1       4.247   3.755  16.818  0.00  0.00    +0.000 C 
ATOM      8  C   UNL     1       4.379   5.285  16.874  0.00  0.00    +0.000 C 
ATOM      9  N   UNL     1       5.328   5.732  17.947  0.00  0.00    +0.000 NA
ATOM     10  C   UNL     1       4.886   5.188  19.273  0.00  0.00    +0.000 C 
ATOM     11  C   UNL     1       4.779   3.654  19.247  0.00  0.00    +0.000 C 
BRANCH   4  12
ATOM     12  O   UNL     1       2.572   2.097  19.575  0.00  0.00    +0.000 OA
BRANCH  12  14
ATOM     13  C   UNL     1       1.589   2.886  21.600  0.00  0.00    +0.000 C 
ATOM     14  C   UNL     1       1.382   2.691  20.108  0.00  0.00    +0.000 C 
ENDBRANCH  12  14
ENDBRANCH   4  12
ENDBRANCH   1   9
BRANCH   1  15
ATOM     15  C   UNL     1       7.632   7.192  17.984  0.00  0.00    +0.000 A 
ATOM     16  C   UNL     1       8.503   7.368  19.059  0.00  0.00    +0.000 A 
ATOM     17  C   UNL     1       9.000   8.641  19.335  0.00  0.00    +0.000 A 
ATOM     18  C   UNL     1       8.645   9.734  18.537  0.00  0.00    +0.000 A 
ATOM     19  C   UNL     1       7.791   9.549  17.449  0.00  0.00    +0.000 A 
ATOM     20  C   UNL     1       7.300   8.272  17.158  0.00  0.00    +0.000 A 
BRANCH  18  21
ATOM     21  O   UNL     1       9.156  10.930  18.950  0.00  0.00    +0.000 OA
BRANCH  21  22
ATOM     22  C   UNL     1       9.113  12.002  18.015  0.00  0.00    +0.000 C 
BRANCH  22  23
ATOM     23  C   UNL     1      10.528  12.462  17.700  0.00  0.00    +0.000 C 
ATOM     24  O   UNL     1      11.528  11.757  17.676  0.00  0.00    +0.000 OA
BRANCH  23  25
ATOM     25  O   UNL     1      10.524  13.808  17.457  0.00  0.00    +0.000 OA
ATOM     26  C   UNL     1       9.379  14.483  17.983  0.00  0.00    +0.000 C 
ENDBRANCH  23  25
ENDBRANCH  22  23
ENDBRANCH  21  22
ENDBRANCH  18  21
ENDBRANCH   1  15
TORSDOF 8
ENDMDL
MODEL 4
REMARK VINA RESULT:      -6.2      0.955      1.584
REMARK  Name = 
REMARK  10 active torsions:
REMARK  status: ('A' for Active; 'I' for Inactive)
REMARK    1  A    between atoms: C_1  and  C_2
REMARK    2  A    between atoms: C_2  and  O_3
REMARK    3  A    between atoms: O_3  and  C_4
REMARK    4  A    between atoms: N_9  and  S_10
REMARK    5  A    between atoms: S_10  and  C_13
REMARK    6  A    between atoms: C_16  and  O_17
REMARK    7  A    between atoms: O_17  and  C_18
REMARK    8  A    between atoms: C_18  and  C_19
REMARK    9  A    between atoms: C_19  and  O_21
REMARK   10  A    between atoms: O_21  and  C_22
REMARK                            x       y       z     vdW  Elec       q    Type
REMARK                         _______ _______ _______ _____ _____    ______ ____
ROOT
ATOM      1  S   UNL     1       6.908   5.078  17.037  0.00  0.00    +0.000 S 
ATOM      2  O   UNL     1       6.920   4.089  18.094  0.00  0.00    +0.000 OA
ATOM      3  O   UNL     1       7.574   4.817  15.781  0.00  0.00    +0.000 OA
ENDROOT
BRANCH   1   9
ATOM      4  C   UNL     1       2.116   3.492  18.607  0.00  0.00    +0.000 C 
ATOM      5  O   UNL     1       1.481   2.628  18.016  0.00  0.00    +0.000 OA
ATOM      6  N   UNL     1       3.378   3.909  18.237  0.00  0.00    +0.000 N 
ATOM      7  C   UNL     1       3.987   3.343  17.036  0.00  0.00    +0.000 C 
ATOM      8  C   UNL     1       4.423   4.447  16.061  0.00  0.00    +0.000 C 
ATOM      9  N   UNL     1       5.277   5.486  16.727  0.00  0.00    +0.000 NA
ATOM     10  C   UNL     1       4.543   6.070  17.898  0.00  0.00    +0.000 C 
ATOM     11  C   UNL     1       4.127   4.983  18.903  0.00  0.00    +0.000 C 
BRANCH   4  12
ATOM     12  O   UNL     1       1.622   4.220  19.642  0.00  0.00    +0.000 OA
BRANCH  12  14
ATOM     13  C   UNL     1       1.719   2.872  21.608  0.00  0.00    +0.000 C 
ATOM     14  C   UNL     1       0.805   3.481  20.557  0.00  0.00    +0.000 C 
ENDBRANCH  12  14
ENDBRANCH   4  12
ENDBRANCH   1   9
BRANCH   1  15
ATOM     15  C   UNL     1       7.578   6.582  17.701  0.00  0.00    +0.000 A 
ATOM     16  C   UNL     1       7.411   7.775  16.997  0.00  0.00    +0.000 A 
ATOM     17  C   UNL     1       7.935   8.956  17.520  0.00  0.00    +0.000 A 
ATOM     18  C   UNL     1       8.610   8.956  18.746  0.00  0.00    +0.000 A 
ATOM     19  C   UNL     1       8.754   7.764  19.457  0.00  0.00    +0.000 A 
ATOM     20  C   UNL     1       8.219   6.578  18.944  0.00  0.00    +0.000 A 
BRANCH  18  21
ATOM     21  O   UNL     1       9.121  10.167  19.114  0.00  0.00    +0.000 OA
BRANCH  21  22
ATOM     22  C   UNL     1       9.086  11.201  18.138  0.00  0.00    +0.000 C 
BRANCH  22  23
ATOM     23  C   UNL     1      10.413  11.945  18.132  0.00  0.00    +0.000 C 
ATOM     24  O   UNL     1      11.436  11.599  18.707  0.00  0.00    +0.000 OA
BRANCH  23  25
ATOM     25  O   UNL     1      10.289  13.088  17.391  0.00  0.00    +0.000 OA
ATOM     26  C   UNL     1      11.467  13.425  16.655  0.00  0.00    +0.000 C 
ENDBRANCH  23  25
ENDBRANCH  22  23
ENDBRANCH  21  22
ENDBRANCH  18  21
ENDBRANCH   1  15
TORSDOF 8
ENDMDL
MODEL 5
REMARK VINA RESULT:      -6.2      5.138      7.444
REMARK  Name = 
REMARK  10 active torsions:
REMARK  status: ('A' for Active; 'I' for Inactive)
REMARK    1  A    between atoms: C_1  and  C_2
REMARK    2  A    between atoms: C_2  and  O_3
REMARK    3  A    between atoms: O_3  and  C_4
REMARK    4  A    between atoms: N_9  and  S_10
REMARK    5  A    between atoms: S_10  and  C_13
REMARK    6  A    between atoms: C_16  and  O_17
REMARK    7  A    between atoms: O_17  and  C_18
REMARK    8  A    between atoms: C_18  and  C_19
REMARK    9  A    between atoms: C_19  and  O_21
REMARK   10  A    between atoms: O_21  and  C_22
REMARK                            x       y       z     vdW  Elec       q    Type
REMARK                         _______ _______ _______ _____ _____    ______ ____
ROOT
ATOM      1  S   UNL     1       2.939   5.898  19.148  0.00  0.00    +0.000 S 
ATOM      2  O   UNL     1       2.343   5.505  17.889  0.00  0.00    +0.000 OA
ATOM      3  O   UNL     1       3.024   4.960  20.245  0.00  0.00    +0.000 OA
ENDROOT
BRANCH   1   9
ATOM      4  C   UNL     1       6.985   4.736  15.951  0.00  0.00    +0.000 C 
ATOM      5  O   UNL     1       7.900   3.996  16.288  0.00  0.00    +0.000 OA
ATOM      6  N   UNL     1       5.903   5.039  16.753  0.00  0.00    +0.000 N 
ATOM      7  C   UNL     1       5.857   4.502  18.111  0.00  0.00    +0.000 C 
ATOM      8  C   UNL     1       5.668   5.623  19.144  0.00  0.00    +0.000 C 
ATOM      9  N   UNL     1       4.501   6.507  18.815  0.00  0.00    +0.000 NA
ATOM     10  C   UNL     1       4.671   7.077  17.437  0.00  0.00    +0.000 C 
ATOM     11  C   UNL     1       4.829   5.969  16.383  0.00  0.00    +0.000 C 
BRANCH   4  12
ATOM     12  O   UNL     1       6.965   5.434  14.785  0.00  0.00    +0.000 OA
BRANCH  12  14
ATOM     13  C   UNL     1       5.908   3.879  13.317  0.00  0.00    +0.000 C 
ATOM     14  C   UNL     1       7.188   4.643  13.612  0.00  0.00    +0.000 C 
ENDBRANCH  12  14
ENDBRANCH   4  12
ENDBRANCH   1   9
BRANCH   1  15
ATOM     15  C   UNL     1       2.067   7.332  19.731  0.00  0.00    +0.000 A 
ATOM     16  C   UNL     1       1.594   7.359  21.042  0.00  0.00    +0.000 A 
ATOM     17  C   UNL     1       0.912   8.485  21.499  0.00  0.00    +0.000 A 
ATOM     18  C   UNL     1       0.713   9.588  20.661  0.00  0.00    +0.000 A 
ATOM     19  C   UNL     1       1.209   9.565  19.357  0.00  0.00    +0.000 A 
ATOM     20  C   UNL     1       1.906   8.443  18.896  0.00  0.00    +0.000 A 
BRANCH  18  21
ATOM     21  O   UNL     1      -0.018  10.599  21.214  0.00  0.00    +0.000 OA
BRANCH  21  22
ATOM     22  C   UNL     1      -0.860  10.257  22.309  0.00  0.00    +0.000 C 
BRANCH  22  23
ATOM     23  C   UNL     1      -1.398  11.523  22.957  0.00  0.00    +0.000 C 
ATOM     24  O   UNL     1      -2.510  11.665  23.449  0.00  0.00    +0.000 OA
BRANCH  23  25
ATOM     25  O   UNL     1      -0.448  12.505  22.893  0.00  0.00    +0.000 OA
ATOM     26  C   UNL     1      -0.971  13.787  22.537  0.00  0.00    +0.000 C 
ENDBRANCH  23  25
ENDBRANCH  22  23
ENDBRANCH  21  22
ENDBRANCH  18  21
ENDBRANCH   1  15
TORSDOF 8
ENDMDL
MODEL 6
REMARK VINA RESULT:      -6.2      2.757      4.737
REMARK  Name = 
REMARK  10 active torsions:
REMARK  status: ('A' for Active; 'I' for Inactive)
REMARK    1  A    between atoms: C_1  and  C_2
REMARK    2  A    between atoms: C_2  and  O_3
REMARK    3  A    between atoms: O_3  and  C_4
REMARK    4  A    between atoms: N_9  and  S_10
REMARK    5  A    between atoms: S_10  and  C_13
REMARK    6  A    between atoms: C_16  and  O_17
REMARK    7  A    between atoms: O_17  and  C_18
REMARK    8  A    between atoms: C_18  and  C_19
REMARK    9  A    between atoms: C_19  and  O_21
REMARK   10  A    between atoms: O_21  and  C_22
REMARK                            x       y       z     vdW  Elec       q    Type
REMARK                         _______ _______ _______ _____ _____    ______ ____
ROOT
ATOM      1  S   UNL     1       3.236   2.652  18.798  0.00  0.00    +0.000 S 
ATOM      2  O   UNL     1       3.563   2.394  20.183  0.00  0.00    +0.000 OA
ATOM      3  O   UNL     1       3.088   1.560  17.862  0.00  0.00    +0.000 OA
ENDROOT
BRANCH   1   9
ATOM      4  C   UNL     1       1.788   7.554  20.148  0.00  0.00    +0.000 C 
ATOM      5  O   UNL     1       1.340   7.828  21.254  0.00  0.00    +0.000 OA
ATOM      6  N   UNL     1       2.197   6.291  19.774  0.00  0.00    +0.000 N 
ATOM      7  C   UNL     1       2.040   5.187  20.718  0.00  0.00    +0.000 C 
ATOM      8  C   UNL     1       1.247   4.030  20.092  0.00  0.00    +0.000 C 
ATOM      9  N   UNL     1       1.815   3.604  18.770  0.00  0.00    +0.000 NA
ATOM     10  C   UNL     1       1.865   4.779  17.838  0.00  0.00    +0.000 C 
ATOM     11  C   UNL     1       2.683   5.936  18.434  0.00  0.00    +0.000 C 
BRANCH   4  12
ATOM     12  O   UNL     1       1.847   8.435  19.115  0.00  0.00    +0.000 OA
BRANCH  12  14
ATOM     13  C   UNL     1       1.638  10.734  18.516  0.00  0.00    +0.000 C 
ATOM     14  C   UNL     1       0.988   9.573  19.250  0.00  0.00    +0.000 C 
ENDBRANCH  12  14
ENDBRANCH   4  12
ENDBRANCH   1   9
BRANCH   1  15
ATOM     15  C   UNL     1       4.468   3.755  18.150  0.00  0.00    +0.000 A 
ATOM     16  C   UNL     1       5.310   4.432  19.031  0.00  0.00    +0.000 A 
ATOM     17  C   UNL     1       6.279   5.296  18.522  0.00  0.00    +0.000 A 
ATOM     18  C   UNL     1       6.421   5.475  17.142  0.00  0.00    +0.000 A 
ATOM     19  C   UNL     1       5.590   4.777  16.264  0.00  0.00    +0.000 A 
ATOM     20  C   UNL     1       4.625   3.899  16.768  0.00  0.00    +0.000 A 
BRANCH  18  21
ATOM     21  O   UNL     1       7.367   6.390  16.780  0.00  0.00    +0.000 OA
BRANCH  21  22
ATOM     22  C   UNL     1       7.107   7.747  17.116  0.00  0.00    +0.000 C 
BRANCH  22  23
ATOM     23  C   UNL     1       8.157   8.242  18.099  0.00  0.00    +0.000 C 
ATOM     24  O   UNL     1       8.700   7.576  18.970  0.00  0.00    +0.000 OA
BRANCH  23  25
ATOM     25  O   UNL     1       8.400   9.569  17.874  0.00  0.00    +0.000 OA
ATOM     26  C   UNL     1       9.093  10.215  18.945  0.00  0.00    +0.000 C 
ENDBRANCH  23  25
ENDBRANCH  22  23
ENDBRANCH  21  22
ENDBRANCH  18  21
ENDBRANCH   1  15
TORSDOF 8
ENDMDL
MODEL 7
REMARK VINA RESULT:      -6.2      1.353      1.856
REMARK  Name = 
REMARK  10 active torsions:
REMARK  status: ('A' for Active; 'I' for Inactive)
REMARK    1  A    between atoms: C_1  and  C_2
REMARK    2  A    between atoms: C_2  and  O_3
REMARK    3  A    between atoms: O_3  and  C_4
REMARK    4  A    between atoms: N_9  and  S_10
REMARK    5  A    between atoms: S_10  and  C_13
REMARK    6  A    between atoms: C_16  and  O_17
REMARK    7  A    between atoms: O_17  and  C_18
REMARK    8  A    between atoms: C_18  and  C_19
REMARK    9  A    between atoms: C_19  and  O_21
REMARK   10  A    between atoms: O_21  and  C_22
REMARK                            x       y       z     vdW  Elec       q    Type
REMARK                         _______ _______ _______ _____ _____    ______ ____
ROOT
ATOM      1  S   UNL     1       7.093   5.588  17.850  0.00  0.00    +0.000 S 
ATOM      2  O   UNL     1       7.538   4.829  18.999  0.00  0.00    +0.000 OA
ATOM      3  O   UNL     1       7.421   5.154  16.510  0.00  0.00    +0.000 OA
ENDROOT
BRANCH   1   9
ATOM      4  C   UNL     1       2.843   2.465  18.207  0.00  0.00    +0.000 C 
ATOM      5  O   UNL     1       2.218   2.086  17.225  0.00  0.00    +0.000 OA
ATOM      6  N   UNL     1       3.969   3.259  18.145  0.00  0.00    +0.000 N 
ATOM      7  C   UNL     1       4.427   3.737  16.843  0.00  0.00    +0.000 C 
ATOM      8  C   UNL     1       4.566   5.268  16.831  0.00  0.00    +0.000 C 
ATOM      9  N   UNL     1       5.398   5.770  17.974  0.00  0.00    +0.000 NA
ATOM     10  C   UNL     1       4.810   5.300  19.273  0.00  0.00    +0.000 C 
ATOM     11  C   UNL     1       4.694   3.768  19.317  0.00  0.00    +0.000 C 
BRANCH   4  12
ATOM     12  O   UNL     1       2.451   2.236  19.488  0.00  0.00    +0.000 OA
BRANCH  12  14
ATOM     13  C   UNL     1       1.198   3.882  20.676  0.00  0.00    +0.000 C 
ATOM     14  C   UNL     1       1.114   2.653  19.787  0.00  0.00    +0.000 C 
ENDBRANCH  12  14
ENDBRANCH   4  12
ENDBRANCH   1   9
BRANCH   1  15
ATOM     15  C   UNL     1       7.688   7.250  18.039  0.00  0.00    +0.000 A 
ATOM     16  C   UNL     1       7.226   8.245  17.178  0.00  0.00    +0.000 A 
ATOM     17  C   UNL     1       7.693   9.550  17.330  0.00  0.00    +0.000 A 
ATOM     18  C   UNL     1       8.604   9.869  18.341  0.00  0.00    +0.000 A 
ATOM     19  C   UNL     1       9.047   8.874  19.214  0.00  0.00    +0.000 A 
ATOM     20  C   UNL     1       8.572   7.566  19.077  0.00  0.00    +0.000 A 
BRANCH  18  21
ATOM     21  O   UNL     1       9.022  11.169  18.342  0.00  0.00    +0.000 OA
BRANCH  21  22
ATOM     22  C   UNL     1      10.352  11.413  18.784  0.00  0.00    +0.000 C 
BRANCH  22  23
ATOM     23  C   UNL     1      10.327  12.321  20.005  0.00  0.00    +0.000 C 
ATOM     24  O   UNL     1      10.308  11.958  21.173  0.00  0.00    +0.000 OA
BRANCH  23  25
ATOM     25  O   UNL     1      10.312  13.627  19.599  0.00  0.00    +0.000 OA
ATOM     26  C   UNL     1      11.596  14.122  19.210  0.00  0.00    +0.000 C 
ENDBRANCH  23  25
ENDBRANCH  22  23
ENDBRANCH  21  22
ENDBRANCH  18  21
ENDBRANCH   1  15
TORSDOF 8
ENDMDL
MODEL 8
REMARK VINA RESULT:      -6.1      4.207      7.006
REMARK  Name = 
REMARK  10 active torsions:
REMARK  status: ('A' for Active; 'I' for Inactive)
REMARK    1  A    between atoms: C_1  and  C_2
REMARK    2  A    between atoms: C_2  and  O_3
REMARK    3  A    between atoms: O_3  and  C_4
REMARK    4  A    between atoms: N_9  and  S_10
REMARK    5  A    between atoms: S_10  and  C_13
REMARK    6  A    between atoms: C_16  and  O_17
REMARK    7  A    between atoms: O_17  and  C_18
REMARK    8  A    between atoms: C_18  and  C_19
REMARK    9  A    between atoms: C_19  and  O_21
REMARK   10  A    between atoms: O_21  and  C_22
REMARK                            x       y       z     vdW  Elec       q    Type
REMARK                         _______ _______ _______ _____ _____    ______ ____
ROOT
ATOM      1  S   UNL     1       4.382   5.044  18.751  0.00  0.00    +0.000 S 
ATOM      2  O   UNL     1       4.055   3.643  18.903  0.00  0.00    +0.000 OA
ATOM      3  O   UNL     1       5.655   5.555  19.208  0.00  0.00    +0.000 OA
ENDROOT
BRANCH   1   9
ATOM      4  C   UNL     1       7.176   4.705  14.277  0.00  0.00    +0.000 C 
ATOM      5  O   UNL     1       7.903   5.609  13.883  0.00  0.00    +0.000 OA
ATOM      6  N   UNL     1       6.454   4.754  15.452  0.00  0.00    +0.000 N 
ATOM      7  C   UNL     1       6.499   5.970  16.260  0.00  0.00    +0.000 C 
ATOM      8  C   UNL     1       5.084   6.503  16.537  0.00  0.00    +0.000 C 
ATOM      9  N   UNL     1       4.181   5.447  17.102  0.00  0.00    +0.000 NA
ATOM     10  C   UNL     1       4.132   4.272  16.171  0.00  0.00    +0.000 C 
ATOM     11  C   UNL     1       5.535   3.702  15.907  0.00  0.00    +0.000 C 
BRANCH   4  12
ATOM     12  O   UNL     1       6.908   3.582  13.561  0.00  0.00    +0.000 OA
BRANCH  12  14
ATOM     13  C   UNL     1       5.250   3.141  11.903  0.00  0.00    +0.000 C 
ATOM     14  C   UNL     1       6.584   3.813  12.185  0.00  0.00    +0.000 C 
ENDBRANCH  12  14
ENDBRANCH   4  12
ENDBRANCH   1   9
BRANCH   1  15
ATOM     15  C   UNL     1       3.106   5.985  19.551  0.00  0.00    +0.000 A 
ATOM     16  C   UNL     1       2.900   7.313  19.181  0.00  0.00    +0.000 A 
ATOM     17  C   UNL     1       1.897   8.050  19.808  0.00  0.00    +0.000 A 
ATOM     18  C   UNL     1       1.089   7.465  20.789  0.00  0.00    +0.000 A 
ATOM     19  C   UNL     1       1.284   6.128  21.140  0.00  0.00    +0.000 A 
ATOM     20  C   UNL     1       2.280   5.380  20.505  0.00  0.00    +0.000 A 
BRANCH  18  21
ATOM     21  O   UNL     1       0.184   8.312  21.361  0.00  0.00    +0.000 OA
BRANCH  21  22
ATOM     22  C   UNL     1      -0.085   9.525  20.668  0.00  0.00    +0.000 C 
BRANCH  22  23
ATOM     23  C   UNL     1       0.032  10.699  21.628  0.00  0.00    +0.000 C 
ATOM     24  O   UNL     1      -0.824  11.072  22.419  0.00  0.00    +0.000 OA
BRANCH  23  25
ATOM     25  O   UNL     1       1.249  11.300  21.464  0.00  0.00    +0.000 OA
ATOM     26  C   UNL     1       1.196  12.504  20.696  0.00  0.00    +0.000 C 
ENDBRANCH  23  25
ENDBRANCH  22  23
ENDBRANCH  21  22
ENDBRANCH  18  21
ENDBRANCH   1  15
TORSDOF 8
ENDMDL
MODEL 9
REMARK VINA RESULT:      -6.1      3.692      6.963
REMARK  Name = 
REMARK  10 active torsions:
REMARK  status: ('A' for Active; 'I' for Inactive)
REMARK    1  A    between atoms: C_1  and  C_2
REMARK    2  A    between atoms: C_2  and  O_3
REMARK    3  A    between atoms: O_3  and  C_4
REMARK    4  A    between atoms: N_9  and  S_10
REMARK    5  A    between atoms: S_10  and  C_13
REMARK    6  A    between atoms: C_16  and  O_17
REMARK    7  A    between atoms: O_17  and  C_18
REMARK    8  A    between atoms: C_18  and  C_19
REMARK    9  A    between atoms: C_19  and  O_21
REMARK   10  A    between atoms: O_21  and  C_22
REMARK                            x       y       z     vdW  Elec       q    Type
REMARK                         _______ _______ _______ _____ _____    ______ ____
ROOT
ATOM      1  S   UNL     1       2.528   3.451  18.182  0.00  0.00    +0.000 S 
ATOM      2  O   UNL     1       2.240   3.510  16.765  0.00  0.00    +0.000 OA
ATOM      3  O   UNL     1       1.850   2.497  19.030  0.00  0.00    +0.000 OA
ENDROOT
BRANCH   1   9
ATOM      4  C   UNL     1       6.935   6.057  16.863  0.00  0.00    +0.000 C 
ATOM      5  O   UNL     1       7.533   5.852  15.815  0.00  0.00    +0.000 OA
ATOM      6  N   UNL     1       5.770   5.411  17.224  0.00  0.00    +0.000 N 
ATOM      7  C   UNL     1       5.233   4.375  16.345  0.00  0.00    +0.000 C 
ATOM      8  C   UNL     1       5.021   3.057  17.106  0.00  0.00    +0.000 C 
ATOM      9  N   UNL     1       4.217   3.249  18.358  0.00  0.00    +0.000 NA
ATOM     10  C   UNL     1       4.882   4.268  19.236  0.00  0.00    +0.000 C 
ATOM     11  C   UNL     1       5.073   5.606  18.503  0.00  0.00    +0.000 C 
BRANCH   4  12
ATOM     12  O   UNL     1       7.393   6.871  17.850  0.00  0.00    +0.000 OA
BRANCH  12  14
ATOM     13  C   UNL     1       8.538   8.869  18.470  0.00  0.00    +0.000 C 
ATOM     14  C   UNL     1       7.608   8.230  17.453  0.00  0.00    +0.000 C 
ENDBRANCH  12  14
ENDBRANCH   4  12
ENDBRANCH   1   9
BRANCH   1  15
ATOM     15  C   UNL     1       2.246   5.069  18.856  0.00  0.00    +0.000 A 
ATOM     16  C   UNL     1       2.263   6.176  18.008  0.00  0.00    +0.000 A 
ATOM     17  C   UNL     1       2.039   7.446  18.537  0.00  0.00    +0.000 A 
ATOM     18  C   UNL     1       1.785   7.615  19.903  0.00  0.00    +0.000 A 
ATOM     19  C   UNL     1       1.747   6.502  20.743  0.00  0.00    +0.000 A 
ATOM     20  C   UNL     1       1.957   5.223  20.216  0.00  0.00    +0.000 A 
BRANCH  18  21
ATOM     21  O   UNL     1       1.640   8.913  20.299  0.00  0.00    +0.000 OA
BRANCH  21  22
ATOM     22  C   UNL     1       0.446   9.239  21.001  0.00  0.00    +0.000 C 
BRANCH  22  23
ATOM     23  C   UNL     1       0.755   9.420  22.479  0.00  0.00    +0.000 C 
ATOM     24  O   UNL     1       1.870   9.462  22.984  0.00  0.00    +0.000 OA
BRANCH  23  25
ATOM     25  O   UNL     1      -0.416   9.514  23.179  0.00  0.00    +0.000 OA
ATOM     26  C   UNL     1      -1.063  10.782  23.047  0.00  0.00    +0.000 C 
ENDBRANCH  23  25
ENDBRANCH  22  23
ENDBRANCH  21  22
ENDBRANCH  18  21
ENDBRANCH   1  15
TORSDOF 8
ENDMDL
