MODEL 1
REMARK VINA RESULT:      -5.2      0.000      0.000
REMARK  Name = 
REMARK  4 active torsions:
REMARK  status: ('A' for Active; 'I' for Inactive)
REMARK    1  A    between atoms: C_1  and  C_2
REMARK    2  A    between atoms: C_2  and  N_3
REMARK    3  A    between atoms: N_3  and  C_4
REMARK    4  A    between atoms: C_8  and  C_9
REMARK                            x       y       z     vdW  Elec       q    Type
REMARK                         _______ _______ _______ _____ _____    ______ ____
ROOT
ATOM      1  C   UNL     1       4.144   3.708  18.754  0.00  0.00    +0.000 A 
ATOM      2  C   UNL     1       3.391   3.978  17.607  0.00  0.00    +0.000 A 
ATOM      3  C   UNL     1       1.995   3.931  17.628  0.00  0.00    +0.000 A 
ATOM      4  C   UNL     1       1.324   3.570  18.792  0.00  0.00    +0.000 A 
ATOM      5  C   UNL     1       2.046   3.251  19.944  0.00  0.00    +0.000 A 
ATOM      6  C   UNL     1       1.338   2.825  21.195  0.00  0.00    +0.000 C 
ATOM      7  C   UNL     1       3.450   3.329  19.913  0.00  0.00    +0.000 A 
ENDROOT
BRANCH   1   8
ATOM      8  N   UNL     1       5.545   3.686  18.778  0.00  0.00    +0.000 N 
ATOM      9  H   UNL     1       5.892   3.142  19.564  0.00  0.00    +0.000 HD
BRANCH   8  11
ATOM     10  C   UNL     1       7.475   4.628  17.613  0.00  0.00    +0.000 C 
ATOM     11  C   UNL     1       6.288   4.913  18.520  0.00  0.00    +0.000 C 
ENDBRANCH   8  11
ENDBRANCH   1   8
TORSDOF 2
ENDMDL
MODEL 2
REMARK VINA RESULT:      -5.2      1.159      1.207
REMARK  Name = 
REMARK  4 active torsions:
REMARK  status: ('A' for Active; 'I' for Inactive)
REMARK    1  A    between atoms: C_1  and  C_2
REMARK    2  A    between atoms: C_2  and  N_3
REMARK    3  A    between atoms: N_3  and  C_4
REMARK    4  A    between atoms: C_8  and  C_9
REMARK                            x       y       z     vdW  Elec       q    Type
REMARK                         _______ _______ _______ _____ _____    ______ ____
ROOT
ATOM      1  C   UNL     1       4.238   3.245  18.914  0.00  0.00    +0.000 A 
ATOM      2  C   UNL     1       3.668   2.676  17.770  0.00  0.00    +0.000 A 
ATOM      3  C   UNL     1       2.356   2.197  17.776  0.00  0.00    +0.000 A 
ATOM      4  C   UNL     1       1.599   2.240  18.943  0.00  0.00    +0.000 A 
ATOM      5  C   UNL     1       2.152   2.761  20.115  0.00  0.00    +0.000 A 
ATOM      6  C   UNL     1       1.362   2.781  21.389  0.00  0.00    +0.000 C 
ATOM      7  C   UNL     1       3.466   3.263  20.085  0.00  0.00    +0.000 A 
ENDROOT
BRANCH   1   8
ATOM      8  N   UNL     1       5.565   3.690  18.982  0.00  0.00    +0.000 N 
ATOM      9  H   UNL     1       6.131   3.077  19.563  0.00  0.00    +0.000 HD
BRANCH   8  11
ATOM     10  C   UNL     1       5.307   5.902  17.978  0.00  0.00    +0.000 C 
ATOM     11  C   UNL     1       5.840   5.110  19.161  0.00  0.00    +0.000 C 
ENDBRANCH   8  11
ENDBRANCH   1   8
TORSDOF 2
ENDMDL
MODEL 3
REMARK VINA RESULT:      -5.1      1.075      1.096
REMARK  Name = 
REMARK  4 active torsions:
REMARK  status: ('A' for Active; 'I' for Inactive)
REMARK    1  A    between atoms: C_1  and  C_2
REMARK    2  A    between atoms: C_2  and  N_3
REMARK    3  A    between atoms: N_3  and  C_4
REMARK    4  A    between atoms: C_8  and  C_9
REMARK                            x       y       z     vdW  Elec       q    Type
REMARK                         _______ _______ _______ _____ _____    ______ ____
ROOT
ATOM      1  C   UNL     1       4.316   3.540  18.702  0.00  0.00    +0.000 A 
ATOM      2  C   UNL     1       3.843   2.627  17.754  0.00  0.00    +0.000 A 
ATOM      3  C   UNL     1       2.486   2.308  17.669  0.00  0.00    +0.000 A 
ATOM      4  C   UNL     1       1.577   2.867  18.561  0.00  0.00    +0.000 A 
ATOM      5  C   UNL     1       2.021   3.749  19.549  0.00  0.00    +0.000 A 
ATOM      6  C   UNL     1       1.059   4.331  20.541  0.00  0.00    +0.000 C 
ATOM      7  C   UNL     1       3.387   4.080  19.605  0.00  0.00    +0.000 A 
ENDROOT
BRANCH   1   8
ATOM      8  N   UNL     1       5.671   3.856  18.870  0.00  0.00    +0.000 N 
ATOM      9  H   UNL     1       6.152   3.140  19.408  0.00  0.00    +0.000 HD
BRANCH   8  11
ATOM     10  C   UNL     1       7.439   5.527  18.655  0.00  0.00    +0.000 C 
ATOM     11  C   UNL     1       6.056   5.221  19.205  0.00  0.00    +0.000 C 
ENDBRANCH   8  11
ENDBRANCH   1   8
TORSDOF 2
ENDMDL
MODEL 4
REMARK VINA RESULT:      -5.0      1.324      1.404
REMARK  Name = 
REMARK  4 active torsions:
REMARK  status: ('A' for Active; 'I' for Inactive)
REMARK    1  A    between atoms: C_1  and  C_2
REMARK    2  A    between atoms: C_2  and  N_3
REMARK    3  A    between atoms: N_3  and  C_4
REMARK    4  A    between atoms: C_8  and  C_9
REMARK                            x       y       z     vdW  Elec       q    Type
REMARK                         _______ _______ _______ _____ _____    ______ ____
ROOT
ATOM      1  C   UNL     1       4.659   4.044  18.469  0.00  0.00    +0.000 A 
ATOM      2  C   UNL     1       3.932   3.463  17.425  0.00  0.00    +0.000 A 
ATOM      3  C   UNL     1       2.544   3.594  17.349  0.00  0.00    +0.000 A 
ATOM      4  C   UNL     1       1.848   4.277  18.341  0.00  0.00    +0.000 A 
ATOM      5  C   UNL     1       2.538   4.832  19.421  0.00  0.00    +0.000 A 
ATOM      6  C   UNL     1       1.799   5.540  20.517  0.00  0.00    +0.000 C 
ATOM      7  C   UNL     1       3.938   4.714  19.470  0.00  0.00    +0.000 A 
ENDROOT
BRANCH   1   8
ATOM      8  N   UNL     1       6.044   3.899  18.628  0.00  0.00    +0.000 N 
ATOM      9  H   UNL     1       6.297   3.826  19.610  0.00  0.00    +0.000 HD
BRANCH   8  11
ATOM     10  C   UNL     1       7.629   5.756  18.710  0.00  0.00    +0.000 C 
ATOM     11  C   UNL     1       6.949   4.718  17.832  0.00  0.00    +0.000 C 
ENDBRANCH   8  11
ENDBRANCH   1   8
TORSDOF 2
ENDMDL
MODEL 5
REMARK VINA RESULT:      -5.0      1.766      2.404
REMARK  Name = 
REMARK  4 active torsions:
REMARK  status: ('A' for Active; 'I' for Inactive)
REMARK    1  A    between atoms: C_1  and  C_2
REMARK    2  A    between atoms: C_2  and  N_3
REMARK    3  A    between atoms: N_3  and  C_4
REMARK    4  A    between atoms: C_8  and  C_9
REMARK                            x       y       z     vdW  Elec       q    Type
REMARK                         _______ _______ _______ _____ _____    ______ ____
ROOT
ATOM      1  C   UNL     1       4.773   4.260  18.173  0.00  0.00    +0.000 A 
ATOM      2  C   UNL     1       3.828   3.280  17.850  0.00  0.00    +0.000 A 
ATOM      3  C   UNL     1       2.484   3.605  17.660  0.00  0.00    +0.000 A 
ATOM      4  C   UNL     1       2.047   4.915  17.832  0.00  0.00    +0.000 A 
ATOM      5  C   UNL     1       2.956   5.910  18.198  0.00  0.00    +0.000 A 
ATOM      6  C   UNL     1       2.495   7.320  18.422  0.00  0.00    +0.000 C 
ATOM      7  C   UNL     1       4.311   5.572  18.359  0.00  0.00    +0.000 A 
ENDROOT
BRANCH   1   8
ATOM      8  N   UNL     1       6.123   3.984  18.429  0.00  0.00    +0.000 N 
ATOM      9  H   UNL     1       6.292   3.865  19.425  0.00  0.00    +0.000 HD
BRANCH   8  11
ATOM     10  C   UNL     1       7.071   4.480  16.233  0.00  0.00    +0.000 C 
ATOM     11  C   UNL     1       7.156   4.736  17.729  0.00  0.00    +0.000 C 
ENDBRANCH   8  11
ENDBRANCH   1   8
TORSDOF 2
ENDMDL
MODEL 6
REMARK VINA RESULT:      -5.0      2.854      3.186
REMARK  Name = 
REMARK  4 active torsions:
REMARK  status: ('A' for Active; 'I' for Inactive)
REMARK    1  A    between atoms: C_1  and  C_2
REMARK    2  A    between atoms: C_2  and  N_3
REMARK    3  A    between atoms: N_3  and  C_4
REMARK    4  A    between atoms: C_8  and  C_9
REMARK                            x       y       z     vdW  Elec       q    Type
REMARK                         _______ _______ _______ _____ _____    ______ ____
ROOT
ATOM      1  C   UNL     1       2.152   5.516  19.203  0.00  0.00    +0.000 A 
ATOM      2  C   UNL     1       1.941   4.835  17.999  0.00  0.00    +0.000 A 
ATOM      3  C   UNL     1       1.513   3.506  17.985  0.00  0.00    +0.000 A 
ATOM      4  C   UNL     1       1.328   2.816  19.179  0.00  0.00    +0.000 A 
ATOM      5  C   UNL     1       1.572   3.452  20.398  0.00  0.00    +0.000 A 
ATOM      6  C   UNL     1       1.412   2.711  21.692  0.00  0.00    +0.000 C 
ATOM      7  C   UNL     1       1.977   4.799  20.396  0.00  0.00    +0.000 A 
ENDROOT
BRANCH   1   8
ATOM      8  N   UNL     1       2.633   6.830  19.278  0.00  0.00    +0.000 N 
ATOM      9  H   UNL     1       2.128   7.369  19.977  0.00  0.00    +0.000 HD
BRANCH   8  11
ATOM     10  C   UNL     1       1.923   8.686  17.858  0.00  0.00    +0.000 C 
ATOM     11  C   UNL     1       2.926   7.561  18.052  0.00  0.00    +0.000 C 
ENDBRANCH   8  11
ENDBRANCH   1   8
TORSDOF 2
ENDMDL
MODEL 7
REMARK VINA RESULT:      -5.0      2.140      3.025
REMARK  Name = 
REMARK  4 active torsions:
REMARK  status: ('A' for Active; 'I' for Inactive)
REMARK    1  A    between atoms: C_1  and  C_2
REMARK    2  A    between atoms: C_2  and  N_3
REMARK    3  A    between atoms: N_3  and  C_4
REMARK    4  A    between atoms: C_8  and  C_9
REMARK                            x       y       z     vdW  Elec       q    Type
REMARK                         _______ _______ _______ _____ _____    ______ ____
ROOT
ATOM      1  C   UNL     1       4.371   3.992  17.018  0.00  0.00    +0.000 A 
ATOM      2  C   UNL     1       3.269   3.175  17.293  0.00  0.00    +0.000 A 
ATOM      3  C   UNL     1       2.070   3.712  17.765  0.00  0.00    +0.000 A 
ATOM      4  C   UNL     1       1.961   5.077  18.012  0.00  0.00    +0.000 A 
ATOM      5  C   UNL     1       3.056   5.915  17.790  0.00  0.00    +0.000 A 
ATOM      6  C   UNL     1       2.966   7.383  18.086  0.00  0.00    +0.000 C 
ATOM      7  C   UNL     1       4.248   5.363  17.290  0.00  0.00    +0.000 A 
ENDROOT
BRANCH   1   8
ATOM      8  N   UNL     1       5.615   3.503  16.597  0.00  0.00    +0.000 N 
ATOM      9  H   UNL     1       6.124   3.077  17.367  0.00  0.00    +0.000 HD
BRANCH   8  11
ATOM     10  C   UNL     1       6.075   4.025  14.256  0.00  0.00    +0.000 C 
ATOM     11  C   UNL     1       6.439   4.308  15.704  0.00  0.00    +0.000 C 
ENDBRANCH   8  11
ENDBRANCH   1   8
TORSDOF 2
ENDMDL
MODEL 8
REMARK VINA RESULT:      -5.0      2.113      2.841
REMARK  Name = 
REMARK  4 active torsions:
REMARK  status: ('A' for Active; 'I' for Inactive)
REMARK    1  A    between atoms: C_1  and  C_2
REMARK    2  A    between atoms: C_2  and  N_3
REMARK    3  A    between atoms: N_3  and  C_4
REMARK    4  A    between atoms: C_8  and  C_9
REMARK                            x       y       z     vdW  Elec       q    Type
REMARK                         _______ _______ _______ _____ _____    ______ ____
ROOT
ATOM      1  C   UNL     1       4.984   4.652  17.178  0.00  0.00    +0.000 A 
ATOM      2  C   UNL     1       4.922   6.041  17.333  0.00  0.00    +0.000 A 
ATOM      3  C   UNL     1       3.756   6.669  17.775  0.00  0.00    +0.000 A 
ATOM      4  C   UNL     1       2.611   5.922  18.032  0.00  0.00    +0.000 A 
ATOM      5  C   UNL     1       2.624   4.538  17.846  0.00  0.00    +0.000 A 
ATOM      6  C   UNL     1       1.388   3.723  18.085  0.00  0.00    +0.000 C 
ATOM      7  C   UNL     1       3.814   3.917  17.426  0.00  0.00    +0.000 A 
ENDROOT
BRANCH   1   8
ATOM      8  N   UNL     1       6.107   3.974  16.685  0.00  0.00    +0.000 N 
ATOM      9  H   UNL     1       6.728   3.692  17.440  0.00  0.00    +0.000 HD
BRANCH   8  11
ATOM     10  C   UNL     1       6.052   4.043  14.244  0.00  0.00    +0.000 C 
ATOM     11  C   UNL     1       6.789   4.477  15.500  0.00  0.00    +0.000 C 
ENDBRANCH   8  11
ENDBRANCH   1   8
TORSDOF 2
ENDMDL
MODEL 9
REMARK VINA RESULT:      -5.0      1.389      1.789
REMARK  Name = 
REMARK  4 active torsions:
REMARK  status: ('A' for Active; 'I' for Inactive)
REMARK    1  A    between atoms: C_1  and  C_2
REMARK    2  A    between atoms: C_2  and  N_3
REMARK    3  A    between atoms: N_3  and  C_4
REMARK    4  A    between atoms: C_8  and  C_9
REMARK                            x       y       z     vdW  Elec       q    Type
REMARK                         _______ _______ _______ _____ _____    ______ ____
ROOT
ATOM      1  C   UNL     1       4.866   4.369  18.321  0.00  0.00    +0.000 A 
ATOM      2  C   UNL     1       4.405   5.646  17.985  0.00  0.00    +0.000 A 
ATOM      3  C   UNL     1       3.041   5.912  17.849  0.00  0.00    +0.000 A 
ATOM      4  C   UNL     1       2.109   4.891  18.005  0.00  0.00    +0.000 A 
ATOM      5  C   UNL     1       2.536   3.594  18.296  0.00  0.00    +0.000 A 
ATOM      6  C   UNL     1       1.546   2.476  18.431  0.00  0.00    +0.000 C 
ATOM      7  C   UNL     1       3.911   3.349  18.456  0.00  0.00    +0.000 A 
ENDROOT
BRANCH   1   8
ATOM      8  N   UNL     1       6.222   4.031  18.416  0.00  0.00    +0.000 N 
ATOM      9  H   UNL     1       6.430   3.584  19.306  0.00  0.00    +0.000 HD
BRANCH   8  11
ATOM     10  C   UNL     1       7.807   5.735  19.158  0.00  0.00    +0.000 C 
ATOM     11  C   UNL     1       7.233   4.981  17.970  0.00  0.00    +0.000 C 
ENDBRANCH   8  11
ENDBRANCH   1   8
TORSDOF 2
ENDMDL
