MODEL 1
REMARK VINA RESULT:      -6.9      0.000      0.000
REMARK  Name = 
REMARK  5 active torsions:
REMARK  status: ('A' for Active; 'I' for Inactive)
REMARK    1  A    between atoms: C_1  and  C_2
REMARK    2  A    between atoms: C_2  and  O_3
REMARK    3  A    between atoms: O_3  and  C_4
REMARK    4  A    between atoms: N_8  and  C_9
REMARK    5  A    between atoms: C_12  and  C_13
REMARK                            x       y       z     vdW  Elec       q    Type
REMARK                         _______ _______ _______ _____ _____    ______ ____
ROOT
ATOM      1  C   UNL     1       1.638   8.917  19.130  0.00  0.00    +0.000 A 
ATOM      2  C   UNL     1       2.284   8.904  17.890  0.00  0.00    +0.000 A 
ATOM      3  C   UNL     1       3.051   7.803  17.488  0.00  0.00    +0.000 A 
ATOM      4  C   UNL     1       3.184   6.680  18.316  0.00  0.00    +0.000 A 
ATOM      5  C   UNL     1       2.543   6.690  19.557  0.00  0.00    +0.000 A 
ATOM      6  C   UNL     1       1.781   7.791  19.950  0.00  0.00    +0.000 A 
ENDROOT
BRANCH   1  11
ATOM      7  C   UNL     1      -2.797  11.192  17.828  0.00  0.00    +0.000 A 
ATOM      8  C   UNL     1      -2.075  10.137  17.332  0.00  0.00    +0.000 A 
ATOM      9  N   UNL     1      -0.910   9.716  17.855  0.00  0.00    +0.000 NA
ATOM     10  C   UNL     1      -0.424  10.369  18.924  0.00  0.00    +0.000 A 
ATOM     11  N   UNL     1       0.802   9.988  19.462  0.00  0.00    +0.000 N 
ATOM     12  N   UNL     1      -1.047  11.414  19.485  0.00  0.00    +0.000 NA
ATOM     13  C   UNL     1      -2.222  11.795  18.926  0.00  0.00    +0.000 A 
ATOM     14  H   UNL     1       1.124  10.657  20.144  0.00  0.00    +0.000 HD
BRANCH   7  15
ATOM     15  O   UNL     1      -3.975  11.678  17.353  0.00  0.00    +0.000 OA
BRANCH  15  17
ATOM     16  C   UNL     1      -6.337  11.663  17.768  0.00  0.00    +0.000 C 
ATOM     17  C   UNL     1      -4.966  11.957  18.346  0.00  0.00    +0.000 C 
ENDBRANCH  15  17
ENDBRANCH   7  15
ENDBRANCH   1  11
BRANCH   4  18
ATOM     18  C   UNL     1       4.034   5.491  17.925  0.00  0.00    +0.000 C 
ATOM     19  C   UNL     1       5.172   5.275  18.956  0.00  0.00    +0.000 C 
ATOM     20  N   UNL     1       6.073   4.158  18.592  0.00  0.00    +0.000 NA
ATOM     21  C   UNL     1       6.554   4.389  17.217  0.00  0.00    +0.000 C 
ATOM     22  C   UNL     1       5.402   4.590  16.222  0.00  0.00    +0.000 C 
ATOM     23  O   UNL     1       4.569   5.689  16.605  0.00  0.00    +0.000 OA
ATOM     24  H   UNL     1       5.532   3.293  18.605  0.00  0.00    +0.000 HD
ENDBRANCH   4  18
TORSDOF 4
ENDMDL
MODEL 2
REMARK VINA RESULT:      -6.9      0.389      1.102
REMARK  Name = 
REMARK  5 active torsions:
REMARK  status: ('A' for Active; 'I' for Inactive)
REMARK    1  A    between atoms: C_1  and  C_2
REMARK    2  A    between atoms: C_2  and  O_3
REMARK    3  A    between atoms: O_3  and  C_4
REMARK    4  A    between atoms: N_8  and  C_9
REMARK    5  A    between atoms: C_12  and  C_13
REMARK                            x       y       z     vdW  Elec       q    Type
REMARK                         _______ _______ _______ _____ _____    ______ ____
ROOT
ATOM      1  C   UNL     1       1.565   8.807  19.062  0.00  0.00    +0.000 A 
ATOM      2  C   UNL     1       1.766   7.750  19.955  0.00  0.00    +0.000 A 
ATOM      3  C   UNL     1       2.601   6.675  19.623  0.00  0.00    +0.000 A 
ATOM      4  C   UNL     1       3.265   6.635  18.390  0.00  0.00    +0.000 A 
ATOM      5  C   UNL     1       3.065   7.688  17.494  0.00  0.00    +0.000 A 
ATOM      6  C   UNL     1       2.231   8.755  17.831  0.00  0.00    +0.000 A 
ENDROOT
BRANCH   1  11
ATOM      7  C   UNL     1      -2.840  11.291  18.081  0.00  0.00    +0.000 A 
ATOM      8  C   UNL     1      -2.201  10.211  17.529  0.00  0.00    +0.000 A 
ATOM      9  N   UNL     1      -1.024   9.733  17.968  0.00  0.00    +0.000 NA
ATOM     10  C   UNL     1      -0.438  10.351  19.007  0.00  0.00    +0.000 A 
ATOM     11  N   UNL     1       0.803   9.911  19.458  0.00  0.00    +0.000 N 
ATOM     12  N   UNL     1      -0.974  11.417  19.617  0.00  0.00    +0.000 NA
ATOM     13  C   UNL     1      -2.166  11.856  19.142  0.00  0.00    +0.000 A 
ATOM     14  H   UNL     1       1.200  10.557  20.122  0.00  0.00    +0.000 HD
BRANCH   7  15
ATOM     15  O   UNL     1      -4.024  11.834  17.690  0.00  0.00    +0.000 OA
BRANCH  15  17
ATOM     16  C   UNL     1      -5.904  11.693  19.172  0.00  0.00    +0.000 C 
ATOM     17  C   UNL     1      -5.185  11.056  17.999  0.00  0.00    +0.000 C 
ENDBRANCH  15  17
ENDBRANCH   7  15
ENDBRANCH   1  11
BRANCH   4  18
ATOM     18  C   UNL     1       4.145   5.472  17.989  0.00  0.00    +0.000 C 
ATOM     19  C   UNL     1       5.303   5.292  19.005  0.00  0.00    +0.000 C 
ATOM     20  N   UNL     1       6.232   4.203  18.631  0.00  0.00    +0.000 NA
ATOM     21  C   UNL     1       6.688   4.447  17.249  0.00  0.00    +0.000 C 
ATOM     22  C   UNL     1       5.518   4.610  16.269  0.00  0.00    +0.000 C 
ATOM     23  O   UNL     1       4.657   5.684  16.662  0.00  0.00    +0.000 OA
ATOM     24  H   UNL     1       5.718   3.322  18.652  0.00  0.00    +0.000 HD
ENDBRANCH   4  18
TORSDOF 4
ENDMDL
MODEL 3
REMARK VINA RESULT:      -6.9      3.254      8.950
REMARK  Name = 
REMARK  5 active torsions:
REMARK  status: ('A' for Active; 'I' for Inactive)
REMARK    1  A    between atoms: C_1  and  C_2
REMARK    2  A    between atoms: C_2  and  O_3
REMARK    3  A    between atoms: O_3  and  C_4
REMARK    4  A    between atoms: N_8  and  C_9
REMARK    5  A    between atoms: C_12  and  C_13
REMARK                            x       y       z     vdW  Elec       q    Type
REMARK                         _______ _______ _______ _____ _____    ______ ____
ROOT
ATOM      1  C   UNL     1       2.437   6.486  18.753  0.00  0.00    +0.000 A 
ATOM      2  C   UNL     1       2.132   6.318  20.107  0.00  0.00    +0.000 A 
ATOM      3  C   UNL     1       1.604   7.371  20.864  0.00  0.00    +0.000 A 
ATOM      4  C   UNL     1       1.358   8.621  20.281  0.00  0.00    +0.000 A 
ATOM      5  C   UNL     1       1.663   8.795  18.929  0.00  0.00    +0.000 A 
ATOM      6  C   UNL     1       2.190   7.741  18.182  0.00  0.00    +0.000 A 
ENDROOT
BRANCH   1  11
ATOM      7  C   UNL     1       6.328   4.849  15.800  0.00  0.00    +0.000 A 
ATOM      8  C   UNL     1       6.033   6.028  16.436  0.00  0.00    +0.000 A 
ATOM      9  N   UNL     1       4.924   6.224  17.171  0.00  0.00    +0.000 NA
ATOM     10  C   UNL     1       4.053   5.207  17.286  0.00  0.00    +0.000 A 
ATOM     11  N   UNL     1       2.873   5.390  18.001  0.00  0.00    +0.000 N 
ATOM     12  N   UNL     1       4.243   4.016  16.703  0.00  0.00    +0.000 NA
ATOM     13  C   UNL     1       5.380   3.865  15.980  0.00  0.00    +0.000 A 
ATOM     14  H   UNL     1       2.243   4.615  17.869  0.00  0.00    +0.000 HD
BRANCH   7  15
ATOM     15  O   UNL     1       7.422   4.577  15.039  0.00  0.00    +0.000 OA
BRANCH  15  17
ATOM     16  C   UNL     1       6.688   3.875  12.867  0.00  0.00    +0.000 C 
ATOM     17  C   UNL     1       7.331   4.988  13.671  0.00  0.00    +0.000 C 
ENDBRANCH  15  17
ENDBRANCH   7  15
ENDBRANCH   1  11
BRANCH   4  18
ATOM     18  C   UNL     1       0.821   9.788  21.080  0.00  0.00    +0.000 C 
ATOM     19  C   UNL     1       0.529   9.357  22.541  0.00  0.00    +0.000 C 
ATOM     20  N   UNL     1      -0.056  10.445  23.355  0.00  0.00    +0.000 NA
ATOM     21  C   UNL     1      -1.239  10.964  22.643  0.00  0.00    +0.000 C 
ATOM     22  C   UNL     1      -0.913  11.390  21.204  0.00  0.00    +0.000 C 
ATOM     23  O   UNL     1      -0.366  10.303  20.451  0.00  0.00    +0.000 OA
ATOM     24  H   UNL     1       0.633  11.195  23.430  0.00  0.00    +0.000 HD
ENDBRANCH   4  18
TORSDOF 4
ENDMDL
MODEL 4
REMARK VINA RESULT:      -6.9      2.575      8.915
REMARK  Name = 
REMARK  5 active torsions:
REMARK  status: ('A' for Active; 'I' for Inactive)
REMARK    1  A    between atoms: C_1  and  C_2
REMARK    2  A    between atoms: C_2  and  O_3
REMARK    3  A    between atoms: O_3  and  C_4
REMARK    4  A    between atoms: N_8  and  C_9
REMARK    5  A    between atoms: C_12  and  C_13
REMARK                            x       y       z     vdW  Elec       q    Type
REMARK                         _______ _______ _______ _____ _____    ______ ____
ROOT
ATOM      1  C   UNL     1       2.289   7.476  18.989  0.00  0.00    +0.000 A 
ATOM      2  C   UNL     1       1.839   7.831  20.265  0.00  0.00    +0.000 A 
ATOM      3  C   UNL     1       1.137   9.024  20.477  0.00  0.00    +0.000 A 
ATOM      4  C   UNL     1       0.859   9.891  19.412  0.00  0.00    +0.000 A 
ATOM      5  C   UNL     1       1.309   9.543  18.136  0.00  0.00    +0.000 A 
ATOM      6  C   UNL     1       2.008   8.352  17.934  0.00  0.00    +0.000 A 
ENDROOT
BRANCH   1  11
ATOM      7  C   UNL     1       6.181   5.193  16.503  0.00  0.00    +0.000 A 
ATOM      8  C   UNL     1       5.673   6.467  16.533  0.00  0.00    +0.000 A 
ATOM      9  N   UNL     1       4.619   6.835  17.281  0.00  0.00    +0.000 NA
ATOM     10  C   UNL     1       4.026   5.899  18.041  0.00  0.00    +0.000 A 
ATOM     11  N   UNL     1       2.903   6.235  18.793  0.00  0.00    +0.000 N 
ATOM     12  N   UNL     1       4.438   4.625  18.084  0.00  0.00    +0.000 NA
ATOM     13  C   UNL     1       5.511   4.306  17.317  0.00  0.00    +0.000 A 
ATOM     14  H   UNL     1       2.464   5.414  19.179  0.00  0.00    +0.000 HD
BRANCH   7  15
ATOM     15  O   UNL     1       7.237   4.746  15.771  0.00  0.00    +0.000 OA
BRANCH  15  17
ATOM     16  C   UNL     1       6.225   3.894  13.771  0.00  0.00    +0.000 C 
ATOM     17  C   UNL     1       7.134   4.955  14.359  0.00  0.00    +0.000 C 
ENDBRANCH  15  17
ENDBRANCH   7  15
ENDBRANCH   1  11
BRANCH   4  18
ATOM     18  C   UNL     1       0.134  11.203  19.614  0.00  0.00    +0.000 C 
ATOM     19  C   UNL     1      -0.740  11.537  18.377  0.00  0.00    +0.000 C 
ATOM     20  N   UNL     1      -1.428  12.842  18.495  0.00  0.00    +0.000 NA
ATOM     21  C   UNL     1      -0.413  13.868  18.797  0.00  0.00    +0.000 C 
ATOM     22  C   UNL     1       0.427  13.511  20.032  0.00  0.00    +0.000 C 
ATOM     23  O   UNL     1       1.086  12.252  19.866  0.00  0.00    +0.000 OA
ATOM     24  H   UNL     1      -2.081  12.790  19.278  0.00  0.00    +0.000 HD
ENDBRANCH   4  18
TORSDOF 4
ENDMDL
MODEL 5
REMARK VINA RESULT:      -6.8      1.408      1.872
REMARK  Name = 
REMARK  5 active torsions:
REMARK  status: ('A' for Active; 'I' for Inactive)
REMARK    1  A    between atoms: C_1  and  C_2
REMARK    2  A    between atoms: C_2  and  O_3
REMARK    3  A    between atoms: O_3  and  C_4
REMARK    4  A    between atoms: N_8  and  C_9
REMARK    5  A    between atoms: C_12  and  C_13
REMARK                            x       y       z     vdW  Elec       q    Type
REMARK                         _______ _______ _______ _____ _____    ______ ____
ROOT
ATOM      1  C   UNL     1       1.127   9.395  19.304  0.00  0.00    +0.000 A 
ATOM      2  C   UNL     1       1.332   8.368  20.232  0.00  0.00    +0.000 A 
ATOM      3  C   UNL     1       2.145   7.270  19.925  0.00  0.00    +0.000 A 
ATOM      4  C   UNL     1       2.784   7.176  18.682  0.00  0.00    +0.000 A 
ATOM      5  C   UNL     1       2.581   8.197  17.751  0.00  0.00    +0.000 A 
ATOM      6  C   UNL     1       1.769   9.288  18.064  0.00  0.00    +0.000 A 
ENDROOT
BRANCH   1  11
ATOM      7  C   UNL     1      -3.430  11.696  18.614  0.00  0.00    +0.000 A 
ATOM      8  C   UNL     1      -2.832  10.572  18.104  0.00  0.00    +0.000 A 
ATOM      9  N   UNL     1      -1.599  10.161  18.444  0.00  0.00    +0.000 NA
ATOM     10  C   UNL     1      -0.910  10.895  19.334  0.00  0.00    +0.000 A 
ATOM     11  N   UNL     1       0.388  10.523  19.674  0.00  0.00    +0.000 N 
ATOM     12  N   UNL     1      -1.398  12.011  19.891  0.00  0.00    +0.000 NA
ATOM     13  C   UNL     1      -2.650  12.380  19.521  0.00  0.00    +0.000 A 
ATOM     14  H   UNL     1       0.843  11.242  20.214  0.00  0.00    +0.000 HD
BRANCH   7  15
ATOM     15  O   UNL     1      -4.667  12.177  18.316  0.00  0.00    +0.000 OA
BRANCH  15  17
ATOM     16  C   UNL     1      -6.820  11.129  18.444  0.00  0.00    +0.000 C 
ATOM     17  C   UNL     1      -5.535  11.257  17.648  0.00  0.00    +0.000 C 
ENDBRANCH  15  17
ENDBRANCH   7  15
ENDBRANCH   1  11
BRANCH   4  18
ATOM     18  C   UNL     1       3.640   5.986  18.308  0.00  0.00    +0.000 C 
ATOM     19  C   UNL     1       2.756   4.821  17.792  0.00  0.00    +0.000 C 
ATOM     20  N   UNL     1       3.538   3.607  17.467  0.00  0.00    +0.000 NA
ATOM     21  C   UNL     1       4.349   3.256  18.647  0.00  0.00    +0.000 C 
ATOM     22  C   UNL     1       5.219   4.428  19.126  0.00  0.00    +0.000 C 
ATOM     23  O   UNL     1       4.420   5.572  19.444  0.00  0.00    +0.000 OA
ATOM     24  H   UNL     1       4.167   3.828  16.694  0.00  0.00    +0.000 HD
ENDBRANCH   4  18
TORSDOF 4
ENDMDL
MODEL 6
REMARK VINA RESULT:      -6.8      1.560      2.059
REMARK  Name = 
REMARK  5 active torsions:
REMARK  status: ('A' for Active; 'I' for Inactive)
REMARK    1  A    between atoms: C_1  and  C_2
REMARK    2  A    between atoms: C_2  and  O_3
REMARK    3  A    between atoms: O_3  and  C_4
REMARK    4  A    between atoms: N_8  and  C_9
REMARK    5  A    between atoms: C_12  and  C_13
REMARK                            x       y       z     vdW  Elec       q    Type
REMARK                         _______ _______ _______ _____ _____    ______ ____
ROOT
ATOM      1  C   UNL     1       1.576   8.782  18.964  0.00  0.00    +0.000 A 
ATOM      2  C   UNL     1       1.537   8.013  20.131  0.00  0.00    +0.000 A 
ATOM      3  C   UNL     1       2.231   6.799  20.219  0.00  0.00    +0.000 A 
ATOM      4  C   UNL     1       2.990   6.327  19.140  0.00  0.00    +0.000 A 
ATOM      5  C   UNL     1       3.030   7.090  17.971  0.00  0.00    +0.000 A 
ATOM      6  C   UNL     1       2.336   8.298  17.891  0.00  0.00    +0.000 A 
ENDROOT
BRANCH   1  11
ATOM      7  C   UNL     1      -2.620  11.220  17.233  0.00  0.00    +0.000 A 
ATOM      8  C   UNL     1      -2.126   9.946  17.107  0.00  0.00    +0.000 A 
ATOM      9  N   UNL     1      -0.976   9.532  17.665  0.00  0.00    +0.000 NA
ATOM     10  C   UNL     1      -0.267  10.416  18.386  0.00  0.00    +0.000 A 
ATOM     11  N   UNL     1       0.952  10.033  18.939  0.00  0.00    +0.000 N 
ATOM     12  N   UNL     1      -0.656  11.685  18.569  0.00  0.00    +0.000 NA
ATOM     13  C   UNL     1      -1.828  12.053  17.993  0.00  0.00    +0.000 A 
ATOM     14  H   UNL     1       1.451  10.828  19.307  0.00  0.00    +0.000 HD
BRANCH   7  15
ATOM     15  O   UNL     1      -3.768  11.713  16.696  0.00  0.00    +0.000 OA
BRANCH  15  17
ATOM     16  C   UNL     1      -5.719  12.422  17.896  0.00  0.00    +0.000 C 
ATOM     17  C   UNL     1      -4.976  11.242  17.300  0.00  0.00    +0.000 C 
ENDBRANCH  15  17
ENDBRANCH   7  15
ENDBRANCH   1  11
BRANCH   4  18
ATOM     18  C   UNL     1       3.722   5.004  19.192  0.00  0.00    +0.000 C 
ATOM     19  C   UNL     1       3.860   4.404  17.768  0.00  0.00    +0.000 C 
ATOM     20  N   UNL     1       4.518   3.078  17.765  0.00  0.00    +0.000 NA
ATOM     21  C   UNL     1       3.792   2.206  18.707  0.00  0.00    +0.000 C 
ATOM     22  C   UNL     1       3.682   2.826  20.108  0.00  0.00    +0.000 C 
ATOM     23  O   UNL     1       3.026   4.097  20.064  0.00  0.00    +0.000 OA
ATOM     24  H   UNL     1       5.475   3.194  18.101  0.00  0.00    +0.000 HD
ENDBRANCH   4  18
TORSDOF 4
ENDMDL
MODEL 7
REMARK VINA RESULT:      -6.8      2.081      8.944
REMARK  Name = 
REMARK  5 active torsions:
REMARK  status: ('A' for Active; 'I' for Inactive)
REMARK    1  A    between atoms: C_1  and  C_2
REMARK    2  A    between atoms: C_2  and  O_3
REMARK    3  A    between atoms: O_3  and  C_4
REMARK    4  A    between atoms: N_8  and  C_9
REMARK    5  A    between atoms: C_12  and  C_13
REMARK                            x       y       z     vdW  Elec       q    Type
REMARK                         _______ _______ _______ _____ _____    ______ ____
ROOT
ATOM      1  C   UNL     1       2.364   7.506  19.088  0.00  0.00    +0.000 A 
ATOM      2  C   UNL     1       1.770   7.913  20.287  0.00  0.00    +0.000 A 
ATOM      3  C   UNL     1       0.941   9.041  20.335  0.00  0.00    +0.000 A 
ATOM      4  C   UNL     1       0.679   9.789  19.179  0.00  0.00    +0.000 A 
ATOM      5  C   UNL     1       1.273   9.388  17.980  0.00  0.00    +0.000 A 
ATOM      6  C   UNL     1       2.097   8.263  17.940  0.00  0.00    +0.000 A 
ENDROOT
BRANCH   1  11
ATOM      7  C   UNL     1       6.245   5.196  16.609  0.00  0.00    +0.000 A 
ATOM      8  C   UNL     1       5.584   6.390  16.464  0.00  0.00    +0.000 A 
ATOM      9  N   UNL     1       4.573   6.786  17.255  0.00  0.00    +0.000 NA
ATOM     10  C   UNL     1       4.183   5.964  18.243  0.00  0.00    +0.000 A 
ATOM     11  N   UNL     1       3.108   6.322  19.052  0.00  0.00    +0.000 N 
ATOM     12  N   UNL     1       4.756   4.775  18.471  0.00  0.00    +0.000 NA
ATOM     13  C   UNL     1       5.778   4.424  17.651  0.00  0.00    +0.000 A 
ATOM     14  H   UNL     1       2.818   5.553  19.635  0.00  0.00    +0.000 HD
BRANCH   7  15
ATOM     15  O   UNL     1       7.269   4.725  15.849  0.00  0.00    +0.000 OA
BRANCH  15  17
ATOM     16  C   UNL     1       6.208   3.858  13.881  0.00  0.00    +0.000 C 
ATOM     17  C   UNL     1       7.127   4.927  14.439  0.00  0.00    +0.000 C 
ENDBRANCH  15  17
ENDBRANCH   7  15
ENDBRANCH   1  11
BRANCH   4  18
ATOM     18  C   UNL     1      -0.183  11.032  19.206  0.00  0.00    +0.000 C 
ATOM     19  C   UNL     1      -0.539  11.414  20.666  0.00  0.00    +0.000 C 
ATOM     20  N   UNL     1      -1.432  12.592  20.750  0.00  0.00    +0.000 NA
ATOM     21  C   UNL     1      -2.610  12.333  19.901  0.00  0.00    +0.000 C 
ATOM     22  C   UNL     1      -2.222  11.967  18.461  0.00  0.00    +0.000 C 
ATOM     23  O   UNL     1      -1.374  10.814  18.428  0.00  0.00    +0.000 OA
ATOM     24  H   UNL     1      -0.933  13.399  20.375  0.00  0.00    +0.000 HD
ENDBRANCH   4  18
TORSDOF 4
ENDMDL
MODEL 8
REMARK VINA RESULT:      -6.7      1.375      1.560
REMARK  Name = 
REMARK  5 active torsions:
REMARK  status: ('A' for Active; 'I' for Inactive)
REMARK    1  A    between atoms: C_1  and  C_2
REMARK    2  A    between atoms: C_2  and  O_3
REMARK    3  A    between atoms: O_3  and  C_4
REMARK    4  A    between atoms: N_8  and  C_9
REMARK    5  A    between atoms: C_12  and  C_13
REMARK                            x       y       z     vdW  Elec       q    Type
REMARK                         _______ _______ _______ _____ _____    ______ ____
ROOT
ATOM      1  C   UNL     1       1.021   9.514  19.044  0.00  0.00    +0.000 A 
ATOM      2  C   UNL     1       1.728   9.233  17.870  0.00  0.00    +0.000 A 
ATOM      3  C   UNL     1       2.563   8.112  17.782  0.00  0.00    +0.000 A 
ATOM      4  C   UNL     1       2.706   7.236  18.866  0.00  0.00    +0.000 A 
ATOM      5  C   UNL     1       2.004   7.514  20.042  0.00  0.00    +0.000 A 
ATOM      6  C   UNL     1       1.174   8.633  20.122  0.00  0.00    +0.000 A 
ENDROOT
BRANCH   1  11
ATOM      7  C   UNL     1      -3.654  10.962  17.435  0.00  0.00    +0.000 A 
ATOM      8  C   UNL     1      -2.878   9.844  17.258  0.00  0.00    +0.000 A 
ATOM      9  N   UNL     1      -1.655   9.691  17.793  0.00  0.00    +0.000 NA
ATOM     10  C   UNL     1      -1.160  10.692  18.540  0.00  0.00    +0.000 A 
ATOM     11  N   UNL     1       0.122  10.585  19.071  0.00  0.00    +0.000 N 
ATOM     12  N   UNL     1      -1.832  11.827  18.773  0.00  0.00    +0.000 NA
ATOM     13  C   UNL     1      -3.066  11.931  18.218  0.00  0.00    +0.000 A 
ATOM     14  H   UNL     1       0.429  11.462  19.463  0.00  0.00    +0.000 HD
BRANCH   7  15
ATOM     15  O   UNL     1      -4.893  11.192  16.924  0.00  0.00    +0.000 OA
BRANCH  15  17
ATOM     16  C   UNL     1      -6.930  11.640  18.108  0.00  0.00    +0.000 C 
ATOM     17  C   UNL     1      -5.638  12.227  17.573  0.00  0.00    +0.000 C 
ENDBRANCH  15  17
ENDBRANCH   7  15
ENDBRANCH   1  11
BRANCH   4  18
ATOM     18  C   UNL     1       3.627   6.037  18.813  0.00  0.00    +0.000 C 
ATOM     19  C   UNL     1       4.051   5.743  17.351  0.00  0.00    +0.000 C 
ATOM     20  N   UNL     1       4.908   4.542  17.231  0.00  0.00    +0.000 NA
ATOM     21  C   UNL     1       4.210   3.417  17.883  0.00  0.00    +0.000 C 
ATOM     22  C   UNL     1       3.813   3.738  19.332  0.00  0.00    +0.000 C 
ATOM     23  O   UNL     1       2.973   4.896  19.396  0.00  0.00    +0.000 OA
ATOM     24  H   UNL     1       5.779   4.718  17.733  0.00  0.00    +0.000 HD
ENDBRANCH   4  18
TORSDOF 4
ENDMDL
MODEL 9
REMARK VINA RESULT:      -6.7      1.109      1.591
REMARK  Name = 
REMARK  5 active torsions:
REMARK  status: ('A' for Active; 'I' for Inactive)
REMARK    1  A    between atoms: C_1  and  C_2
REMARK    2  A    between atoms: C_2  and  O_3
REMARK    3  A    between atoms: O_3  and  C_4
REMARK    4  A    between atoms: N_8  and  C_9
REMARK    5  A    between atoms: C_12  and  C_13
REMARK                            x       y       z     vdW  Elec       q    Type
REMARK                         _______ _______ _______ _____ _____    ______ ____
ROOT
ATOM      1  C   UNL     1       1.125   9.318  19.204  0.00  0.00    +0.000 A 
ATOM      2  C   UNL     1       1.357   8.282  20.115  0.00  0.00    +0.000 A 
ATOM      3  C   UNL     1       2.224   7.227  19.802  0.00  0.00    +0.000 A 
ATOM      4  C   UNL     1       2.890   7.187  18.570  0.00  0.00    +0.000 A 
ATOM      5  C   UNL     1       2.659   8.218  17.656  0.00  0.00    +0.000 A 
ATOM      6  C   UNL     1       1.794   9.265  17.975  0.00  0.00    +0.000 A 
ENDROOT
BRANCH   1  11
ATOM      7  C   UNL     1      -3.463  11.506  18.365  0.00  0.00    +0.000 A 
ATOM      8  C   UNL     1      -2.801  10.426  17.839  0.00  0.00    +0.000 A 
ATOM      9  N   UNL     1      -1.575  10.038  18.228  0.00  0.00    +0.000 NA
ATOM     10  C   UNL     1      -0.960  10.751  19.186  0.00  0.00    +0.000 A 
ATOM     11  N   UNL     1       0.329  10.405  19.581  0.00  0.00    +0.000 N 
ATOM     12  N   UNL     1      -1.514  11.825  19.764  0.00  0.00    +0.000 NA
ATOM     13  C   UNL     1      -2.756  12.171  19.342  0.00  0.00    +0.000 A 
ATOM     14  H   UNL     1       0.731  11.112  20.177  0.00  0.00    +0.000 HD
BRANCH   7  15
ATOM     15  O   UNL     1      -4.697  11.962  18.020  0.00  0.00    +0.000 OA
BRANCH  15  17
ATOM     16  C   UNL     1      -6.682  10.743  18.587  0.00  0.00    +0.000 C 
ATOM     17  C   UNL     1      -5.705  11.816  19.025  0.00  0.00    +0.000 C 
ENDBRANCH  15  17
ENDBRANCH   7  15
ENDBRANCH   1  11
BRANCH   4  18
ATOM     18  C   UNL     1       3.805   6.044  18.190  0.00  0.00    +0.000 C 
ATOM     19  C   UNL     1       4.868   6.518  17.165  0.00  0.00    +0.000 C 
ATOM     20  N   UNL     1       5.756   5.424  16.711  0.00  0.00    +0.000 NA
ATOM     21  C   UNL     1       4.909   4.322  16.219  0.00  0.00    +0.000 C 
ATOM     22  C   UNL     1       3.874   3.871  17.261  0.00  0.00    +0.000 C 
ATOM     23  O   UNL     1       3.029   4.956  17.656  0.00  0.00    +0.000 OA
ATOM     24  H   UNL     1       6.289   5.090  17.515  0.00  0.00    +0.000 HD
ENDBRANCH   4  18
TORSDOF 4
ENDMDL
