MODEL 1
REMARK VINA RESULT:      -7.8      0.000      0.000
REMARK  Name = 
REMARK  5 active torsions:
REMARK  status: ('A' for Active; 'I' for Inactive)
REMARK    1  A    between atoms: C_2  and  C_13
REMARK    2  A    between atoms: N_3  and  C_4
REMARK    3  A    between atoms: C_4  and  C_5
REMARK    4  A    between atoms: C_5  and  C_6
REMARK    5  A    between atoms: C_16  and  C_17
REMARK                            x       y       z     vdW  Elec       q    Type
REMARK                         _______ _______ _______ _____ _____    ______ ____
ROOT
ATOM      1  O   UNL     1       4.463   5.721  19.414  0.00  0.00    +0.000 OA
ATOM      2  C   UNL     1       3.565   5.987  18.620  0.00  0.00    +0.000 C 
ATOM      3  N   UNL     1       3.226   5.165  17.565  0.00  0.00    +0.000 N 
ATOM      4  H   UNL     1       2.548   5.533  16.903  0.00  0.00    +0.000 HD
ENDROOT
BRANCH   2   5
ATOM      5  C   UNL     1       2.767   7.213  18.720  0.00  0.00    +0.000 A 
ATOM      6  C   UNL     1       2.658   8.120  17.682  0.00  0.00    +0.000 A 
ATOM      7  S   UNL     1       1.674   9.435  18.137  0.00  0.00    +0.000 S 
ATOM      8  C   UNL     1       1.444   8.729  19.697  0.00  0.00    +0.000 A 
ATOM      9  N   UNL     1       2.063   7.572  19.876  0.00  0.00    +0.000 NA
BRANCH   8  10
ATOM     10  C   UNL     1       0.676   9.446  20.732  0.00  0.00    +0.000 A 
ATOM     11  C   UNL     1       0.223  10.766  20.572  0.00  0.00    +0.000 A 
ATOM     12  C   UNL     1      -0.460  11.423  21.601  0.00  0.00    +0.000 A 
ATOM     13  C   UNL     1      -0.707  10.769  22.805  0.00  0.00    +0.000 A 
ATOM     14  C   UNL     1      -0.285   9.453  22.975  0.00  0.00    +0.000 A 
ATOM     15  C   UNL     1       0.396   8.795  21.947  0.00  0.00    +0.000 A 
ENDBRANCH   8  10
ENDBRANCH   2   5
BRANCH   3  16
ATOM     16  C   UNL     1       3.996   3.965  17.295  0.00  0.00    +0.000 C 
BRANCH  16  17
ATOM     17  C   UNL     1       3.253   2.675  17.641  0.00  0.00    +0.000 C 
BRANCH  17  18
ATOM     18  C   UNL     1       2.575   2.744  18.995  0.00  0.00    +0.000 A 
ATOM     19  C   UNL     1       1.213   3.092  19.058  0.00  0.00    +0.000 A 
ATOM     20  C   UNL     1       0.543   3.161  20.282  0.00  0.00    +0.000 A 
ATOM     21  C   UNL     1       1.222   2.890  21.467  0.00  0.00    +0.000 A 
ATOM     22  C   UNL     1       2.575   2.559  21.427  0.00  0.00    +0.000 A 
ATOM     23  C   UNL     1       3.250   2.492  20.201  0.00  0.00    +0.000 A 
ATOM     24 CL   UNL     1       4.930   2.091  20.240  0.00  0.00    +0.000 Cl
ENDBRANCH  17  18
ENDBRANCH  16  17
ENDBRANCH   3  16
TORSDOF 5
ENDMDL
MODEL 2
REMARK VINA RESULT:      -7.7      5.882      9.013
REMARK  Name = 
REMARK  5 active torsions:
REMARK  status: ('A' for Active; 'I' for Inactive)
REMARK    1  A    between atoms: C_2  and  C_13
REMARK    2  A    between atoms: N_3  and  C_4
REMARK    3  A    between atoms: C_4  and  C_5
REMARK    4  A    between atoms: C_5  and  C_6
REMARK    5  A    between atoms: C_16  and  C_17
REMARK                            x       y       z     vdW  Elec       q    Type
REMARK                         _______ _______ _______ _____ _____    ______ ____
ROOT
ATOM      1  O   UNL     1       8.261   6.329  19.129  0.00  0.00    +0.000 OA
ATOM      2  C   UNL     1       7.579   6.667  18.165  0.00  0.00    +0.000 C 
ATOM      3  N   UNL     1       7.688   7.904  17.563  0.00  0.00    +0.000 N 
ATOM      4  H   UNL     1       7.000   8.123  16.849  0.00  0.00    +0.000 HD
ENDROOT
BRANCH   2   5
ATOM      5  C   UNL     1       6.577   5.781  17.562  0.00  0.00    +0.000 A 
ATOM      6  C   UNL     1       6.576   5.462  16.217  0.00  0.00    +0.000 A 
ATOM      7  S   UNL     1       5.271   4.430  15.849  0.00  0.00    +0.000 S 
ATOM      8  C   UNL     1       4.773   4.461  17.502  0.00  0.00    +0.000 A 
ATOM      9  N   UNL     1       5.536   5.199  18.295  0.00  0.00    +0.000 NA
BRANCH   8  10
ATOM     10  C   UNL     1       3.540   3.769  17.922  0.00  0.00    +0.000 A 
ATOM     11  C   UNL     1       3.534   2.461  18.436  0.00  0.00    +0.000 A 
ATOM     12  C   UNL     1       2.334   1.827  18.775  0.00  0.00    +0.000 A 
ATOM     13  C   UNL     1       1.122   2.492  18.613  0.00  0.00    +0.000 A 
ATOM     14  C   UNL     1       1.108   3.795  18.125  0.00  0.00    +0.000 A 
ATOM     15  C   UNL     1       2.307   4.431  17.787  0.00  0.00    +0.000 A 
ENDBRANCH   8  10
ENDBRANCH   2   5
BRANCH   3  16
ATOM     16  C   UNL     1       8.575   8.911  18.116  0.00  0.00    +0.000 C 
BRANCH  16  17
ATOM     17  C   UNL     1       8.157  10.341  17.775  0.00  0.00    +0.000 C 
BRANCH  17  18
ATOM     18  C   UNL     1       9.069  11.376  18.403  0.00  0.00    +0.000 A 
ATOM     19  C   UNL     1      10.144  10.942  19.200  0.00  0.00    +0.000 A 
ATOM     20  C   UNL     1      11.016  11.859  19.794  0.00  0.00    +0.000 A 
ATOM     21  C   UNL     1      10.826  13.225  19.607  0.00  0.00    +0.000 A 
ATOM     22  C   UNL     1       9.758  13.675  18.834  0.00  0.00    +0.000 A 
ATOM     23  C   UNL     1       8.881  12.759  18.240  0.00  0.00    +0.000 A 
ATOM     24 CL   UNL     1       7.573  13.399  17.310  0.00  0.00    +0.000 Cl
ENDBRANCH  17  18
ENDBRANCH  16  17
ENDBRANCH   3  16
TORSDOF 5
ENDMDL
MODEL 3
REMARK VINA RESULT:      -7.6      2.388      3.976
REMARK  Name = 
REMARK  5 active torsions:
REMARK  status: ('A' for Active; 'I' for Inactive)
REMARK    1  A    between atoms: C_2  and  C_13
REMARK    2  A    between atoms: N_3  and  C_4
REMARK    3  A    between atoms: C_4  and  C_5
REMARK    4  A    between atoms: C_5  and  C_6
REMARK    5  A    between atoms: C_16  and  C_17
REMARK                            x       y       z     vdW  Elec       q    Type
REMARK                         _______ _______ _______ _____ _____    ______ ____
ROOT
ATOM      1  O   UNL     1       3.278   5.034  19.962  0.00  0.00    +0.000 OA
ATOM      2  C   UNL     1       2.997   5.669  18.949  0.00  0.00    +0.000 C 
ATOM      3  N   UNL     1       3.200   5.181  17.675  0.00  0.00    +0.000 N 
ATOM      4  H   UNL     1       3.042   5.830  16.909  0.00  0.00    +0.000 HD
ENDROOT
BRANCH   2   5
ATOM      5  C   UNL     1       2.419   7.016  19.002  0.00  0.00    +0.000 A 
ATOM      6  C   UNL     1       2.523   7.914  17.956  0.00  0.00    +0.000 A 
ATOM      7  S   UNL     1       1.759   9.385  18.353  0.00  0.00    +0.000 S 
ATOM      8  C   UNL     1       1.328   8.749  19.900  0.00  0.00    +0.000 A 
ATOM      9  N   UNL     1       1.727   7.505  20.117  0.00  0.00    +0.000 NA
BRANCH   8  10
ATOM     10  C   UNL     1       0.643   9.601  20.890  0.00  0.00    +0.000 A 
ATOM     11  C   UNL     1       0.225   9.130  22.146  0.00  0.00    +0.000 A 
ATOM     12  C   UNL     1      -0.465   9.962  23.034  0.00  0.00    +0.000 A 
ATOM     13  C   UNL     1      -0.744  11.280  22.683  0.00  0.00    +0.000 A 
ATOM     14  C   UNL     1      -0.320  11.772  21.452  0.00  0.00    +0.000 A 
ATOM     15  C   UNL     1       0.372  10.942  20.565  0.00  0.00    +0.000 A 
ENDBRANCH   8  10
ENDBRANCH   2   5
BRANCH   3  16
ATOM     16  C   UNL     1       3.852   3.899  17.478  0.00  0.00    +0.000 C 
BRANCH  16  17
ATOM     17  C   UNL     1       5.160   3.997  16.693  0.00  0.00    +0.000 C 
BRANCH  17  18
ATOM     18  C   UNL     1       6.080   5.073  17.235  0.00  0.00    +0.000 A 
ATOM     19  C   UNL     1       6.939   4.761  18.304  0.00  0.00    +0.000 A 
ATOM     20  C   UNL     1       7.810   5.717  18.831  0.00  0.00    +0.000 A 
ATOM     21  C   UNL     1       7.834   7.006  18.304  0.00  0.00    +0.000 A 
ATOM     22  C   UNL     1       6.979   7.339  17.256  0.00  0.00    +0.000 A 
ATOM     23  C   UNL     1       6.103   6.383  16.727  0.00  0.00    +0.000 A 
ATOM     24 CL   UNL     1       5.065   6.882  15.440  0.00  0.00    +0.000 Cl
ENDBRANCH  17  18
ENDBRANCH  16  17
ENDBRANCH   3  16
TORSDOF 5
ENDMDL
MODEL 4
REMARK VINA RESULT:      -7.5      0.335      1.057
REMARK  Name = 
REMARK  5 active torsions:
REMARK  status: ('A' for Active; 'I' for Inactive)
REMARK    1  A    between atoms: C_2  and  C_13
REMARK    2  A    between atoms: N_3  and  C_4
REMARK    3  A    between atoms: C_4  and  C_5
REMARK    4  A    between atoms: C_5  and  C_6
REMARK    5  A    between atoms: C_16  and  C_17
REMARK                            x       y       z     vdW  Elec       q    Type
REMARK                         _______ _______ _______ _____ _____    ______ ____
ROOT
ATOM      1  O   UNL     1       4.831   5.998  18.462  0.00  0.00    +0.000 OA
ATOM      2  C   UNL     1       3.644   6.057  18.157  0.00  0.00    +0.000 C 
ATOM      3  N   UNL     1       2.970   5.015  17.554  0.00  0.00    +0.000 N 
ATOM      4  H   UNL     1       2.023   5.207  17.240  0.00  0.00    +0.000 HD
ENDROOT
BRANCH   2   5
ATOM      5  C   UNL     1       2.827   7.250  18.404  0.00  0.00    +0.000 A 
ATOM      6  C   UNL     1       2.618   8.223  17.445  0.00  0.00    +0.000 A 
ATOM      7  S   UNL     1       1.641   9.474  18.066  0.00  0.00    +0.000 S 
ATOM      8  C   UNL     1       1.547   8.655  19.583  0.00  0.00    +0.000 A 
ATOM      9  N   UNL     1       2.205   7.506  19.632  0.00  0.00    +0.000 NA
BRANCH   8  10
ATOM     10  C   UNL     1       0.844   9.275  20.722  0.00  0.00    +0.000 A 
ATOM     11  C   UNL     1       0.680   8.633  21.961  0.00  0.00    +0.000 A 
ATOM     12  C   UNL     1      -0.036   9.242  22.997  0.00  0.00    +0.000 A 
ATOM     13  C   UNL     1      -0.595  10.503  22.814  0.00  0.00    +0.000 A 
ATOM     14  C   UNL     1      -0.426  11.165  21.601  0.00  0.00    +0.000 A 
ATOM     15  C   UNL     1       0.292  10.559  20.565  0.00  0.00    +0.000 A 
ENDBRANCH   8  10
ENDBRANCH   2   5
BRANCH   3  16
ATOM     16  C   UNL     1       3.681   3.809  17.168  0.00  0.00    +0.000 C 
BRANCH  16  17
ATOM     17  C   UNL     1       3.022   2.527  17.676  0.00  0.00    +0.000 C 
BRANCH  17  18
ATOM     18  C   UNL     1       2.450   2.683  19.071  0.00  0.00    +0.000 A 
ATOM     19  C   UNL     1       1.102   3.058  19.216  0.00  0.00    +0.000 A 
ATOM     20  C   UNL     1       0.528   3.207  20.482  0.00  0.00    +0.000 A 
ATOM     21  C   UNL     1       1.292   2.990  21.625  0.00  0.00    +0.000 A 
ATOM     22  C   UNL     1       2.634   2.634  21.502  0.00  0.00    +0.000 A 
ATOM     23  C   UNL     1       3.212   2.487  20.235  0.00  0.00    +0.000 A 
ATOM     24 CL   UNL     1       4.885   2.059  20.170  0.00  0.00    +0.000 Cl
ENDBRANCH  17  18
ENDBRANCH  16  17
ENDBRANCH   3  16
TORSDOF 5
ENDMDL
MODEL 5
REMARK VINA RESULT:      -7.5      1.408      2.004
REMARK  Name = 
REMARK  5 active torsions:
REMARK  status: ('A' for Active; 'I' for Inactive)
REMARK    1  A    between atoms: C_2  and  C_13
REMARK    2  A    between atoms: N_3  and  C_4
REMARK    3  A    between atoms: C_4  and  C_5
REMARK    4  A    between atoms: C_5  and  C_6
REMARK    5  A    between atoms: C_16  and  C_17
REMARK                            x       y       z     vdW  Elec       q    Type
REMARK                         _______ _______ _______ _____ _____    ______ ____
ROOT
ATOM      1  O   UNL     1       4.103   6.452  16.985  0.00  0.00    +0.000 OA
ATOM      2  C   UNL     1       3.729   6.697  18.128  0.00  0.00    +0.000 C 
ATOM      3  N   UNL     1       4.195   6.016  19.234  0.00  0.00    +0.000 N 
ATOM      4  H   UNL     1       3.736   6.218  20.118  0.00  0.00    +0.000 HD
ENDROOT
BRANCH   2   5
ATOM      5  C   UNL     1       2.742   7.741  18.425  0.00  0.00    +0.000 A 
ATOM      6  C   UNL     1       2.314   8.654  17.479  0.00  0.00    +0.000 A 
ATOM      7  S   UNL     1       1.184   9.734  18.159  0.00  0.00    +0.000 S 
ATOM      8  C   UNL     1       1.325   8.930  19.681  0.00  0.00    +0.000 A 
ATOM      9  N   UNL     1       2.166   7.907  19.690  0.00  0.00    +0.000 NA
BRANCH   8  10
ATOM     10  C   UNL     1       0.603   9.440  20.862  0.00  0.00    +0.000 A 
ATOM     11  C   UNL     1       0.106   8.604  21.876  0.00  0.00    +0.000 A 
ATOM     12  C   UNL     1      -0.615   9.128  22.953  0.00  0.00    +0.000 A 
ATOM     13  C   UNL     1      -0.847  10.498  23.038  0.00  0.00    +0.000 A 
ATOM     14  C   UNL     1      -0.345  11.347  22.055  0.00  0.00    +0.000 A 
ATOM     15  C   UNL     1       0.378  10.823  20.978  0.00  0.00    +0.000 A 
ENDBRANCH   8  10
ENDBRANCH   2   5
BRANCH   3  16
ATOM     16  C   UNL     1       5.104   4.896  19.074  0.00  0.00    +0.000 C 
BRANCH  16  17
ATOM     17  C   UNL     1       4.402   3.593  18.695  0.00  0.00    +0.000 C 
BRANCH  17  18
ATOM     18  C   UNL     1       3.199   3.307  19.573  0.00  0.00    +0.000 A 
ATOM     19  C   UNL     1       3.407   2.810  20.872  0.00  0.00    +0.000 A 
ATOM     20  C   UNL     1       2.330   2.540  21.720  0.00  0.00    +0.000 A 
ATOM     21  C   UNL     1       1.025   2.755  21.284  0.00  0.00    +0.000 A 
ATOM     22  C   UNL     1       0.799   3.232  19.994  0.00  0.00    +0.000 A 
ATOM     23  C   UNL     1       1.877   3.501  19.141  0.00  0.00    +0.000 A 
ATOM     24 CL   UNL     1       1.509   4.074  17.553  0.00  0.00    +0.000 Cl
ENDBRANCH  17  18
ENDBRANCH  16  17
ENDBRANCH   3  16
TORSDOF 5
ENDMDL
MODEL 6
REMARK VINA RESULT:      -7.5      6.052      8.969
REMARK  Name = 
REMARK  5 active torsions:
REMARK  status: ('A' for Active; 'I' for Inactive)
REMARK    1  A    between atoms: C_2  and  C_13
REMARK    2  A    between atoms: N_3  and  C_4
REMARK    3  A    between atoms: C_4  and  C_5
REMARK    4  A    between atoms: C_5  and  C_6
REMARK    5  A    between atoms: C_16  and  C_17
REMARK                            x       y       z     vdW  Elec       q    Type
REMARK                         _______ _______ _______ _____ _____    ______ ____
ROOT
ATOM      1  O   UNL     1       8.440   6.193  19.293  0.00  0.00    +0.000 OA
ATOM      2  C   UNL     1       7.767   6.701  18.401  0.00  0.00    +0.000 C 
ATOM      3  N   UNL     1       7.914   8.014  18.002  0.00  0.00    +0.000 N 
ATOM      4  H   UNL     1       7.231   8.366  17.338  0.00  0.00    +0.000 HD
ENDROOT
BRANCH   2   5
ATOM      5  C   UNL     1       6.735   5.955  17.674  0.00  0.00    +0.000 A 
ATOM      6  C   UNL     1       6.697   5.884  16.293  0.00  0.00    +0.000 A 
ATOM      7  S   UNL     1       5.364   4.956  15.777  0.00  0.00    +0.000 S 
ATOM      8  C   UNL     1       4.903   4.697  17.422  0.00  0.00    +0.000 A 
ATOM      9  N   UNL     1       5.698   5.267  18.315  0.00  0.00    +0.000 NA
BRANCH   8  10
ATOM     10  C   UNL     1       3.666   3.960  17.740  0.00  0.00    +0.000 A 
ATOM     11  C   UNL     1       2.400   4.569  17.774  0.00  0.00    +0.000 A 
ATOM     12  C   UNL     1       1.260   3.840  18.129  0.00  0.00    +0.000 A 
ATOM     13  C   UNL     1       1.366   2.489  18.449  0.00  0.00    +0.000 A 
ATOM     14  C   UNL     1       2.607   1.862  18.400  0.00  0.00    +0.000 A 
ATOM     15  C   UNL     1       3.747   2.589  18.044  0.00  0.00    +0.000 A 
ENDBRANCH   8  10
ENDBRANCH   2   5
BRANCH   3  16
ATOM     16  C   UNL     1       8.835   8.892  18.701  0.00  0.00    +0.000 C 
BRANCH  16  17
ATOM     17  C   UNL     1       8.894  10.302  18.114  0.00  0.00    +0.000 C 
BRANCH  17  18
ATOM     18  C   UNL     1       9.442  11.316  19.098  0.00  0.00    +0.000 A 
ATOM     19  C   UNL     1       9.206  11.129  20.472  0.00  0.00    +0.000 A 
ATOM     20  C   UNL     1       9.698  12.032  21.417  0.00  0.00    +0.000 A 
ATOM     21  C   UNL     1      10.429  13.144  21.006  0.00  0.00    +0.000 A 
ATOM     22  C   UNL     1      10.659  13.356  19.649  0.00  0.00    +0.000 A 
ATOM     23  C   UNL     1      10.165  12.453  18.699  0.00  0.00    +0.000 A 
ATOM     24 CL   UNL     1      10.481  12.797  17.036  0.00  0.00    +0.000 Cl
ENDBRANCH  17  18
ENDBRANCH  16  17
ENDBRANCH   3  16
TORSDOF 5
ENDMDL
MODEL 7
REMARK VINA RESULT:      -7.5      5.808      8.406
REMARK  Name = 
REMARK  5 active torsions:
REMARK  status: ('A' for Active; 'I' for Inactive)
REMARK    1  A    between atoms: C_2  and  C_13
REMARK    2  A    between atoms: N_3  and  C_4
REMARK    3  A    between atoms: C_4  and  C_5
REMARK    4  A    between atoms: C_5  and  C_6
REMARK    5  A    between atoms: C_16  and  C_17
REMARK                            x       y       z     vdW  Elec       q    Type
REMARK                         _______ _______ _______ _____ _____    ______ ____
ROOT
ATOM      1  O   UNL     1       8.345   6.558  18.834  0.00  0.00    +0.000 OA
ATOM      2  C   UNL     1       7.488   6.841  18.002  0.00  0.00    +0.000 C 
ATOM      3  N   UNL     1       7.533   7.986  17.234  0.00  0.00    +0.000 N 
ATOM      4  H   UNL     1       6.717   8.181  16.661  0.00  0.00    +0.000 HD
ENDROOT
BRANCH   2   5
ATOM      5  C   UNL     1       6.326   5.981  17.748  0.00  0.00    +0.000 A 
ATOM      6  C   UNL     1       6.127   5.333  16.543  0.00  0.00    +0.000 A 
ATOM      7  S   UNL     1       4.678   4.436  16.580  0.00  0.00    +0.000 S 
ATOM      8  C   UNL     1       4.389   4.959  18.200  0.00  0.00    +0.000 A 
ATOM      9  N   UNL     1       5.321   5.759  18.697  0.00  0.00    +0.000 NA
BRANCH   8  10
ATOM     10  C   UNL     1       3.145   4.579  18.895  0.00  0.00    +0.000 A 
ATOM     11  C   UNL     1       2.719   5.185  20.089  0.00  0.00    +0.000 A 
ATOM     12  C   UNL     1       1.556   4.758  20.737  0.00  0.00    +0.000 A 
ATOM     13  C   UNL     1       0.796   3.722  20.201  0.00  0.00    +0.000 A 
ATOM     14  C   UNL     1       1.190   3.123  19.007  0.00  0.00    +0.000 A 
ATOM     15  C   UNL     1       2.351   3.550  18.357  0.00  0.00    +0.000 A 
ENDBRANCH   8  10
ENDBRANCH   2   5
BRANCH   3  16
ATOM     16  C   UNL     1       8.578   8.970  17.449  0.00  0.00    +0.000 C 
BRANCH  16  17
ATOM     17  C   UNL     1       8.351   9.837  18.687  0.00  0.00    +0.000 C 
BRANCH  17  18
ATOM     18  C   UNL     1       9.514  10.770  18.961  0.00  0.00    +0.000 A 
ATOM     19  C   UNL     1      10.375  11.114  17.904  0.00  0.00    +0.000 A 
ATOM     20  C   UNL     1      11.456  11.977  18.106  0.00  0.00    +0.000 A 
ATOM     21  C   UNL     1      11.700  12.506  19.371  0.00  0.00    +0.000 A 
ATOM     22  C   UNL     1      10.868  12.163  20.435  0.00  0.00    +0.000 A 
ATOM     23  C   UNL     1       9.786  11.297  20.235  0.00  0.00    +0.000 A 
ATOM     24 CL   UNL     1       8.813  10.911  21.610  0.00  0.00    +0.000 Cl
ENDBRANCH  17  18
ENDBRANCH  16  17
ENDBRANCH   3  16
TORSDOF 5
ENDMDL
MODEL 8
REMARK VINA RESULT:      -7.4      6.750     10.452
REMARK  Name = 
REMARK  5 active torsions:
REMARK  status: ('A' for Active; 'I' for Inactive)
REMARK    1  A    between atoms: C_2  and  C_13
REMARK    2  A    between atoms: N_3  and  C_4
REMARK    3  A    between atoms: C_4  and  C_5
REMARK    4  A    between atoms: C_5  and  C_6
REMARK    5  A    between atoms: C_16  and  C_17
REMARK                            x       y       z     vdW  Elec       q    Type
REMARK                         _______ _______ _______ _____ _____    ______ ____
ROOT
ATOM      1  O   UNL     1       8.251   6.511  19.312  0.00  0.00    +0.000 OA
ATOM      2  C   UNL     1       7.790   6.978  18.275  0.00  0.00    +0.000 C 
ATOM      3  N   UNL     1       8.036   8.270  17.857  0.00  0.00    +0.000 N 
ATOM      4  H   UNL     1       7.514   8.592  17.047  0.00  0.00    +0.000 HD
ENDROOT
BRANCH   2   5
ATOM      5  C   UNL     1       6.927   6.201  17.379  0.00  0.00    +0.000 A 
ATOM      6  C   UNL     1       5.704   5.692  17.776  0.00  0.00    +0.000 A 
ATOM      7  S   UNL     1       4.973   4.829  16.501  0.00  0.00    +0.000 S 
ATOM      8  C   UNL     1       6.326   5.177  15.484  0.00  0.00    +0.000 A 
ATOM      9  N   UNL     1       7.275   5.900  16.056  0.00  0.00    +0.000 NA
BRANCH   8  10
ATOM     10  C   UNL     1       6.397   4.615  14.122  0.00  0.00    +0.000 A 
ATOM     11  C   UNL     1       5.474   3.675  13.633  0.00  0.00    +0.000 A 
ATOM     12  C   UNL     1       5.609   3.133  12.351  0.00  0.00    +0.000 A 
ATOM     13  C   UNL     1       6.665   3.527  11.534  0.00  0.00    +0.000 A 
ATOM     14  C   UNL     1       7.578   4.473  11.991  0.00  0.00    +0.000 A 
ATOM     15  C   UNL     1       7.442   5.017  13.272  0.00  0.00    +0.000 A 
ENDBRANCH   8  10
ENDBRANCH   2   5
BRANCH   3  16
ATOM     16  C   UNL     1       8.797   9.178  18.696  0.00  0.00    +0.000 C 
BRANCH  16  17
ATOM     17  C   UNL     1       8.814  10.615  18.176  0.00  0.00    +0.000 C 
BRANCH  17  18
ATOM     18  C   UNL     1       9.460  11.576  19.154  0.00  0.00    +0.000 A 
ATOM     19  C   UNL     1       9.174  11.449  20.525  0.00  0.00    +0.000 A 
ATOM     20  C   UNL     1       9.752  12.306  21.465  0.00  0.00    +0.000 A 
ATOM     21  C   UNL     1      10.622  13.311  21.051  0.00  0.00    +0.000 A 
ATOM     22  C   UNL     1      10.906  13.464  19.696  0.00  0.00    +0.000 A 
ATOM     23  C   UNL     1      10.326  12.607  18.751  0.00  0.00    +0.000 A 
ATOM     24 CL   UNL     1      10.717  12.875  17.090  0.00  0.00    +0.000 Cl
ENDBRANCH  17  18
ENDBRANCH  16  17
ENDBRANCH   3  16
TORSDOF 5
ENDMDL
MODEL 9
REMARK VINA RESULT:      -7.4      3.349      4.285
REMARK  Name = 
REMARK  5 active torsions:
REMARK  status: ('A' for Active; 'I' for Inactive)
REMARK    1  A    between atoms: C_2  and  C_13
REMARK    2  A    between atoms: N_3  and  C_4
REMARK    3  A    between atoms: C_4  and  C_5
REMARK    4  A    between atoms: C_5  and  C_6
REMARK    5  A    between atoms: C_16  and  C_17
REMARK                            x       y       z     vdW  Elec       q    Type
REMARK                         _______ _______ _______ _____ _____    ______ ____
ROOT
ATOM      1  O   UNL     1       2.445   8.528  17.489  0.00  0.00    +0.000 OA
ATOM      2  C   UNL     1       1.768   8.803  18.475  0.00  0.00    +0.000 C 
ATOM      3  N   UNL     1       1.820   8.080  19.649  0.00  0.00    +0.000 N 
ATOM      4  H   UNL     1       1.137   8.321  20.361  0.00  0.00    +0.000 HD
ENDROOT
BRANCH   2   5
ATOM      5  C   UNL     1       0.833   9.933  18.495  0.00  0.00    +0.000 A 
ATOM      6  C   UNL     1       1.172  11.173  19.003  0.00  0.00    +0.000 A 
ATOM      7  S   UNL     1      -0.147  12.247  18.889  0.00  0.00    +0.000 S 
ATOM      8  C   UNL     1      -1.105  11.002  18.170  0.00  0.00    +0.000 A 
ATOM      9  N   UNL     1      -0.480   9.844  18.017  0.00  0.00    +0.000 NA
BRANCH   8  10
ATOM     10  C   UNL     1      -2.523  11.245  17.850  0.00  0.00    +0.000 A 
ATOM     11  C   UNL     1      -3.077  10.989  16.584  0.00  0.00    +0.000 A 
ATOM     12  C   UNL     1      -4.418  11.281  16.313  0.00  0.00    +0.000 A 
ATOM     13  C   UNL     1      -5.229  11.828  17.303  0.00  0.00    +0.000 A 
ATOM     14  C   UNL     1      -4.705  12.070  18.570  0.00  0.00    +0.000 A 
ATOM     15  C   UNL     1      -3.365  11.776  18.843  0.00  0.00    +0.000 A 
ENDBRANCH   8  10
ENDBRANCH   2   5
BRANCH   3  16
ATOM     16  C   UNL     1       2.635   6.882  19.735  0.00  0.00    +0.000 C 
BRANCH  16  17
ATOM     17  C   UNL     1       1.887   5.679  20.309  0.00  0.00    +0.000 C 
BRANCH  17  18
ATOM     18  C   UNL     1       2.040   4.439  19.451  0.00  0.00    +0.000 A 
ATOM     19  C   UNL     1       2.316   4.588  18.080  0.00  0.00    +0.000 A 
ATOM     20  C   UNL     1       2.475   3.475  17.251  0.00  0.00    +0.000 A 
ATOM     21  C   UNL     1       2.353   2.191  17.775  0.00  0.00    +0.000 A 
ATOM     22  C   UNL     1       2.063   2.022  19.128  0.00  0.00    +0.000 A 
ATOM     23  C   UNL     1       1.902   3.136  19.960  0.00  0.00    +0.000 A 
ATOM     24 CL   UNL     1       1.529   2.840  21.621  0.00  0.00    +0.000 Cl
ENDBRANCH  17  18
ENDBRANCH  16  17
ENDBRANCH   3  16
TORSDOF 5
ENDMDL
