MODEL 1
REMARK VINA RESULT:      -7.1      0.000      0.000
REMARK  Name = 
REMARK  3 active torsions:
REMARK  status: ('A' for Active; 'I' for Inactive)
REMARK    1  A    between atoms: N_2  and  C_4
REMARK    2  A    between atoms: C_10  and  O_11
REMARK    3  A    between atoms: C_12  and  O_13
REMARK                            x       y       z     vdW  Elec       q    Type
REMARK                         _______ _______ _______ _____ _____    ______ ____
ROOT
ATOM      1  C   UNL     1       4.173   3.461  19.282  0.00  0.00    +0.000 A 
ATOM      2  C   UNL     1       2.959   3.955  19.764  0.00  0.00    +0.000 A 
ATOM      3  C   UNL     1       2.653   5.293  19.575  0.00  0.00    +0.000 A 
ATOM      4  C   UNL     1       3.543   6.132  18.917  0.00  0.00    +0.000 A 
ATOM      5  C   UNL     1       4.752   5.642  18.426  0.00  0.00    +0.000 A 
ATOM      6  N   UNL     1       5.577   6.504  17.797  0.00  0.00    +0.000 NA
ATOM      7  C   UNL     1       6.722   5.977  17.339  0.00  0.00    +0.000 A 
ATOM      8  C   UNL     1       7.065   4.647  17.493  0.00  0.00    +0.000 A 
ATOM      9  N   UNL     1       6.267   3.779  18.131  0.00  0.00    +0.000 NA
ATOM     10  C   UNL     1       5.089   4.262  18.604  0.00  0.00    +0.000 A 
ATOM     11  C   UNL     1       1.327   5.654  20.158  0.00  0.00    +0.000 C 
ATOM     12  C   UNL     1       0.820   4.325  20.739  0.00  0.00    +0.000 C 
ATOM     13  C   UNL     1       1.866   3.232  20.479  0.00  0.00    +0.000 C 
ENDROOT
BRANCH   1  15
ATOM     14  O   UNL     1       5.141   1.831  20.559  0.00  0.00    +0.000 OA
ATOM     15  N   UNL     1       4.509   2.080  19.522  0.00  0.00    +0.000 N 
ATOM     16  O   UNL     1       4.067   1.236  18.729  0.00  0.00    +0.000 OA
ENDBRANCH   1  15
BRANCH   7  17
ATOM     17  O   UNL     1       7.554   6.852  16.714  0.00  0.00    +0.000 OA
ATOM     18  H   UNL     1       7.852   6.307  15.962  0.00  0.00    +0.000 HD
ENDBRANCH   7  17
BRANCH   8  19
ATOM     19  O   UNL     1       8.238   4.147  17.008  0.00  0.00    +0.000 OA
ATOM     20  H   UNL     1       8.304   3.245  17.370  0.00  0.00    +0.000 HD
ENDBRANCH   8  19
TORSDOF 3
ENDMDL
MODEL 2
REMARK VINA RESULT:      -6.9      2.927      4.305
REMARK  Name = 
REMARK  3 active torsions:
REMARK  status: ('A' for Active; 'I' for Inactive)
REMARK    1  A    between atoms: N_2  and  C_4
REMARK    2  A    between atoms: C_10  and  O_11
REMARK    3  A    between atoms: C_12  and  O_13
REMARK                            x       y       z     vdW  Elec       q    Type
REMARK                         _______ _______ _______ _____ _____    ______ ____
ROOT
ATOM      1  C   UNL     1       6.249   5.634  17.207  0.00  0.00    +0.000 A 
ATOM      2  C   UNL     1       5.203   5.150  17.995  0.00  0.00    +0.000 A 
ATOM      3  C   UNL     1       4.332   4.217  17.459  0.00  0.00    +0.000 A 
ATOM      4  C   UNL     1       4.496   3.769  16.154  0.00  0.00    +0.000 A 
ATOM      5  C   UNL     1       5.544   4.242  15.367  0.00  0.00    +0.000 A 
ATOM      6  N   UNL     1       5.653   3.772  14.106  0.00  0.00    +0.000 NA
ATOM      7  C   UNL     1       6.683   4.256  13.398  0.00  0.00    +0.000 A 
ATOM      8  C   UNL     1       7.585   5.179  13.893  0.00  0.00    +0.000 A 
ATOM      9  N   UNL     1       7.483   5.671  15.136  0.00  0.00    +0.000 NA
ATOM     10  C   UNL     1       6.461   5.204  15.899  0.00  0.00    +0.000 A 
ATOM     11  C   UNL     1       3.271   3.815  18.429  0.00  0.00    +0.000 C 
ATOM     12  C   UNL     1       3.611   4.632  19.686  0.00  0.00    +0.000 C 
ATOM     13  C   UNL     1       4.857   5.484  19.408  0.00  0.00    +0.000 C 
ENDROOT
BRANCH   1  15
ATOM     14  O   UNL     1       7.979   6.257  18.566  0.00  0.00    +0.000 OA
ATOM     15  N   UNL     1       7.126   6.641  17.752  0.00  0.00    +0.000 N 
ATOM     16  O   UNL     1       7.026   7.792  17.304  0.00  0.00    +0.000 OA
ENDBRANCH   1  15
BRANCH   7  17
ATOM     17  O   UNL     1       6.783   3.787  12.125  0.00  0.00    +0.000 OA
ATOM     18  H   UNL     1       6.379   4.525  11.631  0.00  0.00    +0.000 HD
ENDBRANCH   7  17
BRANCH   8  19
ATOM     19  O   UNL     1       8.624   5.644  13.141  0.00  0.00    +0.000 OA
ATOM     20  H   UNL     1       8.990   6.394  13.642  0.00  0.00    +0.000 HD
ENDBRANCH   8  19
TORSDOF 3
ENDMDL
MODEL 3
REMARK VINA RESULT:      -6.9      2.191      3.275
REMARK  Name = 
REMARK  3 active torsions:
REMARK  status: ('A' for Active; 'I' for Inactive)
REMARK    1  A    between atoms: N_2  and  C_4
REMARK    2  A    between atoms: C_10  and  O_11
REMARK    3  A    between atoms: C_12  and  O_13
REMARK                            x       y       z     vdW  Elec       q    Type
REMARK                         _______ _______ _______ _____ _____    ______ ____
ROOT
ATOM      1  C   UNL     1       3.203   5.603  19.127  0.00  0.00    +0.000 A 
ATOM      2  C   UNL     1       2.593   4.599  19.880  0.00  0.00    +0.000 A 
ATOM      3  C   UNL     1       3.246   3.388  20.043  0.00  0.00    +0.000 A 
ATOM      4  C   UNL     1       4.490   3.176  19.462  0.00  0.00    +0.000 A 
ATOM      5  C   UNL     1       5.107   4.179  18.718  0.00  0.00    +0.000 A 
ATOM      6  N   UNL     1       6.315   3.916  18.176  0.00  0.00    +0.000 NA
ATOM      7  C   UNL     1       6.864   4.919  17.477  0.00  0.00    +0.000 A 
ATOM      8  C   UNL     1       6.257   6.148  17.297  0.00  0.00    +0.000 A 
ATOM      9  N   UNL     1       5.050   6.422  17.811  0.00  0.00    +0.000 NA
ATOM     10  C   UNL     1       4.455   5.441  18.539  0.00  0.00    +0.000 A 
ATOM     11  C   UNL     1       2.452   2.426  20.864  0.00  0.00    +0.000 C 
ATOM     12  C   UNL     1       1.187   3.223  21.219  0.00  0.00    +0.000 C 
ATOM     13  C   UNL     1       1.281   4.621  20.592  0.00  0.00    +0.000 C 
ENDROOT
BRANCH   1  15
ATOM     14  O   UNL     1       1.990   7.019  17.803  0.00  0.00    +0.000 OA
ATOM     15  N   UNL     1       2.500   6.845  18.920  0.00  0.00    +0.000 N 
ATOM     16  O   UNL     1       2.376   7.603  19.893  0.00  0.00    +0.000 OA
ENDBRANCH   1  15
BRANCH   7  17
ATOM     17  O   UNL     1       8.077   4.645  16.925  0.00  0.00    +0.000 OA
ATOM     18  H   UNL     1       8.651   5.220  17.465  0.00  0.00    +0.000 HD
ENDBRANCH   7  17
BRANCH   8  19
ATOM     19  O   UNL     1       6.852   7.145  16.582  0.00  0.00    +0.000 OA
ATOM     20  H   UNL     1       7.802   7.077  16.784  0.00  0.00    +0.000 HD
ENDBRANCH   8  19
TORSDOF 3
ENDMDL
MODEL 4
REMARK VINA RESULT:      -6.9      1.759      1.963
REMARK  Name = 
REMARK  3 active torsions:
REMARK  status: ('A' for Active; 'I' for Inactive)
REMARK    1  A    between atoms: N_2  and  C_4
REMARK    2  A    between atoms: C_10  and  O_11
REMARK    3  A    between atoms: C_12  and  O_13
REMARK                            x       y       z     vdW  Elec       q    Type
REMARK                         _______ _______ _______ _____ _____    ______ ____
ROOT
ATOM      1  C   UNL     1       3.301   4.458  18.776  0.00  0.00    +0.000 A 
ATOM      2  C   UNL     1       2.617   5.475  19.445  0.00  0.00    +0.000 A 
ATOM      3  C   UNL     1       2.770   6.784  19.017  0.00  0.00    +0.000 A 
ATOM      4  C   UNL     1       3.594   7.080  17.939  0.00  0.00    +0.000 A 
ATOM      5  C   UNL     1       4.271   6.067  17.262  0.00  0.00    +0.000 A 
ATOM      6  N   UNL     1       5.059   6.415  16.223  0.00  0.00    +0.000 NA
ATOM      7  C   UNL     1       5.680   5.400  15.606  0.00  0.00    +0.000 A 
ATOM      8  C   UNL     1       5.549   4.078  15.988  0.00  0.00    +0.000 A 
ATOM      9  N   UNL     1       4.786   3.715  17.028  0.00  0.00    +0.000 NA
ATOM     10  C   UNL     1       4.126   4.706  17.682  0.00  0.00    +0.000 A 
ATOM     11  C   UNL     1       1.979   7.742  19.845  0.00  0.00    +0.000 C 
ATOM     12  C   UNL     1       1.278   6.834  20.867  0.00  0.00    +0.000 C 
ATOM     13  C   UNL     1       1.683   5.377  20.605  0.00  0.00    +0.000 C 
ENDROOT
BRANCH   1  15
ATOM     14  O   UNL     1       3.967   2.750  20.142  0.00  0.00    +0.000 OA
ATOM     15  N   UNL     1       3.177   3.103  19.254  0.00  0.00    +0.000 N 
ATOM     16  O   UNL     1       2.240   2.423  18.812  0.00  0.00    +0.000 OA
ENDBRANCH   1  15
BRANCH   7  17
ATOM     17  O   UNL     1       6.480   5.756  14.565  0.00  0.00    +0.000 OA
ATOM     18  H   UNL     1       7.013   6.458  14.983  0.00  0.00    +0.000 HD
ENDBRANCH   7  17
BRANCH   8  19
ATOM     19  O   UNL     1       6.195   3.072  15.330  0.00  0.00    +0.000 OA
ATOM     20  H   UNL     1       7.143   3.280  15.407  0.00  0.00    +0.000 HD
ENDBRANCH   8  19
TORSDOF 3
ENDMDL
MODEL 5
REMARK VINA RESULT:      -6.8      2.475      3.392
REMARK  Name = 
REMARK  3 active torsions:
REMARK  status: ('A' for Active; 'I' for Inactive)
REMARK    1  A    between atoms: N_2  and  C_4
REMARK    2  A    between atoms: C_10  and  O_11
REMARK    3  A    between atoms: C_12  and  O_13
REMARK                            x       y       z     vdW  Elec       q    Type
REMARK                         _______ _______ _______ _____ _____    ______ ____
ROOT
ATOM      1  C   UNL     1       3.074   5.438  18.443  0.00  0.00    +0.000 A 
ATOM      2  C   UNL     1       2.313   4.289  18.664  0.00  0.00    +0.000 A 
ATOM      3  C   UNL     1       2.761   3.078  18.162  0.00  0.00    +0.000 A 
ATOM      4  C   UNL     1       3.950   3.008  17.448  0.00  0.00    +0.000 A 
ATOM      5  C   UNL     1       4.719   4.151  17.234  0.00  0.00    +0.000 A 
ATOM      6  N   UNL     1       5.865   4.023  16.533  0.00  0.00    +0.000 NA
ATOM      7  C   UNL     1       6.566   5.153  16.364  0.00  0.00    +0.000 A 
ATOM      8  C   UNL     1       6.167   6.381  16.855  0.00  0.00    +0.000 A 
ATOM      9  N   UNL     1       5.023   6.532  17.538  0.00  0.00    +0.000 NA
ATOM     10  C   UNL     1       4.280   5.414  17.746  0.00  0.00    +0.000 A 
ATOM     11  C   UNL     1       1.825   1.958  18.478  0.00  0.00    +0.000 C 
ATOM     12  C   UNL     1       0.709   2.643  19.281  0.00  0.00    +0.000 C 
ATOM     13  C   UNL     1       1.026   4.140  19.406  0.00  0.00    +0.000 C 
ENDROOT
BRANCH   1  15
ATOM     14  O   UNL     1       2.077   7.464  18.085  0.00  0.00    +0.000 OA
ATOM     15  N   UNL     1       2.582   6.705  18.925  0.00  0.00    +0.000 N 
ATOM     16  O   UNL     1       2.615   6.905  20.148  0.00  0.00    +0.000 OA
ENDBRANCH   1  15
BRANCH   7  17
ATOM     17  O   UNL     1       7.715   5.020  15.648  0.00  0.00    +0.000 OA
ATOM     18  H   UNL     1       8.376   5.244  16.329  0.00  0.00    +0.000 HD
ENDBRANCH   7  17
BRANCH   8  19
ATOM     19  O   UNL     1       6.912   7.508  16.665  0.00  0.00    +0.000 OA
ATOM     20  H   UNL     1       6.276   8.245  16.690  0.00  0.00    +0.000 HD
ENDBRANCH   8  19
TORSDOF 3
ENDMDL
MODEL 6
REMARK VINA RESULT:      -6.7      1.309      1.455
REMARK  Name = 
REMARK  3 active torsions:
REMARK  status: ('A' for Active; 'I' for Inactive)
REMARK    1  A    between atoms: N_2  and  C_4
REMARK    2  A    between atoms: C_10  and  O_11
REMARK    3  A    between atoms: C_12  and  O_13
REMARK                            x       y       z     vdW  Elec       q    Type
REMARK                         _______ _______ _______ _____ _____    ______ ____
ROOT
ATOM      1  C   UNL     1       3.371   3.555  18.110  0.00  0.00    +0.000 A 
ATOM      2  C   UNL     1       2.541   4.081  19.101  0.00  0.00    +0.000 A 
ATOM      3  C   UNL     1       2.789   5.357  19.581  0.00  0.00    +0.000 A 
ATOM      4  C   UNL     1       3.851   6.101  19.083  0.00  0.00    +0.000 A 
ATOM      5  C   UNL     1       4.677   5.584  18.087  0.00  0.00    +0.000 A 
ATOM      6  N   UNL     1       5.693   6.352  17.642  0.00  0.00    +0.000 NA
ATOM      7  C   UNL     1       6.450   5.807  16.680  0.00  0.00    +0.000 A 
ATOM      8  C   UNL     1       6.234   4.544  16.161  0.00  0.00    +0.000 A 
ATOM      9  N   UNL     1       5.241   3.759  16.602  0.00  0.00    +0.000 NA
ATOM     10  C   UNL     1       4.438   4.270  17.571  0.00  0.00    +0.000 A 
ATOM     11  C   UNL     1       1.817   5.759  20.640  0.00  0.00    +0.000 C 
ATOM     12  C   UNL     1       0.890   4.539  20.753  0.00  0.00    +0.000 C 
ATOM     13  C   UNL     1       1.351   3.464  19.759  0.00  0.00    +0.000 C 
ENDROOT
BRANCH   1  15
ATOM     14  O   UNL     1       3.741   1.303  18.240  0.00  0.00    +0.000 OA
ATOM     15  N   UNL     1       3.138   2.209  17.647  0.00  0.00    +0.000 N 
ATOM     16  O   UNL     1       2.290   2.047  16.758  0.00  0.00    +0.000 OA
ENDBRANCH   1  15
BRANCH   7  17
ATOM     17  O   UNL     1       7.479   6.581  16.242  0.00  0.00    +0.000 OA
ATOM     18  H   UNL     1       7.783   6.057  15.478  0.00  0.00    +0.000 HD
ENDBRANCH   7  17
BRANCH   8  19
ATOM     19  O   UNL     1       7.024   4.026  15.177  0.00  0.00    +0.000 OA
ATOM     20  H   UNL     1       7.617   4.752  14.913  0.00  0.00    +0.000 HD
ENDBRANCH   8  19
TORSDOF 3
ENDMDL
MODEL 7
REMARK VINA RESULT:      -6.7      2.302      3.034
REMARK  Name = 
REMARK  3 active torsions:
REMARK  status: ('A' for Active; 'I' for Inactive)
REMARK    1  A    between atoms: N_2  and  C_4
REMARK    2  A    between atoms: C_10  and  O_11
REMARK    3  A    between atoms: C_12  and  O_13
REMARK                            x       y       z     vdW  Elec       q    Type
REMARK                         _______ _______ _______ _____ _____    ______ ____
ROOT
ATOM      1  C   UNL     1       2.722   4.518  18.505  0.00  0.00    +0.000 A 
ATOM      2  C   UNL     1       2.376   3.806  19.655  0.00  0.00    +0.000 A 
ATOM      3  C   UNL     1       3.365   3.135  20.356  0.00  0.00    +0.000 A 
ATOM      4  C   UNL     1       4.683   3.169  19.919  0.00  0.00    +0.000 A 
ATOM      5  C   UNL     1       5.036   3.886  18.777  0.00  0.00    +0.000 A 
ATOM      6  N   UNL     1       6.331   3.882  18.400  0.00  0.00    +0.000 NA
ATOM      7  C   UNL     1       6.613   4.593  17.299  0.00  0.00    +0.000 A 
ATOM      8  C   UNL     1       5.664   5.288  16.574  0.00  0.00    +0.000 A 
ATOM      9  N   UNL     1       4.369   5.290  16.922  0.00  0.00    +0.000 NA
ATOM     10  C   UNL     1       4.033   4.591  18.038  0.00  0.00    +0.000 A 
ATOM     11  C   UNL     1       2.822   2.421  21.549  0.00  0.00    +0.000 C 
ATOM     12  C   UNL     1       1.323   2.755  21.512  0.00  0.00    +0.000 C 
ATOM     13  C   UNL     1       1.038   3.651  20.298  0.00  0.00    +0.000 C 
ENDROOT
BRANCH   1  15
ATOM     14  O   UNL     1       1.648   6.414  17.812  0.00  0.00    +0.000 OA
ATOM     15  N   UNL     1       1.684   5.176  17.751  0.00  0.00    +0.000 N 
ATOM     16  O   UNL     1       0.964   4.470  17.030  0.00  0.00    +0.000 OA
ENDBRANCH   1  15
BRANCH   7  17
ATOM     17  O   UNL     1       7.919   4.578  16.918  0.00  0.00    +0.000 OA
ATOM     18  H   UNL     1       7.931   3.778  16.359  0.00  0.00    +0.000 HD
ENDBRANCH   7  17
BRANCH   8  19
ATOM     19  O   UNL     1       5.992   6.005  15.461  0.00  0.00    +0.000 OA
ATOM     20  H   UNL     1       6.942   6.201  15.551  0.00  0.00    +0.000 HD
ENDBRANCH   8  19
TORSDOF 3
ENDMDL
MODEL 8
REMARK VINA RESULT:      -6.5      2.043      4.492
REMARK  Name = 
REMARK  3 active torsions:
REMARK  status: ('A' for Active; 'I' for Inactive)
REMARK    1  A    between atoms: N_2  and  C_4
REMARK    2  A    between atoms: C_10  and  O_11
REMARK    3  A    between atoms: C_12  and  O_13
REMARK                            x       y       z     vdW  Elec       q    Type
REMARK                         _______ _______ _______ _____ _____    ______ ____
ROOT
ATOM      1  C   UNL     1       3.978   5.786  18.264  0.00  0.00    +0.000 A 
ATOM      2  C   UNL     1       3.231   6.965  18.283  0.00  0.00    +0.000 A 
ATOM      3  C   UNL     1       2.254   7.127  19.252  0.00  0.00    +0.000 A 
ATOM      4  C   UNL     1       2.020   6.129  20.190  0.00  0.00    +0.000 A 
ATOM      5  C   UNL     1       2.771   4.955  20.181  0.00  0.00    +0.000 A 
ATOM      6  N   UNL     1       2.499   4.020  21.115  0.00  0.00    +0.000 NA
ATOM      7  C   UNL     1       3.256   2.915  21.062  0.00  0.00    +0.000 A 
ATOM      8  C   UNL     1       4.249   2.713  20.123  0.00  0.00    +0.000 A 
ATOM      9  N   UNL     1       4.522   3.622  19.176  0.00  0.00    +0.000 NA
ATOM     10  C   UNL     1       3.789   4.765  19.192  0.00  0.00    +0.000 A 
ATOM     11  C   UNL     1       1.545   8.435  19.123  0.00  0.00    +0.000 C 
ATOM     12  C   UNL     1       2.238   9.097  17.922  0.00  0.00    +0.000 C 
ATOM     13  C   UNL     1       3.326   8.155  17.387  0.00  0.00    +0.000 C 
ENDROOT
BRANCH   1  15
ATOM     14  O   UNL     1       6.100   6.038  17.450  0.00  0.00    +0.000 OA
ATOM     15  N   UNL     1       4.962   5.600  17.225  0.00  0.00    +0.000 N 
ATOM     16  O   UNL     1       4.628   4.942  16.230  0.00  0.00    +0.000 OA
ENDBRANCH   1  15
BRANCH   7  17
ATOM     17  O   UNL     1       2.971   1.972  22.000  0.00  0.00    +0.000 OA
ATOM     18  H   UNL     1       3.872   1.712  22.270  0.00  0.00    +0.000 HD
ENDBRANCH   7  17
BRANCH   8  19
ATOM     19  O   UNL     1       5.002   1.576  20.106  0.00  0.00    +0.000 OA
ATOM     20  H   UNL     1       5.608   1.656  20.864  0.00  0.00    +0.000 HD
ENDBRANCH   8  19
TORSDOF 3
ENDMDL
MODEL 9
REMARK VINA RESULT:      -6.4      2.906      4.764
REMARK  Name = 
REMARK  3 active torsions:
REMARK  status: ('A' for Active; 'I' for Inactive)
REMARK    1  A    between atoms: N_2  and  C_4
REMARK    2  A    between atoms: C_10  and  O_11
REMARK    3  A    between atoms: C_12  and  O_13
REMARK                            x       y       z     vdW  Elec       q    Type
REMARK                         _______ _______ _______ _____ _____    ______ ____
ROOT
ATOM      1  C   UNL     1       4.370   4.487  17.923  0.00  0.00    +0.000 A 
ATOM      2  C   UNL     1       5.120   4.536  16.746  0.00  0.00    +0.000 A 
ATOM      3  C   UNL     1       5.136   5.707  16.006  0.00  0.00    +0.000 A 
ATOM      4  C   UNL     1       4.415   6.817  16.429  0.00  0.00    +0.000 A 
ATOM      5  C   UNL     1       3.673   6.776  17.608  0.00  0.00    +0.000 A 
ATOM      6  N   UNL     1       2.992   7.883  17.968  0.00  0.00    +0.000 NA
ATOM      7  C   UNL     1       2.302   7.789  19.114  0.00  0.00    +0.000 A 
ATOM      8  C   UNL     1       2.265   6.647  19.892  0.00  0.00    +0.000 A 
ATOM      9  N   UNL     1       2.920   5.531  19.542  0.00  0.00    +0.000 NA
ATOM     10  C   UNL     1       3.644   5.578  18.393  0.00  0.00    +0.000 A 
ATOM     11  C   UNL     1       5.975   5.585  14.778  0.00  0.00    +0.000 C 
ATOM     12  C   UNL     1       6.512   4.147  14.855  0.00  0.00    +0.000 C 
ATOM     13  C   UNL     1       5.967   3.476  16.124  0.00  0.00    +0.000 C 
ENDROOT
BRANCH   1  15
ATOM     14  O   UNL     1       5.119   3.129  19.603  0.00  0.00    +0.000 OA
ATOM     15  N   UNL     1       4.317   3.252  18.666  0.00  0.00    +0.000 N 
ATOM     16  O   UNL     1       3.421   2.446  18.375  0.00  0.00    +0.000 OA
ENDBRANCH   1  15
BRANCH   7  17
ATOM     17  O   UNL     1       1.609   8.904  19.467  0.00  0.00    +0.000 OA
ATOM     18  H   UNL     1       1.315   9.216  18.591  0.00  0.00    +0.000 HD
ENDBRANCH   7  17
BRANCH   8  19
ATOM     19  O   UNL     1       1.554   6.592  21.055  0.00  0.00    +0.000 OA
ATOM     20  H   UNL     1       1.964   5.878  21.575  0.00  0.00    +0.000 HD
ENDBRANCH   8  19
TORSDOF 3
ENDMDL
