MODEL 1
REMARK VINA RESULT:      -8.2      0.000      0.000
REMARK  Name = 
REMARK  5 active torsions:
REMARK  status: ('A' for Active; 'I' for Inactive)
REMARK    1  A    between atoms: C_1  and  N_2
REMARK    2  A    between atoms: C_4  and  C_5
REMARK    3  A    between atoms: C_5  and  O_6
REMARK    4  A    between atoms: O_6  and  C_7
REMARK    5  A    between atoms: C_7  and  C_9
REMARK                            x       y       z     vdW  Elec       q    Type
REMARK                         _______ _______ _______ _____ _____    ______ ____
ROOT
ATOM      1  C   UNL     1       5.532   6.618  15.952  0.00  0.00    +0.000 C 
ATOM      2  N   UNL     1       4.302   6.729  16.737  0.00  0.00    +0.000 NA
ATOM      3  C   UNL     1       3.938   8.075  17.243  0.00  0.00    +0.000 C 
ATOM      4  C   UNL     1       2.417   8.122  17.598  0.00  0.00    +0.000 C 
ATOM      5  C   UNL     1       2.016   6.934  18.441  0.00  0.00    +0.000 C 
ATOM      6  C   UNL     1       2.733   5.789  18.483  0.00  0.00    +0.000 C 
ATOM      7  C   UNL     1       2.180   4.586  19.166  0.00  0.00    +0.000 A 
ATOM      8  C   UNL     1       1.125   4.513  20.085  0.00  0.00    +0.000 A 
ATOM      9  C   UNL     1       0.727   3.283  20.633  0.00  0.00    +0.000 A 
ATOM     10  C   UNL     1       1.356   2.079  20.288  0.00  0.00    +0.000 A 
ATOM     11  C   UNL     1       2.371   2.155  19.338  0.00  0.00    +0.000 A 
ATOM     12  N   UNL     1       3.151   1.183  18.745  0.00  0.00    +0.000 N 
ATOM     13  C   UNL     1       3.975   1.747  17.800  0.00  0.00    +0.000 A 
ATOM     14  C   UNL     1       3.751   3.104  17.827  0.00  0.00    +0.000 A 
ATOM     15  C   UNL     1       2.763   3.365  18.790  0.00  0.00    +0.000 A 
ATOM     16  C   UNL     1       4.283   4.217  17.015  0.00  0.00    +0.000 C 
ATOM     17  C   UNL     1       4.100   5.627  17.730  0.00  0.00    +0.000 C 
ATOM     18  H   UNL     1       3.096   0.196  18.950  0.00  0.00    +0.000 HD
ENDROOT
BRANCH   4  19
ATOM     19  C   UNL     1       1.947   9.501  18.121  0.00  0.00    +0.000 C 
BRANCH  19  20
ATOM     20  O   UNL     1       0.494   9.633  18.121  0.00  0.00    +0.000 OA
BRANCH  20  21
ATOM     21  C   UNL     1      -0.110  10.082  19.248  0.00  0.00    +0.000 C 
ATOM     22  O   UNL     1      -1.270  10.495  19.291  0.00  0.00    +0.000 OA
BRANCH  21  23
ATOM     23  C   UNL     1       0.862  10.102  20.440  0.00  0.00    +0.000 C 
ATOM     24  C   UNL     1       0.712  11.362  21.316  0.00  0.00    +0.000 C 
ATOM     25  C   UNL     1      -0.523  11.336  22.219  0.00  0.00    +0.000 C 
ATOM     26  C   UNL     1      -0.609  10.054  23.039  0.00  0.00    +0.000 C 
ATOM     27  C   UNL     1      -0.503   8.815  22.156  0.00  0.00    +0.000 C 
ATOM     28  C   UNL     1       0.766   8.840  21.306  0.00  0.00    +0.000 C 
ENDBRANCH  21  23
ENDBRANCH  20  21
ENDBRANCH  19  20
ENDBRANCH   4  19
TORSDOF 4
ENDMDL
MODEL 2
REMARK VINA RESULT:      -8.1      3.081      7.122
REMARK  Name = 
REMARK  5 active torsions:
REMARK  status: ('A' for Active; 'I' for Inactive)
REMARK    1  A    between atoms: C_1  and  N_2
REMARK    2  A    between atoms: C_4  and  C_5
REMARK    3  A    between atoms: C_5  and  O_6
REMARK    4  A    between atoms: O_6  and  C_7
REMARK    5  A    between atoms: C_7  and  C_9
REMARK                            x       y       z     vdW  Elec       q    Type
REMARK                         _______ _______ _______ _____ _____    ______ ____
ROOT
ATOM      1  C   UNL     1       2.109   3.586  21.584  0.00  0.00    +0.000 C 
ATOM      2  N   UNL     1       2.281   4.243  20.289  0.00  0.00    +0.000 NA
ATOM      3  C   UNL     1       3.239   3.630  19.337  0.00  0.00    +0.000 C 
ATOM      4  C   UNL     1       2.941   4.120  17.884  0.00  0.00    +0.000 C 
ATOM      5  C   UNL     1       2.783   5.622  17.835  0.00  0.00    +0.000 C 
ATOM      6  C   UNL     1       2.480   6.362  18.924  0.00  0.00    +0.000 C 
ATOM      7  C   UNL     1       2.135   7.804  18.774  0.00  0.00    +0.000 A 
ATOM      8  C   UNL     1       2.377   8.650  17.684  0.00  0.00    +0.000 A 
ATOM      9  C   UNL     1       1.976   9.995  17.709  0.00  0.00    +0.000 A 
ATOM     10  C   UNL     1       1.317  10.552  18.813  0.00  0.00    +0.000 A 
ATOM     11  C   UNL     1       1.037   9.693  19.872  0.00  0.00    +0.000 A 
ATOM     12  N   UNL     1       0.376   9.889  21.067  0.00  0.00    +0.000 N 
ATOM     13  C   UNL     1       0.287   8.705  21.761  0.00  0.00    +0.000 A 
ATOM     14  C   UNL     1       0.946   7.753  21.020  0.00  0.00    +0.000 A 
ATOM     15  C   UNL     1       1.426   8.363  19.850  0.00  0.00    +0.000 A 
ATOM     16  C   UNL     1       1.138   6.301  21.209  0.00  0.00    +0.000 C 
ATOM     17  C   UNL     1       2.359   5.737  20.358  0.00  0.00    +0.000 C 
ATOM     18  H   UNL     1      -0.021  10.768  21.368  0.00  0.00    +0.000 HD
ENDROOT
BRANCH   4  19
ATOM     19  C   UNL     1       3.890   3.513  16.821  0.00  0.00    +0.000 C 
BRANCH  19  20
ATOM     20  O   UNL     1       4.742   4.518  16.195  0.00  0.00    +0.000 OA
BRANCH  20  21
ATOM     21  C   UNL     1       5.917   4.828  16.795  0.00  0.00    +0.000 C 
ATOM     22  O   UNL     1       6.988   4.274  16.542  0.00  0.00    +0.000 OA
BRANCH  21  23
ATOM     23  C   UNL     1       5.727   5.886  17.896  0.00  0.00    +0.000 C 
ATOM     24  C   UNL     1       6.461   5.528  19.205  0.00  0.00    +0.000 C 
ATOM     25  C   UNL     1       7.973   5.752  19.137  0.00  0.00    +0.000 C 
ATOM     26  C   UNL     1       8.326   7.151  18.645  0.00  0.00    +0.000 C 
ATOM     27  C   UNL     1       7.627   7.475  17.328  0.00  0.00    +0.000 C 
ATOM     28  C   UNL     1       6.115   7.296  17.438  0.00  0.00    +0.000 C 
ENDBRANCH  21  23
ENDBRANCH  20  21
ENDBRANCH  19  20
ENDBRANCH   4  19
TORSDOF 4
ENDMDL
MODEL 3
REMARK VINA RESULT:      -7.8      0.804      1.282
REMARK  Name = 
REMARK  5 active torsions:
REMARK  status: ('A' for Active; 'I' for Inactive)
REMARK    1  A    between atoms: C_1  and  N_2
REMARK    2  A    between atoms: C_4  and  C_5
REMARK    3  A    between atoms: C_5  and  O_6
REMARK    4  A    between atoms: O_6  and  C_7
REMARK    5  A    between atoms: C_7  and  C_9
REMARK                            x       y       z     vdW  Elec       q    Type
REMARK                         _______ _______ _______ _____ _____    ______ ____
ROOT
ATOM      1  C   UNL     1       5.434   6.298  15.644  0.00  0.00    +0.000 C 
ATOM      2  N   UNL     1       4.343   6.563  16.581  0.00  0.00    +0.000 NA
ATOM      3  C   UNL     1       4.192   7.953  17.075  0.00  0.00    +0.000 C 
ATOM      4  C   UNL     1       2.748   8.173  17.628  0.00  0.00    +0.000 C 
ATOM      5  C   UNL     1       2.346   7.058  18.566  0.00  0.00    +0.000 C 
ATOM      6  C   UNL     1       2.940   5.845  18.559  0.00  0.00    +0.000 C 
ATOM      7  C   UNL     1       2.365   4.727  19.359  0.00  0.00    +0.000 A 
ATOM      8  C   UNL     1       1.446   4.793  20.414  0.00  0.00    +0.000 A 
ATOM      9  C   UNL     1       1.002   3.629  21.061  0.00  0.00    +0.000 A 
ATOM     10  C   UNL     1       1.450   2.355  20.685  0.00  0.00    +0.000 A 
ATOM     11  C   UNL     1       2.326   2.295  19.605  0.00  0.00    +0.000 A 
ATOM     12  N   UNL     1       2.913   1.230  18.954  0.00  0.00    +0.000 N 
ATOM     13  C   UNL     1       3.653   1.676  17.884  0.00  0.00    +0.000 A 
ATOM     14  C   UNL     1       3.576   3.048  17.884  0.00  0.00    +0.000 A 
ATOM     15  C   UNL     1       2.762   3.441  18.959  0.00  0.00    +0.000 A 
ATOM     16  C   UNL     1       4.102   4.075  16.963  0.00  0.00    +0.000 C 
ATOM     17  C   UNL     1       4.167   5.516  17.637  0.00  0.00    +0.000 C 
ATOM     18  H   UNL     1       2.785   0.260  19.205  0.00  0.00    +0.000 HD
ENDROOT
BRANCH   4  19
ATOM     19  C   UNL     1       2.499   9.609  18.152  0.00  0.00    +0.000 C 
BRANCH  19  20
ATOM     20  O   UNL     1       1.083   9.886  18.369  0.00  0.00    +0.000 OA
BRANCH  20  21
ATOM     21  C   UNL     1       0.730  10.598  19.467  0.00  0.00    +0.000 C 
ATOM     22  O   UNL     1       1.388  11.536  19.922  0.00  0.00    +0.000 OA
BRANCH  21  23
ATOM     23  C   UNL     1      -0.537  10.028  20.126  0.00  0.00    +0.000 C 
ATOM     24  C   UNL     1      -0.242   8.844  21.070  0.00  0.00    +0.000 C 
ATOM     25  C   UNL     1       0.363   9.268  22.410  0.00  0.00    +0.000 C 
ATOM     26  C   UNL     1      -0.456  10.355  23.094  0.00  0.00    +0.000 C 
ATOM     27  C   UNL     1      -0.704  11.539  22.163  0.00  0.00    +0.000 C 
ATOM     28  C   UNL     1      -1.359  11.097  20.857  0.00  0.00    +0.000 C 
ENDBRANCH  21  23
ENDBRANCH  20  21
ENDBRANCH  19  20
ENDBRANCH   4  19
TORSDOF 4
ENDMDL
MODEL 4
REMARK VINA RESULT:      -7.7      1.356      2.215
REMARK  Name = 
REMARK  5 active torsions:
REMARK  status: ('A' for Active; 'I' for Inactive)
REMARK    1  A    between atoms: C_1  and  N_2
REMARK    2  A    between atoms: C_4  and  C_5
REMARK    3  A    between atoms: C_5  and  O_6
REMARK    4  A    between atoms: O_6  and  C_7
REMARK    5  A    between atoms: C_7  and  C_9
REMARK                            x       y       z     vdW  Elec       q    Type
REMARK                         _______ _______ _______ _____ _____    ______ ____
ROOT
ATOM      1  C   UNL     1       5.198   6.520  15.660  0.00  0.00    +0.000 C 
ATOM      2  N   UNL     1       4.113   6.692  16.625  0.00  0.00    +0.000 NA
ATOM      3  C   UNL     1       3.880   8.059  17.150  0.00  0.00    +0.000 C 
ATOM      4  C   UNL     1       2.436   8.170  17.739  0.00  0.00    +0.000 C 
ATOM      5  C   UNL     1       2.132   7.012  18.662  0.00  0.00    +0.000 C 
ATOM      6  C   UNL     1       2.806   5.842  18.616  0.00  0.00    +0.000 C 
ATOM      7  C   UNL     1       2.326   4.673  19.405  0.00  0.00    +0.000 A 
ATOM      8  C   UNL     1       1.428   4.656  20.480  0.00  0.00    +0.000 A 
ATOM      9  C   UNL     1       1.079   3.452  21.112  0.00  0.00    +0.000 A 
ATOM     10  C   UNL     1       1.603   2.218  20.700  0.00  0.00    +0.000 A 
ATOM     11  C   UNL     1       2.457   2.239  19.601  0.00  0.00    +0.000 A 
ATOM     12  N   UNL     1       3.100   1.229  18.916  0.00  0.00    +0.000 N 
ATOM     13  C   UNL     1       3.784   1.745  17.840  0.00  0.00    +0.000 A 
ATOM     14  C   UNL     1       3.614   3.109  17.870  0.00  0.00    +0.000 A 
ATOM     15  C   UNL     1       2.800   3.425  18.970  0.00  0.00    +0.000 A 
ATOM     16  C   UNL     1       4.049   4.187  16.960  0.00  0.00    +0.000 C 
ATOM     17  C   UNL     1       4.031   5.615  17.663  0.00  0.00    +0.000 C 
ATOM     18  H   UNL     1       3.043   0.248  19.149  0.00  0.00    +0.000 HD
ENDROOT
BRANCH   4  19
ATOM     19  C   UNL     1       2.103   9.574  18.297  0.00  0.00    +0.000 C 
BRANCH  19  20
ATOM     20  O   UNL     1       1.364   9.515  19.554  0.00  0.00    +0.000 OA
BRANCH  20  21
ATOM     21  C   UNL     1       0.056   9.870  19.547  0.00  0.00    +0.000 C 
ATOM     22  O   UNL     1      -0.755   9.531  20.410  0.00  0.00    +0.000 OA
BRANCH  21  23
ATOM     23  C   UNL     1      -0.307  10.665  18.281  0.00  0.00    +0.000 C 
ATOM     24  C   UNL     1      -1.419   9.994  17.449  0.00  0.00    +0.000 C 
ATOM     25  C   UNL     1      -2.816  10.159  18.052  0.00  0.00    +0.000 C 
ATOM     26  C   UNL     1      -3.137  11.614  18.371  0.00  0.00    +0.000 C 
ATOM     27  C   UNL     1      -2.050  12.253  19.230  0.00  0.00    +0.000 C 
ATOM     28  C   UNL     1      -0.674  12.123  18.580  0.00  0.00    +0.000 C 
ENDBRANCH  21  23
ENDBRANCH  20  21
ENDBRANCH  19  20
ENDBRANCH   4  19
TORSDOF 4
ENDMDL
MODEL 5
REMARK VINA RESULT:      -7.6      2.075      3.390
REMARK  Name = 
REMARK  5 active torsions:
REMARK  status: ('A' for Active; 'I' for Inactive)
REMARK    1  A    between atoms: C_1  and  N_2
REMARK    2  A    between atoms: C_4  and  C_5
REMARK    3  A    between atoms: C_5  and  O_6
REMARK    4  A    between atoms: O_6  and  C_7
REMARK    5  A    between atoms: C_7  and  C_9
REMARK                            x       y       z     vdW  Elec       q    Type
REMARK                         _______ _______ _______ _____ _____    ______ ____
ROOT
ATOM      1  C   UNL     1       2.079   9.446  17.782  0.00  0.00    +0.000 C 
ATOM      2  N   UNL     1       1.671   8.651  18.940  0.00  0.00    +0.000 NA
ATOM      3  C   UNL     1       1.387   9.381  20.200  0.00  0.00    +0.000 C 
ATOM      4  C   UNL     1       0.508   8.499  21.145  0.00  0.00    +0.000 C 
ATOM      5  C   UNL     1       1.070   7.101  21.266  0.00  0.00    +0.000 C 
ATOM      6  C   UNL     1       1.908   6.567  20.352  0.00  0.00    +0.000 C 
ATOM      7  C   UNL     1       2.261   5.120  20.418  0.00  0.00    +0.000 A 
ATOM      8  C   UNL     1       2.113   4.235  21.493  0.00  0.00    +0.000 A 
ATOM      9  C   UNL     1       2.498   2.889  21.381  0.00  0.00    +0.000 A 
ATOM     10  C   UNL     1       3.039   2.369  20.197  0.00  0.00    +0.000 A 
ATOM     11  C   UNL     1       3.138   3.244  19.118  0.00  0.00    +0.000 A 
ATOM     12  N   UNL     1       3.569   3.060  17.821  0.00  0.00    +0.000 N 
ATOM     13  C   UNL     1       3.407   4.218  17.098  0.00  0.00    +0.000 A 
ATOM     14  C   UNL     1       2.913   5.167  17.961  0.00  0.00    +0.000 A 
ATOM     15  C   UNL     1       2.755   4.571  19.223  0.00  0.00    +0.000 A 
ATOM     16  C   UNL     1       2.485   6.567  17.764  0.00  0.00    +0.000 C 
ATOM     17  C   UNL     1       2.450   7.386  19.128  0.00  0.00    +0.000 C 
ATOM     18  H   UNL     1       3.916   2.188  17.448  0.00  0.00    +0.000 HD
ENDROOT
BRANCH   4  19
ATOM     19  C   UNL     1       0.151   9.194  22.481  0.00  0.00    +0.000 C 
BRANCH  19  20
ATOM     20  O   UNL     1       0.249  10.647  22.398  0.00  0.00    +0.000 OA
BRANCH  20  21
ATOM     21  C   UNL     1      -0.857  11.382  22.671  0.00  0.00    +0.000 C 
ATOM     22  O   UNL     1      -1.744  11.029  23.450  0.00  0.00    +0.000 OA
BRANCH  21  23
ATOM     23  C   UNL     1      -0.912  12.659  21.815  0.00  0.00    +0.000 C 
ATOM     24  C   UNL     1      -0.652  12.391  20.319  0.00  0.00    +0.000 C 
ATOM     25  C   UNL     1      -1.843  11.758  19.596  0.00  0.00    +0.000 C 
ATOM     26  C   UNL     1      -3.134  12.536  19.824  0.00  0.00    +0.000 C 
ATOM     27  C   UNL     1      -3.400  12.757  21.310  0.00  0.00    +0.000 C 
ATOM     28  C   UNL     1      -2.219  13.439  21.996  0.00  0.00    +0.000 C 
ENDBRANCH  21  23
ENDBRANCH  20  21
ENDBRANCH  19  20
ENDBRANCH   4  19
TORSDOF 4
ENDMDL
MODEL 6
REMARK VINA RESULT:      -7.6      3.050      7.259
REMARK  Name = 
REMARK  5 active torsions:
REMARK  status: ('A' for Active; 'I' for Inactive)
REMARK    1  A    between atoms: C_1  and  N_2
REMARK    2  A    between atoms: C_4  and  C_5
REMARK    3  A    between atoms: C_5  and  O_6
REMARK    4  A    between atoms: O_6  and  C_7
REMARK    5  A    between atoms: C_7  and  C_9
REMARK                            x       y       z     vdW  Elec       q    Type
REMARK                         _______ _______ _______ _____ _____    ______ ____
ROOT
ATOM      1  C   UNL     1       2.192   3.619  21.412  0.00  0.00    +0.000 C 
ATOM      2  N   UNL     1       2.373   4.328  20.146  0.00  0.00    +0.000 NA
ATOM      3  C   UNL     1       3.359   3.769  19.188  0.00  0.00    +0.000 C 
ATOM      4  C   UNL     1       3.075   4.309  17.749  0.00  0.00    +0.000 C 
ATOM      5  C   UNL     1       2.888   5.809  17.755  0.00  0.00    +0.000 C 
ATOM      6  C   UNL     1       2.553   6.501  18.866  0.00  0.00    +0.000 C 
ATOM      7  C   UNL     1       2.182   7.941  18.764  0.00  0.00    +0.000 A 
ATOM      8  C   UNL     1       2.426   8.832  17.711  0.00  0.00    +0.000 A 
ATOM      9  C   UNL     1       1.998  10.168  17.780  0.00  0.00    +0.000 A 
ATOM     10  C   UNL     1       1.310  10.669  18.894  0.00  0.00    +0.000 A 
ATOM     11  C   UNL     1       1.030   9.765  19.915  0.00  0.00    +0.000 A 
ATOM     12  N   UNL     1       0.345   9.903  21.104  0.00  0.00    +0.000 N 
ATOM     13  C   UNL     1       0.268   8.692  21.751  0.00  0.00    +0.000 A 
ATOM     14  C   UNL     1       0.958   7.781  20.986  0.00  0.00    +0.000 A 
ATOM     15  C   UNL     1       1.445   8.445  19.848  0.00  0.00    +0.000 A 
ATOM     16  C   UNL     1       1.175   6.327  21.124  0.00  0.00    +0.000 C 
ATOM     17  C   UNL     1       2.420   5.819  20.272  0.00  0.00    +0.000 C 
ATOM     18  H   UNL     1      -0.073  10.762  21.432  0.00  0.00    +0.000 HD
ENDROOT
BRANCH   4  19
ATOM     19  C   UNL     1       4.052   3.761  16.681  0.00  0.00    +0.000 C 
BRANCH  19  20
ATOM     20  O   UNL     1       4.855   4.814  16.067  0.00  0.00    +0.000 OA
BRANCH  20  21
ATOM     21  C   UNL     1       5.993   4.460  15.423  0.00  0.00    +0.000 C 
ATOM     22  O   UNL     1       6.037   3.648  14.496  0.00  0.00    +0.000 OA
BRANCH  21  23
ATOM     23  C   UNL     1       7.230   5.121  16.054  0.00  0.00    +0.000 C 
ATOM     24  C   UNL     1       7.017   6.616  16.366  0.00  0.00    +0.000 C 
ATOM     25  C   UNL     1       6.151   6.865  17.604  0.00  0.00    +0.000 C 
ATOM     26  C   UNL     1       6.647   6.090  18.818  0.00  0.00    +0.000 C 
ATOM     27  C   UNL     1       6.812   4.605  18.508  0.00  0.00    +0.000 C 
ATOM     28  C   UNL     1       7.725   4.383  17.304  0.00  0.00    +0.000 C 
ENDBRANCH  21  23
ENDBRANCH  20  21
ENDBRANCH  19  20
ENDBRANCH   4  19
TORSDOF 4
ENDMDL
MODEL 7
REMARK VINA RESULT:      -7.5      1.261      1.952
REMARK  Name = 
REMARK  5 active torsions:
REMARK  status: ('A' for Active; 'I' for Inactive)
REMARK    1  A    between atoms: C_1  and  N_2
REMARK    2  A    between atoms: C_4  and  C_5
REMARK    3  A    between atoms: C_5  and  O_6
REMARK    4  A    between atoms: O_6  and  C_7
REMARK    5  A    between atoms: C_7  and  C_9
REMARK                            x       y       z     vdW  Elec       q    Type
REMARK                         _______ _______ _______ _____ _____    ______ ____
ROOT
ATOM      1  C   UNL     1       5.373   6.486  15.685  0.00  0.00    +0.000 C 
ATOM      2  N   UNL     1       4.252   6.681  16.604  0.00  0.00    +0.000 NA
ATOM      3  C   UNL     1       4.017   8.056  17.108  0.00  0.00    +0.000 C 
ATOM      4  C   UNL     1       2.552   8.191  17.637  0.00  0.00    +0.000 C 
ATOM      5  C   UNL     1       2.195   7.046  18.557  0.00  0.00    +0.000 C 
ATOM      6  C   UNL     1       2.855   5.867  18.549  0.00  0.00    +0.000 C 
ATOM      7  C   UNL     1       2.328   4.712  19.328  0.00  0.00    +0.000 A 
ATOM      8  C   UNL     1       1.387   4.717  20.366  0.00  0.00    +0.000 A 
ATOM      9  C   UNL     1       0.997   3.523  20.994  0.00  0.00    +0.000 A 
ATOM     10  C   UNL     1       1.520   2.279  20.615  0.00  0.00    +0.000 A 
ATOM     11  C   UNL     1       2.418   2.278  19.551  0.00  0.00    +0.000 A 
ATOM     12  N   UNL     1       3.074   1.254  18.901  0.00  0.00    +0.000 N 
ATOM     13  C   UNL     1       3.808   1.750  17.849  0.00  0.00    +0.000 A 
ATOM     14  C   UNL     1       3.656   3.116  17.861  0.00  0.00    +0.000 A 
ATOM     15  C   UNL     1       2.803   3.453  18.924  0.00  0.00    +0.000 A 
ATOM     16  C   UNL     1       4.141   4.180  16.959  0.00  0.00    +0.000 C 
ATOM     17  C   UNL     1       4.114   5.615  17.648  0.00  0.00    +0.000 C 
ATOM     18  H   UNL     1       2.995   0.275  19.141  0.00  0.00    +0.000 HD
ENDROOT
BRANCH   4  19
ATOM     19  C   UNL     1       2.216   9.605  18.168  0.00  0.00    +0.000 C 
BRANCH  19  20
ATOM     20  O   UNL     1       0.785   9.798  18.375  0.00  0.00    +0.000 OA
BRANCH  20  21
ATOM     21  C   UNL     1       0.359  10.176  19.604  0.00  0.00    +0.000 C 
ATOM     22  O   UNL     1       0.960   9.925  20.650  0.00  0.00    +0.000 OA
BRANCH  21  23
ATOM     23  C   UNL     1      -1.013  10.870  19.539  0.00  0.00    +0.000 C 
ATOM     24  C   UNL     1      -1.327  11.699  20.801  0.00  0.00    +0.000 C 
ATOM     25  C   UNL     1      -0.567  13.026  20.864  0.00  0.00    +0.000 C 
ATOM     26  C   UNL     1      -0.727  13.842  19.588  0.00  0.00    +0.000 C 
ATOM     27  C   UNL     1      -0.372  13.023  18.350  0.00  0.00    +0.000 C 
ATOM     28  C   UNL     1      -1.183  11.731  18.282  0.00  0.00    +0.000 C 
ENDBRANCH  21  23
ENDBRANCH  20  21
ENDBRANCH  19  20
ENDBRANCH   4  19
TORSDOF 4
ENDMDL
MODEL 8
REMARK VINA RESULT:      -7.4      1.449      2.083
REMARK  Name = 
REMARK  5 active torsions:
REMARK  status: ('A' for Active; 'I' for Inactive)
REMARK    1  A    between atoms: C_1  and  N_2
REMARK    2  A    between atoms: C_4  and  C_5
REMARK    3  A    between atoms: C_5  and  O_6
REMARK    4  A    between atoms: O_6  and  C_7
REMARK    5  A    between atoms: C_7  and  C_9
REMARK                            x       y       z     vdW  Elec       q    Type
REMARK                         _______ _______ _______ _____ _____    ______ ____
ROOT
ATOM      1  C   UNL     1       5.604   6.132  15.606  0.00  0.00    +0.000 C 
ATOM      2  N   UNL     1       4.484   6.411  16.506  0.00  0.00    +0.000 NA
ATOM      3  C   UNL     1       4.321   7.808  16.976  0.00  0.00    +0.000 C 
ATOM      4  C   UNL     1       2.860   8.037  17.482  0.00  0.00    +0.000 C 
ATOM      5  C   UNL     1       2.429   6.935  18.423  0.00  0.00    +0.000 C 
ATOM      6  C   UNL     1       3.021   5.721  18.450  0.00  0.00    +0.000 C 
ATOM      7  C   UNL     1       2.421   4.615  19.247  0.00  0.00    +0.000 A 
ATOM      8  C   UNL     1       1.469   4.696  20.272  0.00  0.00    +0.000 A 
ATOM      9  C   UNL     1       1.005   3.541  20.921  0.00  0.00    +0.000 A 
ATOM     10  C   UNL     1       1.462   2.262  20.576  0.00  0.00    +0.000 A 
ATOM     11  C   UNL     1       2.372   2.186  19.525  0.00  0.00    +0.000 A 
ATOM     12  N   UNL     1       2.977   1.112  18.907  0.00  0.00    +0.000 N 
ATOM     13  C   UNL     1       3.749   1.542  17.854  0.00  0.00    +0.000 A 
ATOM     14  C   UNL     1       3.674   2.915  17.833  0.00  0.00    +0.000 A 
ATOM     15  C   UNL     1       2.828   3.323  18.877  0.00  0.00    +0.000 A 
ATOM     16  C   UNL     1       4.229   3.929  16.914  0.00  0.00    +0.000 C 
ATOM     17  C   UNL     1       4.275   5.379  17.571  0.00  0.00    +0.000 C 
ATOM     18  H   UNL     1       2.840   0.145  19.167  0.00  0.00    +0.000 HD
ENDROOT
BRANCH   4  19
ATOM     19  C   UNL     1       2.598   9.479  17.978  0.00  0.00    +0.000 C 
BRANCH  19  20
ATOM     20  O   UNL     1       1.536   9.542  18.977  0.00  0.00    +0.000 OA
BRANCH  20  21
ATOM     21  C   UNL     1       0.980  10.747  19.248  0.00  0.00    +0.000 C 
ATOM     22  O   UNL     1       1.604  11.810  19.251  0.00  0.00    +0.000 OA
BRANCH  21  23
ATOM     23  C   UNL     1      -0.500  10.610  19.645  0.00  0.00    +0.000 C 
ATOM     24  C   UNL     1      -1.239  11.963  19.686  0.00  0.00    +0.000 C 
ATOM     25  C   UNL     1      -1.577  12.516  18.299  0.00  0.00    +0.000 C 
ATOM     26  C   UNL     1      -2.302  11.493  17.433  0.00  0.00    +0.000 C 
ATOM     27  C   UNL     1      -1.539  10.173  17.367  0.00  0.00    +0.000 C 
ATOM     28  C   UNL     1      -1.262   9.616  18.761  0.00  0.00    +0.000 C 
ENDBRANCH  21  23
ENDBRANCH  20  21
ENDBRANCH  19  20
ENDBRANCH   4  19
TORSDOF 4
ENDMDL
MODEL 9
REMARK VINA RESULT:      -7.4      3.008      7.238
REMARK  Name = 
REMARK  5 active torsions:
REMARK  status: ('A' for Active; 'I' for Inactive)
REMARK    1  A    between atoms: C_1  and  N_2
REMARK    2  A    between atoms: C_4  and  C_5
REMARK    3  A    between atoms: C_5  and  O_6
REMARK    4  A    between atoms: O_6  and  C_7
REMARK    5  A    between atoms: C_7  and  C_9
REMARK                            x       y       z     vdW  Elec       q    Type
REMARK                         _______ _______ _______ _____ _____    ______ ____
ROOT
ATOM      1  C   UNL     1       1.874   3.664  21.744  0.00  0.00    +0.000 C 
ATOM      2  N   UNL     1       1.912   4.261  20.409  0.00  0.00    +0.000 NA
ATOM      3  C   UNL     1       2.625   3.509  19.348  0.00  0.00    +0.000 C 
ATOM      4  C   UNL     1       2.157   3.995  17.938  0.00  0.00    +0.000 C 
ATOM      5  C   UNL     1       2.172   5.504  17.847  0.00  0.00    +0.000 C 
ATOM      6  C   UNL     1       2.138   6.304  18.935  0.00  0.00    +0.000 C 
ATOM      7  C   UNL     1       1.947   7.773  18.776  0.00  0.00    +0.000 A 
ATOM      8  C   UNL     1       2.109   8.553  17.625  0.00  0.00    +0.000 A 
ATOM      9  C   UNL     1       1.881   9.938  17.651  0.00  0.00    +0.000 A 
ATOM     10  C   UNL     1       1.478  10.601  18.819  0.00  0.00    +0.000 A 
ATOM     11  C   UNL     1       1.273   9.811  19.946  0.00  0.00    +0.000 A 
ATOM     12  N   UNL     1       0.840  10.119  21.219  0.00  0.00    +0.000 N 
ATOM     13  C   UNL     1       0.725   8.973  21.972  0.00  0.00    +0.000 A 
ATOM     14  C   UNL     1       1.138   7.928  21.181  0.00  0.00    +0.000 A 
ATOM     15  C   UNL     1       1.492   8.443  19.923  0.00  0.00    +0.000 A 
ATOM     16  C   UNL     1       1.184   6.469  21.403  0.00  0.00    +0.000 C 
ATOM     17  C   UNL     1       2.176   5.735  20.397  0.00  0.00    +0.000 C 
ATOM     18  H   UNL     1       0.605  11.048  21.539  0.00  0.00    +0.000 HD
ENDROOT
BRANCH   4  19
ATOM     19  C   UNL     1       2.843   3.248  16.769  0.00  0.00    +0.000 C 
BRANCH  19  20
ATOM     20  O   UNL     1       4.256   2.989  17.024  0.00  0.00    +0.000 OA
BRANCH  20  21
ATOM     21  C   UNL     1       5.164   3.892  16.584  0.00  0.00    +0.000 C 
ATOM     22  O   UNL     1       5.248   4.273  15.415  0.00  0.00    +0.000 OA
BRANCH  21  23
ATOM     23  C   UNL     1       6.135   4.308  17.702  0.00  0.00    +0.000 C 
ATOM     24  C   UNL     1       7.540   4.665  17.176  0.00  0.00    +0.000 C 
ATOM     25  C   UNL     1       7.608   6.034  16.496  0.00  0.00    +0.000 C 
ATOM     26  C   UNL     1       7.025   7.139  17.369  0.00  0.00    +0.000 C 
ATOM     27  C   UNL     1       5.618   6.792  17.848  0.00  0.00    +0.000 C 
ATOM     28  C   UNL     1       5.588   5.448  18.570  0.00  0.00    +0.000 C 
ENDBRANCH  21  23
ENDBRANCH  20  21
ENDBRANCH  19  20
ENDBRANCH   4  19
TORSDOF 4
ENDMDL
