MODEL 1
REMARK VINA RESULT:      -8.0      0.000      0.000
REMARK  Name = 
REMARK  14 active torsions:
REMARK  status: ('A' for Active; 'I' for Inactive)
REMARK    1  A    between atoms: C_1  and  C_2
REMARK    2  A    between atoms: C_5  and  O_6
REMARK    3  A    between atoms: O_6  and  C_7
REMARK    4  A    between atoms: C_10  and  N_11
REMARK    5  A    between atoms: N_11  and  C_12
REMARK    6  A    between atoms: N_11  and  S_21
REMARK    7  A    between atoms: C_12  and  CA_13
REMARK    8  A    between atoms: CA_13  and  N_14
REMARK    9  A    between atoms: CA_13  and  C_18
REMARK   10  A    between atoms: N_14  and  C_15
REMARK   11  A    between atoms: C_15  and  C_16
REMARK   12  A    between atoms: C_15  and  C_17
REMARK   13  A    between atoms: C_18  and  OXT_20
REMARK   14  A    between atoms: S_21  and  C_22
REMARK                            x       y       z     vdW  Elec       q    Type
REMARK                         _______ _______ _______ _____ _____    ______ ____
ROOT
ATOM      1  N   UNL     1       3.662   4.593  18.497  0.00  0.00    +0.000 N 
ENDROOT
BRANCH   1   5
ATOM      2  C   UNL     1       1.859   8.342  19.213  0.00  0.00    +0.000 A 
ATOM      3  C   UNL     1       2.418   8.077  17.955  0.00  0.00    +0.000 A 
ATOM      4  C   UNL     1       2.953   6.815  17.658  0.00  0.00    +0.000 A 
ATOM      5  C   UNL     1       2.936   5.816  18.634  0.00  0.00    +0.000 A 
ATOM      6  C   UNL     1       2.344   6.066  19.874  0.00  0.00    +0.000 A 
ATOM      7  C   UNL     1       1.837   7.330  20.173  0.00  0.00    +0.000 A 
BRANCH   2   8
ATOM      8  O   UNL     1       1.455   9.639  19.443  0.00  0.00    +0.000 OA
BRANCH   8  13
ATOM      9  C   UNL     1      -3.690  11.656  18.088  0.00  0.00    +0.000 C 
ATOM     10  C   UNL     1      -2.351  11.091  18.460  0.00  0.00    +0.000 A 
ATOM     11  C   UNL     1      -1.707  11.460  19.646  0.00  0.00    +0.000 A 
ATOM     12  C   UNL     1      -0.446  10.946  19.958  0.00  0.00    +0.000 A 
ATOM     13  C   UNL     1       0.187  10.051  19.089  0.00  0.00    +0.000 A 
ATOM     14  C   UNL     1      -0.438   9.703  17.891  0.00  0.00    +0.000 A 
ATOM     15  C   UNL     1      -1.709  10.199  17.592  0.00  0.00    +0.000 A 
ENDBRANCH   8  13
ENDBRANCH   2   8
ENDBRANCH   1   5
BRANCH   1  16
ATOM     16  S   UNL     1       2.812   3.156  18.266  0.00  0.00    +0.000 S 
ATOM     17  C   UNL     1       2.353   2.568  19.888  0.00  0.00    +0.000 C 
ATOM     18  O   UNL     1       1.590   3.497  17.565  0.00  0.00    +0.000 OA
ATOM     19  O   UNL     1       3.740   2.203  17.687  0.00  0.00    +0.000 OA
ENDBRANCH   1  16
BRANCH   1  20
ATOM     20  C   UNL     1       5.081   4.524  18.955  0.00  0.00    +0.000 C 
BRANCH  20  21
ATOM     21  CA  UNL     1       6.109   4.885  17.836  0.00  0.00    +0.000 C 
BRANCH  21  22
ATOM     22  N   UNL     1       6.068   4.020  16.619  0.00  0.00    +0.000 NA
ATOM     23  H   UNL     1       6.709   3.234  16.715  0.00  0.00    +0.000 HD
BRANCH  22  24
ATOM     24  C   UNL     1       6.325   4.703  15.346  0.00  0.00    +0.000 C 
ATOM     25  C   UNL     1       6.049   3.849  14.106  0.00  0.00    +0.000 C 
ATOM     26  C   UNL     1       5.446   5.959  15.296  0.00  0.00    +0.000 C 
ENDBRANCH  22  24
ENDBRANCH  21  22
BRANCH  21  27
ATOM     27  C   UNL     1       7.537   4.821  18.425  0.00  0.00    +0.000 C 
ATOM     28  O   UNL     1       7.935   5.413  19.416  0.00  0.00    +0.000 OA
BRANCH  27  29
ATOM     29  OXT UNL     1       8.366   4.003  17.719  0.00  0.00    +0.000 OA
ATOM     30  HXT UNL     1       8.546   4.333  16.820  0.00  0.00    +0.000 HD
ENDBRANCH  27  29
ENDBRANCH  21  27
ENDBRANCH  20  21
ENDBRANCH   1  20
TORSDOF 10
ENDMDL
MODEL 2
REMARK VINA RESULT:      -7.9      0.809      1.252
REMARK  Name = 
REMARK  14 active torsions:
REMARK  status: ('A' for Active; 'I' for Inactive)
REMARK    1  A    between atoms: C_1  and  C_2
REMARK    2  A    between atoms: C_5  and  O_6
REMARK    3  A    between atoms: O_6  and  C_7
REMARK    4  A    between atoms: C_10  and  N_11
REMARK    5  A    between atoms: N_11  and  C_12
REMARK    6  A    between atoms: N_11  and  S_21
REMARK    7  A    between atoms: C_12  and  CA_13
REMARK    8  A    between atoms: CA_13  and  N_14
REMARK    9  A    between atoms: CA_13  and  C_18
REMARK   10  A    between atoms: N_14  and  C_15
REMARK   11  A    between atoms: C_15  and  C_16
REMARK   12  A    between atoms: C_15  and  C_17
REMARK   13  A    between atoms: C_18  and  OXT_20
REMARK   14  A    between atoms: S_21  and  C_22
REMARK                            x       y       z     vdW  Elec       q    Type
REMARK                         _______ _______ _______ _____ _____    ______ ____
ROOT
ATOM      1  N   UNL     1       3.233   5.188  18.627  0.00  0.00    +0.000 N 
ENDROOT
BRANCH   1   5
ATOM      2  C   UNL     1       1.539   9.010  19.220  0.00  0.00    +0.000 A 
ATOM      3  C   UNL     1       1.489   8.067  20.256  0.00  0.00    +0.000 A 
ATOM      4  C   UNL     1       2.111   6.817  20.121  0.00  0.00    +0.000 A 
ATOM      5  C   UNL     1       2.780   6.508  18.934  0.00  0.00    +0.000 A 
ATOM      6  C   UNL     1       2.865   7.461  17.916  0.00  0.00    +0.000 A 
ATOM      7  C   UNL     1       2.222   8.692  18.045  0.00  0.00    +0.000 A 
BRANCH   2   8
ATOM      8  O   UNL     1       0.812  10.165  19.406  0.00  0.00    +0.000 OA
BRANCH   8  13
ATOM      9  C   UNL     1      -4.204  11.178  16.919  0.00  0.00    +0.000 C 
ATOM     10  C   UNL     1      -2.898  10.880  17.594  0.00  0.00    +0.000 A 
ATOM     11  C   UNL     1      -2.501  11.561  18.749  0.00  0.00    +0.000 A 
ATOM     12  C   UNL     1      -1.266  11.290  19.344  0.00  0.00    +0.000 A 
ATOM     13  C   UNL     1      -0.412  10.328  18.793  0.00  0.00    +0.000 A 
ATOM     14  C   UNL     1      -0.791   9.667  17.623  0.00  0.00    +0.000 A 
ATOM     15  C   UNL     1      -2.037   9.922  17.044  0.00  0.00    +0.000 A 
ENDBRANCH   8  13
ENDBRANCH   2   8
ENDBRANCH   1   5
BRANCH   1  16
ATOM     16  S   UNL     1       2.111   4.031  18.133  0.00  0.00    +0.000 S 
ATOM     17  C   UNL     1       1.305   3.438  19.611  0.00  0.00    +0.000 C 
ATOM     18  O   UNL     1       1.114   4.723  17.341  0.00  0.00    +0.000 OA
ATOM     19  O   UNL     1       2.862   2.932  17.557  0.00  0.00    +0.000 OA
ENDBRANCH   1  16
BRANCH   1  20
ATOM     20  C   UNL     1       4.566   4.734  19.121  0.00  0.00    +0.000 C 
BRANCH  20  21
ATOM     21  CA  UNL     1       5.732   5.053  18.131  0.00  0.00    +0.000 C 
BRANCH  21  22
ATOM     22  N   UNL     1       5.850   4.137  16.957  0.00  0.00    +0.000 NA
ATOM     23  H   UNL     1       6.531   3.403  17.141  0.00  0.00    +0.000 HD
BRANCH  22  24
ATOM     24  C   UNL     1       6.168   4.784  15.678  0.00  0.00    +0.000 C 
ATOM     25  C   UNL     1       5.934   3.900  14.450  0.00  0.00    +0.000 C 
ATOM     26  C   UNL     1       5.305   6.046  15.559  0.00  0.00    +0.000 C 
ENDBRANCH  22  24
ENDBRANCH  21  22
BRANCH  21  27
ATOM     27  C   UNL     1       7.070   5.020  18.904  0.00  0.00    +0.000 C 
ATOM     28  O   UNL     1       7.276   5.496  20.010  0.00  0.00    +0.000 OA
BRANCH  27  29
ATOM     29  OXT UNL     1       8.061   4.379  18.224  0.00  0.00    +0.000 OA
ATOM     30  HXT UNL     1       8.946   4.559  18.589  0.00  0.00    +0.000 HD
ENDBRANCH  27  29
ENDBRANCH  21  27
ENDBRANCH  20  21
ENDBRANCH   1  20
TORSDOF 10
ENDMDL
MODEL 3
REMARK VINA RESULT:      -7.8      1.054      1.799
REMARK  Name = 
REMARK  14 active torsions:
REMARK  status: ('A' for Active; 'I' for Inactive)
REMARK    1  A    between atoms: C_1  and  C_2
REMARK    2  A    between atoms: C_5  and  O_6
REMARK    3  A    between atoms: O_6  and  C_7
REMARK    4  A    between atoms: C_10  and  N_11
REMARK    5  A    between atoms: N_11  and  C_12
REMARK    6  A    between atoms: N_11  and  S_21
REMARK    7  A    between atoms: C_12  and  CA_13
REMARK    8  A    between atoms: CA_13  and  N_14
REMARK    9  A    between atoms: CA_13  and  C_18
REMARK   10  A    between atoms: N_14  and  C_15
REMARK   11  A    between atoms: C_15  and  C_16
REMARK   12  A    between atoms: C_15  and  C_17
REMARK   13  A    between atoms: C_18  and  OXT_20
REMARK   14  A    between atoms: S_21  and  C_22
REMARK                            x       y       z     vdW  Elec       q    Type
REMARK                         _______ _______ _______ _____ _____    ______ ____
ROOT
ATOM      1  N   UNL     1       3.140   5.322  18.866  0.00  0.00    +0.000 N 
ENDROOT
BRANCH   1   5
ATOM      2  C   UNL     1       1.408   9.146  19.314  0.00  0.00    +0.000 A 
ATOM      3  C   UNL     1       1.403   8.258  20.398  0.00  0.00    +0.000 A 
ATOM      4  C   UNL     1       2.040   7.011  20.309  0.00  0.00    +0.000 A 
ATOM      5  C   UNL     1       2.676   6.651  19.119  0.00  0.00    +0.000 A 
ATOM      6  C   UNL     1       2.716   7.550  18.051  0.00  0.00    +0.000 A 
ATOM      7  C   UNL     1       2.059   8.778  18.136  0.00  0.00    +0.000 A 
BRANCH   2   8
ATOM      8  O   UNL     1       0.668  10.300  19.462  0.00  0.00    +0.000 OA
BRANCH   8  13
ATOM      9  C   UNL     1      -3.749  11.153  15.980  0.00  0.00    +0.000 C 
ATOM     10  C   UNL     1      -2.560  10.945  16.871  0.00  0.00    +0.000 A 
ATOM     11  C   UNL     1      -1.894   9.716  16.923  0.00  0.00    +0.000 A 
ATOM     12  C   UNL     1      -0.808   9.534  17.783  0.00  0.00    +0.000 A 
ATOM     13  C   UNL     1      -0.370  10.582  18.600  0.00  0.00    +0.000 A 
ATOM     14  C   UNL     1      -1.051  11.800  18.574  0.00  0.00    +0.000 A 
ATOM     15  C   UNL     1      -2.121  11.988  17.695  0.00  0.00    +0.000 A 
ENDBRANCH   8  13
ENDBRANCH   2   8
ENDBRANCH   1   5
BRANCH   1  16
ATOM     16  S   UNL     1       2.018   4.118  18.504  0.00  0.00    +0.000 S 
ATOM     17  C   UNL     1       1.038   3.874  19.977  0.00  0.00    +0.000 C 
ATOM     18  O   UNL     1       1.141   4.653  17.482  0.00  0.00    +0.000 OA
ATOM     19  O   UNL     1       2.768   2.902  18.255  0.00  0.00    +0.000 OA
ENDBRANCH   1  16
BRANCH   1  20
ATOM     20  C   UNL     1       4.507   4.922  19.312  0.00  0.00    +0.000 C 
BRANCH  20  21
ATOM     21  CA  UNL     1       5.582   5.040  18.184  0.00  0.00    +0.000 C 
BRANCH  21  22
ATOM     22  N   UNL     1       5.500   4.010  17.106  0.00  0.00    +0.000 NA
ATOM     23  H   UNL     1       6.352   3.451  17.076  0.00  0.00    +0.000 HD
BRANCH  22  24
ATOM     24  C   UNL     1       5.209   4.522  15.761  0.00  0.00    +0.000 C 
ATOM     25  C   UNL     1       5.241   6.048  15.649  0.00  0.00    +0.000 C 
ATOM     26  C   UNL     1       6.240   3.926  14.795  0.00  0.00    +0.000 C 
ENDBRANCH  22  24
ENDBRANCH  21  22
BRANCH  21  27
ATOM     27  C   UNL     1       6.988   4.960  18.821  0.00  0.00    +0.000 C 
ATOM     28  O   UNL     1       7.321   5.434  19.897  0.00  0.00    +0.000 OA
BRANCH  27  29
ATOM     29  OXT UNL     1       7.882   4.277  18.052  0.00  0.00    +0.000 OA
ATOM     30  HXT UNL     1       7.649   3.337  17.948  0.00  0.00    +0.000 HD
ENDBRANCH  27  29
ENDBRANCH  21  27
ENDBRANCH  20  21
ENDBRANCH   1  20
TORSDOF 10
ENDMDL
MODEL 4
REMARK VINA RESULT:      -7.6      1.753      2.467
REMARK  Name = 
REMARK  14 active torsions:
REMARK  status: ('A' for Active; 'I' for Inactive)
REMARK    1  A    between atoms: C_1  and  C_2
REMARK    2  A    between atoms: C_5  and  O_6
REMARK    3  A    between atoms: O_6  and  C_7
REMARK    4  A    between atoms: C_10  and  N_11
REMARK    5  A    between atoms: N_11  and  C_12
REMARK    6  A    between atoms: N_11  and  S_21
REMARK    7  A    between atoms: C_12  and  CA_13
REMARK    8  A    between atoms: CA_13  and  N_14
REMARK    9  A    between atoms: CA_13  and  C_18
REMARK   10  A    between atoms: N_14  and  C_15
REMARK   11  A    between atoms: C_15  and  C_16
REMARK   12  A    between atoms: C_15  and  C_17
REMARK   13  A    between atoms: C_18  and  OXT_20
REMARK   14  A    between atoms: S_21  and  C_22
REMARK                            x       y       z     vdW  Elec       q    Type
REMARK                         _______ _______ _______ _____ _____    ______ ____
ROOT
ATOM      1  N   UNL     1       2.820   4.945  19.110  0.00  0.00    +0.000 N 
ENDROOT
BRANCH   1   5
ATOM      2  C   UNL     1       1.607   8.988  19.073  0.00  0.00    +0.000 A 
ATOM      3  C   UNL     1       1.548   8.264  20.271  0.00  0.00    +0.000 A 
ATOM      4  C   UNL     1       2.018   6.944  20.337  0.00  0.00    +0.000 A 
ATOM      5  C   UNL     1       2.541   6.344  19.189  0.00  0.00    +0.000 A 
ATOM      6  C   UNL     1       2.638   7.078  18.004  0.00  0.00    +0.000 A 
ATOM      7  C   UNL     1       2.145   8.381  17.938  0.00  0.00    +0.000 A 
BRANCH   2   8
ATOM      8  O   UNL     1       1.028  10.238  19.082  0.00  0.00    +0.000 OA
BRANCH   8  13
ATOM      9  C   UNL     1      -4.366  11.254  17.584  0.00  0.00    +0.000 C 
ATOM     10  C   UNL     1      -2.957  10.955  18.001  0.00  0.00    +0.000 A 
ATOM     11  C   UNL     1      -2.346  11.643  19.055  0.00  0.00    +0.000 A 
ATOM     12  C   UNL     1      -1.021  11.371  19.407  0.00  0.00    +0.000 A 
ATOM     13  C   UNL     1      -0.290  10.402  18.711  0.00  0.00    +0.000 A 
ATOM     14  C   UNL     1      -0.885   9.735  17.639  0.00  0.00    +0.000 A 
ATOM     15  C   UNL     1      -2.218   9.991  17.305  0.00  0.00    +0.000 A 
ENDBRANCH   8  13
ENDBRANCH   2   8
ENDBRANCH   1   5
BRANCH   1  16
ATOM     16  S   UNL     1       1.544   3.865  18.892  0.00  0.00    +0.000 S 
ATOM     17  C   UNL     1       2.226   2.226  19.079  0.00  0.00    +0.000 C 
ATOM     18  O   UNL     1       0.619   4.080  19.986  0.00  0.00    +0.000 OA
ATOM     19  O   UNL     1       1.096   4.013  17.520  0.00  0.00    +0.000 OA
ENDBRANCH   1  16
BRANCH   1  20
ATOM     20  C   UNL     1       4.125   4.425  19.618  0.00  0.00    +0.000 C 
BRANCH  20  21
ATOM     21  CA  UNL     1       5.295   4.596  18.598  0.00  0.00    +0.000 C 
BRANCH  21  22
ATOM     22  N   UNL     1       5.798   5.992  18.423  0.00  0.00    +0.000 NA
ATOM     23  H   UNL     1       5.243   6.490  17.728  0.00  0.00    +0.000 HD
BRANCH  22  24
ATOM     24  C   UNL     1       7.222   6.115  18.085  0.00  0.00    +0.000 C 
ATOM     25  C   UNL     1       7.634   7.506  17.597  0.00  0.00    +0.000 C 
ATOM     26  C   UNL     1       8.037   5.759  19.334  0.00  0.00    +0.000 C 
ENDBRANCH  22  24
ENDBRANCH  21  22
BRANCH  21  27
ATOM     27  C   UNL     1       4.840   4.071  17.217  0.00  0.00    +0.000 C 
ATOM     28  O   UNL     1       4.533   4.754  16.252  0.00  0.00    +0.000 OA
BRANCH  27  29
ATOM     29  OXT UNL     1       4.808   2.712  17.150  0.00  0.00    +0.000 OA
ATOM     30  HXT UNL     1       5.562   2.294  17.603  0.00  0.00    +0.000 HD
ENDBRANCH  27  29
ENDBRANCH  21  27
ENDBRANCH  20  21
ENDBRANCH   1  20
TORSDOF 10
ENDMDL
MODEL 5
REMARK VINA RESULT:      -7.5      1.076      1.267
REMARK  Name = 
REMARK  14 active torsions:
REMARK  status: ('A' for Active; 'I' for Inactive)
REMARK    1  A    between atoms: C_1  and  C_2
REMARK    2  A    between atoms: C_5  and  O_6
REMARK    3  A    between atoms: O_6  and  C_7
REMARK    4  A    between atoms: C_10  and  N_11
REMARK    5  A    between atoms: N_11  and  C_12
REMARK    6  A    between atoms: N_11  and  S_21
REMARK    7  A    between atoms: C_12  and  CA_13
REMARK    8  A    between atoms: CA_13  and  N_14
REMARK    9  A    between atoms: CA_13  and  C_18
REMARK   10  A    between atoms: N_14  and  C_15
REMARK   11  A    between atoms: C_15  and  C_16
REMARK   12  A    between atoms: C_15  and  C_17
REMARK   13  A    between atoms: C_18  and  OXT_20
REMARK   14  A    between atoms: S_21  and  C_22
REMARK                            x       y       z     vdW  Elec       q    Type
REMARK                         _______ _______ _______ _____ _____    ______ ____
ROOT
ATOM      1  N   UNL     1       3.716   4.656  19.047  0.00  0.00    +0.000 N 
ENDROOT
BRANCH   1   5
ATOM      2  C   UNL     1       2.003   8.510  18.877  0.00  0.00    +0.000 A 
ATOM      3  C   UNL     1       2.615   7.980  17.733  0.00  0.00    +0.000 A 
ATOM      4  C   UNL     1       3.124   6.672  17.732  0.00  0.00    +0.000 A 
ATOM      5  C   UNL     1       3.024   5.896  18.890  0.00  0.00    +0.000 A 
ATOM      6  C   UNL     1       2.378   6.410  20.017  0.00  0.00    +0.000 A 
ATOM      7  C   UNL     1       1.898   7.719  20.021  0.00  0.00    +0.000 A 
BRANCH   2   8
ATOM      8  O   UNL     1       1.629   9.835  18.813  0.00  0.00    +0.000 OA
BRANCH   8  13
ATOM      9  C   UNL     1      -3.767  11.602  18.449  0.00  0.00    +0.000 C 
ATOM     10  C   UNL     1      -2.357  11.103  18.565  0.00  0.00    +0.000 A 
ATOM     11  C   UNL     1      -1.497  11.571  19.565  0.00  0.00    +0.000 A 
ATOM     12  C   UNL     1      -0.178  11.118  19.636  0.00  0.00    +0.000 A 
ATOM     13  C   UNL     1       0.300  10.184  18.709  0.00  0.00    +0.000 A 
ATOM     14  C   UNL     1      -0.545   9.738  17.692  0.00  0.00    +0.000 A 
ATOM     15  C   UNL     1      -1.871  10.174  17.638  0.00  0.00    +0.000 A 
ENDBRANCH   8  13
ENDBRANCH   2   8
ENDBRANCH   1   5
BRANCH   1  16
ATOM     16  S   UNL     1       2.825   3.232  19.189  0.00  0.00    +0.000 S 
ATOM     17  C   UNL     1       3.818   1.935  18.469  0.00  0.00    +0.000 C 
ATOM     18  O   UNL     1       2.703   2.952  20.606  0.00  0.00    +0.000 OA
ATOM     19  O   UNL     1       1.636   3.394  18.375  0.00  0.00    +0.000 OA
ENDBRANCH   1  16
BRANCH   1  20
ATOM     20  C   UNL     1       5.143   4.660  19.488  0.00  0.00    +0.000 C 
BRANCH  20  21
ATOM     21  CA  UNL     1       6.122   5.209  18.402  0.00  0.00    +0.000 C 
BRANCH  21  22
ATOM     22  N   UNL     1       6.623   4.204  17.418  0.00  0.00    +0.000 NA
ATOM     23  H   UNL     1       7.639   4.135  17.459  0.00  0.00    +0.000 HD
BRANCH  22  24
ATOM     24  C   UNL     1       6.207   4.418  16.026  0.00  0.00    +0.000 C 
ATOM     25  C   UNL     1       4.834   3.836  15.683  0.00  0.00    +0.000 C 
ATOM     26  C   UNL     1       6.192   5.928  15.763  0.00  0.00    +0.000 C 
ENDBRANCH  22  24
ENDBRANCH  21  22
BRANCH  21  27
ATOM     27  C   UNL     1       7.343   5.847  19.103  0.00  0.00    +0.000 C 
ATOM     28  O   UNL     1       8.070   6.712  18.639  0.00  0.00    +0.000 OA
BRANCH  27  29
ATOM     29  OXT UNL     1       7.558   5.349  20.352  0.00  0.00    +0.000 OA
ATOM     30  HXT UNL     1       6.733   5.219  20.854  0.00  0.00    +0.000 HD
ENDBRANCH  27  29
ENDBRANCH  21  27
ENDBRANCH  20  21
ENDBRANCH   1  20
TORSDOF 10
ENDMDL
MODEL 6
REMARK VINA RESULT:      -7.4      1.099      1.491
REMARK  Name = 
REMARK  14 active torsions:
REMARK  status: ('A' for Active; 'I' for Inactive)
REMARK    1  A    between atoms: C_1  and  C_2
REMARK    2  A    between atoms: C_5  and  O_6
REMARK    3  A    between atoms: O_6  and  C_7
REMARK    4  A    between atoms: C_10  and  N_11
REMARK    5  A    between atoms: N_11  and  C_12
REMARK    6  A    between atoms: N_11  and  S_21
REMARK    7  A    between atoms: C_12  and  CA_13
REMARK    8  A    between atoms: CA_13  and  N_14
REMARK    9  A    between atoms: CA_13  and  C_18
REMARK   10  A    between atoms: N_14  and  C_15
REMARK   11  A    between atoms: C_15  and  C_16
REMARK   12  A    between atoms: C_15  and  C_17
REMARK   13  A    between atoms: C_18  and  OXT_20
REMARK   14  A    between atoms: S_21  and  C_22
REMARK                            x       y       z     vdW  Elec       q    Type
REMARK                         _______ _______ _______ _____ _____    ______ ____
ROOT
ATOM      1  N   UNL     1       3.448   4.327  18.561  0.00  0.00    +0.000 N 
ENDROOT
BRANCH   1   5
ATOM      2  C   UNL     1       1.628   7.617  20.481  0.00  0.00    +0.000 A 
ATOM      3  C   UNL     1       2.191   7.789  19.209  0.00  0.00    +0.000 A 
ATOM      4  C   UNL     1       2.732   6.700  18.509  0.00  0.00    +0.000 A 
ATOM      5  C   UNL     1       2.716   5.432  19.096  0.00  0.00    +0.000 A 
ATOM      6  C   UNL     1       2.121   5.252  20.347  0.00  0.00    +0.000 A 
ATOM      7  C   UNL     1       1.608   6.342  21.049  0.00  0.00    +0.000 A 
BRANCH   2   8
ATOM      8  O   UNL     1       1.218   8.761  21.130  0.00  0.00    +0.000 OA
BRANCH   8  13
ATOM      9  C   UNL     1      -0.804  13.152  18.130  0.00  0.00    +0.000 C 
ATOM     10  C   UNL     1      -0.298  12.002  18.950  0.00  0.00    +0.000 A 
ATOM     11  C   UNL     1       0.823  12.132  19.776  0.00  0.00    +0.000 A 
ATOM     12  C   UNL     1       1.297  11.040  20.507  0.00  0.00    +0.000 A 
ATOM     13  C   UNL     1       0.651   9.801  20.425  0.00  0.00    +0.000 A 
ATOM     14  C   UNL     1      -0.450   9.659  19.579  0.00  0.00    +0.000 A 
ATOM     15  C   UNL     1      -0.937  10.759  18.869  0.00  0.00    +0.000 A 
ENDBRANCH   8  13
ENDBRANCH   2   8
ENDBRANCH   1   5
BRANCH   1  16
ATOM     16  S   UNL     1       2.603   3.020  17.915  0.00  0.00    +0.000 S 
ATOM     17  C   UNL     1       1.242   2.694  19.025  0.00  0.00    +0.000 C 
ATOM     18  O   UNL     1       2.040   3.463  16.655  0.00  0.00    +0.000 OA
ATOM     19  O   UNL     1       3.497   1.879  17.950  0.00  0.00    +0.000 OA
ENDBRANCH   1  16
BRANCH   1  20
ATOM     20  C   UNL     1       4.882   4.144  18.933  0.00  0.00    +0.000 C 
BRANCH  20  21
ATOM     21  CA  UNL     1       5.873   4.627  17.826  0.00  0.00    +0.000 C 
BRANCH  21  22
ATOM     22  N   UNL     1       5.912   3.792  16.588  0.00  0.00    +0.000 NA
ATOM     23  H   UNL     1       6.845   3.410  16.441  0.00  0.00    +0.000 HD
BRANCH  22  24
ATOM     24  C   UNL     1       5.462   4.458  15.360  0.00  0.00    +0.000 C 
ATOM     25  C   UNL     1       5.160   5.949  15.527  0.00  0.00    +0.000 C 
ATOM     26  C   UNL     1       6.555   4.284  14.299  0.00  0.00    +0.000 C 
ENDBRANCH  22  24
ENDBRANCH  21  22
BRANCH  21  27
ATOM     27  C   UNL     1       7.300   4.679  18.417  0.00  0.00    +0.000 C 
ATOM     28  O   UNL     1       7.629   5.222  19.461  0.00  0.00    +0.000 OA
BRANCH  27  29
ATOM     29  OXT UNL     1       8.219   4.032  17.647  0.00  0.00    +0.000 OA
ATOM     30  HXT UNL     1       9.086   3.950  18.083  0.00  0.00    +0.000 HD
ENDBRANCH  27  29
ENDBRANCH  21  27
ENDBRANCH  20  21
ENDBRANCH   1  20
TORSDOF 10
ENDMDL
MODEL 7
REMARK VINA RESULT:      -7.4      1.778      3.922
REMARK  Name = 
REMARK  14 active torsions:
REMARK  status: ('A' for Active; 'I' for Inactive)
REMARK    1  A    between atoms: C_1  and  C_2
REMARK    2  A    between atoms: C_5  and  O_6
REMARK    3  A    between atoms: O_6  and  C_7
REMARK    4  A    between atoms: C_10  and  N_11
REMARK    5  A    between atoms: N_11  and  C_12
REMARK    6  A    between atoms: N_11  and  S_21
REMARK    7  A    between atoms: C_12  and  CA_13
REMARK    8  A    between atoms: CA_13  and  N_14
REMARK    9  A    between atoms: CA_13  and  C_18
REMARK   10  A    between atoms: N_14  and  C_15
REMARK   11  A    between atoms: C_15  and  C_16
REMARK   12  A    between atoms: C_15  and  C_17
REMARK   13  A    between atoms: C_18  and  OXT_20
REMARK   14  A    between atoms: S_21  and  C_22
REMARK                            x       y       z     vdW  Elec       q    Type
REMARK                         _______ _______ _______ _____ _____    ______ ____
ROOT
ATOM      1  N   UNL     1       3.833   5.415  18.372  0.00  0.00    +0.000 N 
ENDROOT
BRANCH   1   5
ATOM      2  C   UNL     1       1.778   9.069  18.867  0.00  0.00    +0.000 A 
ATOM      3  C   UNL     1       2.360   8.770  17.627  0.00  0.00    +0.000 A 
ATOM      4  C   UNL     1       2.981   7.532  17.404  0.00  0.00    +0.000 A 
ATOM      5  C   UNL     1       3.025   6.592  18.437  0.00  0.00    +0.000 A 
ATOM      6  C   UNL     1       2.411   6.873  19.660  0.00  0.00    +0.000 A 
ATOM      7  C   UNL     1       1.819   8.115  19.884  0.00  0.00    +0.000 A 
BRANCH   2   8
ATOM      8  O   UNL     1       1.286  10.347  19.021  0.00  0.00    +0.000 OA
BRANCH   8  13
ATOM      9  C   UNL     1      -4.229  11.154  17.883  0.00  0.00    +0.000 C 
ATOM     10  C   UNL     1      -2.766  10.973  18.159  0.00  0.00    +0.000 A 
ATOM     11  C   UNL     1      -2.003  10.031  17.461  0.00  0.00    +0.000 A 
ATOM     12  C   UNL     1      -0.649   9.856  17.756  0.00  0.00    +0.000 A 
ATOM     13  C   UNL     1      -0.037  10.625  18.752  0.00  0.00    +0.000 A 
ATOM     14  C   UNL     1      -0.802  11.544  19.472  0.00  0.00    +0.000 A 
ATOM     15  C   UNL     1      -2.150  11.735  19.158  0.00  0.00    +0.000 A 
ENDBRANCH   8  13
ENDBRANCH   2   8
ENDBRANCH   1   5
BRANCH   1  16
ATOM     16  S   UNL     1       5.511   5.570  18.372  0.00  0.00    +0.000 S 
ATOM     17  C   UNL     1       6.125   4.476  17.102  0.00  0.00    +0.000 C 
ATOM     18  O   UNL     1       5.808   6.927  17.958  0.00  0.00    +0.000 OA
ATOM     19  O   UNL     1       5.981   5.082  19.654  0.00  0.00    +0.000 OA
ENDBRANCH   1  16
BRANCH   1  20
ATOM     20  C   UNL     1       3.229   4.133  17.901  0.00  0.00    +0.000 C 
BRANCH  20  21
ATOM     21  CA  UNL     1       2.990   3.104  19.053  0.00  0.00    +0.000 C 
BRANCH  21  22
ATOM     22  N   UNL     1       3.110   3.649  20.438  0.00  0.00    +0.000 NA
ATOM     23  H   UNL     1       3.796   3.121  20.975  0.00  0.00    +0.000 HD
BRANCH  22  24
ATOM     24  C   UNL     1       1.857   3.728  21.199  0.00  0.00    +0.000 C 
ATOM     25  C   UNL     1       0.611   3.950  20.337  0.00  0.00    +0.000 C 
ATOM     26  C   UNL     1       1.697   2.422  21.985  0.00  0.00    +0.000 C 
ENDBRANCH  22  24
ENDBRANCH  21  22
BRANCH  21  27
ATOM     27  C   UNL     1       3.997   1.941  18.904  0.00  0.00    +0.000 C 
ATOM     28  O   UNL     1       3.857   0.951  18.201  0.00  0.00    +0.000 OA
BRANCH  27  29
ATOM     29  OXT UNL     1       5.122   2.113  19.653  0.00  0.00    +0.000 OA
ATOM     30  HXT UNL     1       4.927   2.345  20.578  0.00  0.00    +0.000 HD
ENDBRANCH  27  29
ENDBRANCH  21  27
ENDBRANCH  20  21
ENDBRANCH   1  20
TORSDOF 10
ENDMDL
MODEL 8
REMARK VINA RESULT:      -7.3      1.679      2.076
REMARK  Name = 
REMARK  14 active torsions:
REMARK  status: ('A' for Active; 'I' for Inactive)
REMARK    1  A    between atoms: C_1  and  C_2
REMARK    2  A    between atoms: C_5  and  O_6
REMARK    3  A    between atoms: O_6  and  C_7
REMARK    4  A    between atoms: C_10  and  N_11
REMARK    5  A    between atoms: N_11  and  C_12
REMARK    6  A    between atoms: N_11  and  S_21
REMARK    7  A    between atoms: C_12  and  CA_13
REMARK    8  A    between atoms: CA_13  and  N_14
REMARK    9  A    between atoms: CA_13  and  C_18
REMARK   10  A    between atoms: N_14  and  C_15
REMARK   11  A    between atoms: C_15  and  C_16
REMARK   12  A    between atoms: C_15  and  C_17
REMARK   13  A    between atoms: C_18  and  OXT_20
REMARK   14  A    between atoms: S_21  and  C_22
REMARK                            x       y       z     vdW  Elec       q    Type
REMARK                         _______ _______ _______ _____ _____    ______ ____
ROOT
ATOM      1  N   UNL     1       3.766   3.942  18.880  0.00  0.00    +0.000 N 
ENDROOT
BRANCH   1   5
ATOM      2  C   UNL     1       2.059   7.793  19.152  0.00  0.00    +0.000 A 
ATOM      3  C   UNL     1       2.338   7.253  17.889  0.00  0.00    +0.000 A 
ATOM      4  C   UNL     1       2.830   5.945  17.760  0.00  0.00    +0.000 A 
ATOM      5  C   UNL     1       3.053   5.180  18.907  0.00  0.00    +0.000 A 
ATOM      6  C   UNL     1       2.739   5.703  20.164  0.00  0.00    +0.000 A 
ATOM      7  C   UNL     1       2.275   7.013  20.288  0.00  0.00    +0.000 A 
BRANCH   2   8
ATOM      8  O   UNL     1       1.679   9.118  19.182  0.00  0.00    +0.000 OA
BRANCH   8  13
ATOM      9  C   UNL     1      -1.647  11.301  23.249  0.00  0.00    +0.000 C 
ATOM     10  C   UNL     1      -0.738  10.731  22.201  0.00  0.00    +0.000 A 
ATOM     11  C   UNL     1      -0.271  11.511  21.138  0.00  0.00    +0.000 A 
ATOM     12  C   UNL     1       0.549  10.952  20.154  0.00  0.00    +0.000 A 
ATOM     13  C   UNL     1       0.918   9.604  20.224  0.00  0.00    +0.000 A 
ATOM     14  C   UNL     1       0.430   8.815  21.266  0.00  0.00    +0.000 A 
ATOM     15  C   UNL     1      -0.370   9.382  22.262  0.00  0.00    +0.000 A 
ENDBRANCH   8  13
ENDBRANCH   2   8
ENDBRANCH   1   5
BRANCH   1  16
ATOM     16  S   UNL     1       2.937   2.512  19.212  0.00  0.00    +0.000 S 
ATOM     17  C   UNL     1       1.292   2.710  18.548  0.00  0.00    +0.000 C 
ATOM     18  O   UNL     1       3.589   1.462  18.455  0.00  0.00    +0.000 OA
ATOM     19  O   UNL     1       2.832   2.410  20.655  0.00  0.00    +0.000 OA
ENDBRANCH   1  16
BRANCH   1  20
ATOM     20  C   UNL     1       5.256   3.948  18.968  0.00  0.00    +0.000 C 
BRANCH  20  21
ATOM     21  CA  UNL     1       5.943   4.646  17.751  0.00  0.00    +0.000 C 
BRANCH  21  22
ATOM     22  N   UNL     1       5.979   3.850  16.488  0.00  0.00    +0.000 NA
ATOM     23  H   UNL     1       6.623   3.065  16.575  0.00  0.00    +0.000 HD
BRANCH  22  24
ATOM     24  C   UNL     1       6.299   4.607  15.271  0.00  0.00    +0.000 C 
ATOM     25  C   UNL     1       6.096   3.823  13.972  0.00  0.00    +0.000 C 
ATOM     26  C   UNL     1       5.414   5.859  15.246  0.00  0.00    +0.000 C 
ENDBRANCH  22  24
ENDBRANCH  21  22
BRANCH  21  27
ATOM     27  C   UNL     1       7.396   5.008  18.134  0.00  0.00    +0.000 C 
ATOM     28  O   UNL     1       7.760   6.029  18.698  0.00  0.00    +0.000 OA
BRANCH  27  29
ATOM     29  OXT UNL     1       8.294   4.046  17.783  0.00  0.00    +0.000 OA
ATOM     30  HXT UNL     1       8.577   4.116  16.853  0.00  0.00    +0.000 HD
ENDBRANCH  27  29
ENDBRANCH  21  27
ENDBRANCH  20  21
ENDBRANCH   1  20
TORSDOF 10
ENDMDL
MODEL 9
REMARK VINA RESULT:      -7.2      1.428      2.084
REMARK  Name = 
REMARK  14 active torsions:
REMARK  status: ('A' for Active; 'I' for Inactive)
REMARK    1  A    between atoms: C_1  and  C_2
REMARK    2  A    between atoms: C_5  and  O_6
REMARK    3  A    between atoms: O_6  and  C_7
REMARK    4  A    between atoms: C_10  and  N_11
REMARK    5  A    between atoms: N_11  and  C_12
REMARK    6  A    between atoms: N_11  and  S_21
REMARK    7  A    between atoms: C_12  and  CA_13
REMARK    8  A    between atoms: CA_13  and  N_14
REMARK    9  A    between atoms: CA_13  and  C_18
REMARK   10  A    between atoms: N_14  and  C_15
REMARK   11  A    between atoms: C_15  and  C_16
REMARK   12  A    between atoms: C_15  and  C_17
REMARK   13  A    between atoms: C_18  and  OXT_20
REMARK   14  A    between atoms: S_21  and  C_22
REMARK                            x       y       z     vdW  Elec       q    Type
REMARK                         _______ _______ _______ _____ _____    ______ ____
ROOT
ATOM      1  N   UNL     1       3.240   5.389  19.185  0.00  0.00    +0.000 N 
ENDROOT
BRANCH   1   5
ATOM      2  C   UNL     1       1.593   9.270  18.962  0.00  0.00    +0.000 A 
ATOM      3  C   UNL     1       2.095   8.668  17.800  0.00  0.00    +0.000 A 
ATOM      4  C   UNL     1       2.575   7.350  17.823  0.00  0.00    +0.000 A 
ATOM      5  C   UNL     1       2.561   6.636  19.023  0.00  0.00    +0.000 A 
ATOM      6  C   UNL     1       2.025   7.220  20.174  0.00  0.00    +0.000 A 
ATOM      7  C   UNL     1       1.573   8.539  20.151  0.00  0.00    +0.000 A 
BRANCH   2   8
ATOM      8  O   UNL     1       1.242  10.599  18.862  0.00  0.00    +0.000 OA
BRANCH   8  13
ATOM      9  C   UNL     1      -2.831  12.941  22.070  0.00  0.00    +0.000 C 
ATOM     10  C   UNL     1      -1.770  12.287  21.236  0.00  0.00    +0.000 A 
ATOM     11  C   UNL     1      -0.460  12.140  21.705  0.00  0.00    +0.000 A 
ATOM     12  C   UNL     1       0.521  11.556  20.899  0.00  0.00    +0.000 A 
ATOM     13  C   UNL     1       0.203  11.106  19.613  0.00  0.00    +0.000 A 
ATOM     14  C   UNL     1      -1.095  11.279  19.129  0.00  0.00    +0.000 A 
ATOM     15  C   UNL     1      -2.080  11.840  19.946  0.00  0.00    +0.000 A 
ENDBRANCH   8  13
ENDBRANCH   2   8
ENDBRANCH   1   5
BRANCH   1  16
ATOM     16  S   UNL     1       2.334   3.989  19.435  0.00  0.00    +0.000 S 
ATOM     17  C   UNL     1       1.335   3.761  17.973  0.00  0.00    +0.000 C 
ATOM     18  O   UNL     1       3.272   2.886  19.497  0.00  0.00    +0.000 OA
ATOM     19  O   UNL     1       1.447   4.253  20.551  0.00  0.00    +0.000 OA
ENDBRANCH   1  16
BRANCH   1  20
ATOM     20  C   UNL     1       4.690   5.380  19.539  0.00  0.00    +0.000 C 
BRANCH  20  21
ATOM     21  CA  UNL     1       5.626   5.227  18.297  0.00  0.00    +0.000 C 
BRANCH  21  22
ATOM     22  N   UNL     1       5.266   4.130  17.350  0.00  0.00    +0.000 NA
ATOM     23  H   UNL     1       5.949   3.375  17.397  0.00  0.00    +0.000 HD
BRANCH  22  24
ATOM     24  C   UNL     1       5.087   4.534  15.950  0.00  0.00    +0.000 C 
ATOM     25  C   UNL     1       5.250   6.036  15.703  0.00  0.00    +0.000 C 
ATOM     26  C   UNL     1       6.112   3.772  15.102  0.00  0.00    +0.000 C 
ENDBRANCH  22  24
ENDBRANCH  21  22
BRANCH  21  27
ATOM     27  C   UNL     1       7.073   4.987  18.785  0.00  0.00    +0.000 C 
ATOM     28  O   UNL     1       7.966   4.443  18.154  0.00  0.00    +0.000 OA
BRANCH  27  29
ATOM     29  OXT UNL     1       7.295   5.460  20.043  0.00  0.00    +0.000 OA
ATOM     30  HXT UNL     1       6.804   4.965  20.724  0.00  0.00    +0.000 HD
ENDBRANCH  27  29
ENDBRANCH  21  27
ENDBRANCH  20  21
ENDBRANCH   1  20
TORSDOF 10
ENDMDL
