MODEL 1
REMARK VINA RESULT:      -6.6      0.000      0.000
REMARK  Name = 
REMARK  6 active torsions:
REMARK  status: ('A' for Active; 'I' for Inactive)
REMARK    1  A    between atoms: C_1  and  N_2
REMARK    2  A    between atoms: N_2  and  C_3
REMARK    3  A    between atoms: N_2  and  C_4
REMARK    4  A    between atoms: C_4  and  C_5
REMARK    5  A    between atoms: N_14  and  C_15
REMARK    6  A    between atoms: C_22  and  C_23
REMARK                            x       y       z     vdW  Elec       q    Type
REMARK                         _______ _______ _______ _____ _____    ______ ____
ROOT
ATOM      1  C   UNL     1      -1.637  11.368  18.986  0.00  0.00    +0.000 C 
ATOM      2  O   UNL     1      -2.374  10.548  18.420  0.00  0.00    +0.000 OA
ATOM      3  N   UNL     1      -2.113  12.331  19.903  0.00  0.00    +0.000 N 
ATOM      4  C   UNL     1      -1.282  13.378  20.394  0.00  0.00    +0.000 A 
ATOM      5  C   UNL     1      -0.696  14.288  19.498  0.00  0.00    +0.000 A 
ATOM      6  C   UNL     1       0.209  15.255  19.950  0.00  0.00    +0.000 A 
ATOM      7  C   UNL     1       0.528  15.329  21.304  0.00  0.00    +0.000 A 
ATOM      8  C   UNL     1      -0.070  14.454  22.207  0.00  0.00    +0.000 A 
ATOM      9  C   UNL     1      -0.982  13.497  21.755  0.00  0.00    +0.000 A 
ATOM     10  N   UNL     1      -1.577  12.651  22.723  0.00  0.00    +0.000 N 
ATOM     11  C   UNL     1      -0.989  11.341  23.000  0.00  0.00    +0.000 C 
ATOM     12  S   UNL     1      -3.209  12.905  22.986  0.00  0.00    +0.000 S 
ATOM     13  O   UNL     1      -3.676  11.876  23.896  0.00  0.00    +0.000 OA
ATOM     14  O   UNL     1      -3.393  14.311  23.304  0.00  0.00    +0.000 OA
ATOM     15  C   UNL     1      -4.083  12.666  21.462  0.00  0.00    +0.000 A 
ATOM     16  C   UNL     1      -5.488  12.702  21.633  0.00  0.00    +0.000 A 
ATOM     17  C   UNL     1      -6.358  12.533  20.563  0.00  0.00    +0.000 A 
ATOM     18  C   UNL     1      -5.844  12.336  19.285  0.00  0.00    +0.000 A 
ATOM     19  C   UNL     1      -4.441  12.296  19.120  0.00  0.00    +0.000 A 
ATOM     20  C   UNL     1      -3.522  12.437  20.197  0.00  0.00    +0.000 A 
ENDROOT
BRANCH  18  21
ATOM     21  C   UNL     1      -6.773  12.178  18.100  0.00  0.00    +0.000 C 
ATOM     22  F   UNL     1      -7.914  12.917  18.201  0.00  0.00    +0.000 F 
ATOM     23  F   UNL     1      -6.187  12.557  16.931  0.00  0.00    +0.000 F 
ATOM     24  F   UNL     1      -7.179  10.892  17.915  0.00  0.00    +0.000 F 
ENDBRANCH  18  21
BRANCH   1  25
ATOM     25  C   UNL     1      -0.114  11.240  18.755  0.00  0.00    +0.000 C 
BRANCH  25  27
ATOM     26  C   UNL     1       1.520   9.616  17.974  0.00  0.00    +0.000 C 
ATOM     27  N   UNL     1       0.350   9.832  18.833  0.00  0.00    +0.000 NA
ATOM     28  C   UNL     1       0.713   9.523  20.223  0.00  0.00    +0.000 C 
ENDBRANCH  25  27
ENDBRANCH   1  25
TORSDOF 3
ENDMDL
MODEL 2
REMARK VINA RESULT:      -6.5      2.256      2.905
REMARK  Name = 
REMARK  6 active torsions:
REMARK  status: ('A' for Active; 'I' for Inactive)
REMARK    1  A    between atoms: C_1  and  N_2
REMARK    2  A    between atoms: N_2  and  C_3
REMARK    3  A    between atoms: N_2  and  C_4
REMARK    4  A    between atoms: C_4  and  C_5
REMARK    5  A    between atoms: N_14  and  C_15
REMARK    6  A    between atoms: C_22  and  C_23
REMARK                            x       y       z     vdW  Elec       q    Type
REMARK                         _______ _______ _______ _____ _____    ______ ____
ROOT
ATOM      1  C   UNL     1      -0.529  11.149  20.366  0.00  0.00    +0.000 C 
ATOM      2  O   UNL     1      -0.630  10.073  19.760  0.00  0.00    +0.000 OA
ATOM      3  N   UNL     1      -1.505  12.167  20.299  0.00  0.00    +0.000 N 
ATOM      4  C   UNL     1      -1.280  13.463  20.848  0.00  0.00    +0.000 A 
ATOM      5  C   UNL     1      -0.205  14.243  20.389  0.00  0.00    +0.000 A 
ATOM      6  C   UNL     1       0.097  15.469  20.991  0.00  0.00    +0.000 A 
ATOM      7  C   UNL     1      -0.680  15.933  22.050  0.00  0.00    +0.000 A 
ATOM      8  C   UNL     1      -1.767  15.185  22.493  0.00  0.00    +0.000 A 
ATOM      9  C   UNL     1      -2.074  13.966  21.883  0.00  0.00    +0.000 A 
ATOM     10  N   UNL     1      -3.207  13.262  22.360  0.00  0.00    +0.000 N 
ATOM     11  C   UNL     1      -3.039  12.225  23.377  0.00  0.00    +0.000 C 
ATOM     12  S   UNL     1      -4.501  13.192  21.304  0.00  0.00    +0.000 S 
ATOM     13  O   UNL     1      -5.508  12.331  21.893  0.00  0.00    +0.000 OA
ATOM     14  O   UNL     1      -4.829  14.553  20.916  0.00  0.00    +0.000 OA
ATOM     15  C   UNL     1      -3.979  12.406  19.803  0.00  0.00    +0.000 A 
ATOM     16  C   UNL     1      -5.056  12.160  18.919  0.00  0.00    +0.000 A 
ATOM     17  C   UNL     1      -4.864  11.548  17.685  0.00  0.00    +0.000 A 
ATOM     18  C   UNL     1      -3.581  11.175  17.297  0.00  0.00    +0.000 A 
ATOM     19  C   UNL     1      -2.509  11.418  18.186  0.00  0.00    +0.000 A 
ATOM     20  C   UNL     1      -2.675  12.017  19.466  0.00  0.00    +0.000 A 
ENDROOT
BRANCH  18  21
ATOM     21  C   UNL     1      -3.343  10.533  15.947  0.00  0.00    +0.000 C 
ATOM     22  F   UNL     1      -2.475  11.228  15.159  0.00  0.00    +0.000 F 
ATOM     23  F   UNL     1      -2.823   9.279  16.057  0.00  0.00    +0.000 F 
ATOM     24  F   UNL     1      -4.485  10.402  15.217  0.00  0.00    +0.000 F 
ENDBRANCH  18  21
BRANCH   1  25
ATOM     25  C   UNL     1       0.671  11.320  21.324  0.00  0.00    +0.000 C 
BRANCH  25  27
ATOM     26  C   UNL     1      -0.651   9.960  22.847  0.00  0.00    +0.000 C 
ATOM     27  N   UNL     1       0.703  10.274  22.376  0.00  0.00    +0.000 NA
ATOM     28  C   UNL     1       1.312   9.056  21.824  0.00  0.00    +0.000 C 
ENDBRANCH  25  27
ENDBRANCH   1  25
TORSDOF 3
ENDMDL
MODEL 3
REMARK VINA RESULT:      -6.3      3.943      5.803
REMARK  Name = 
REMARK  6 active torsions:
REMARK  status: ('A' for Active; 'I' for Inactive)
REMARK    1  A    between atoms: C_1  and  N_2
REMARK    2  A    between atoms: N_2  and  C_3
REMARK    3  A    between atoms: N_2  and  C_4
REMARK    4  A    between atoms: C_4  and  C_5
REMARK    5  A    between atoms: N_14  and  C_15
REMARK    6  A    between atoms: C_22  and  C_23
REMARK                            x       y       z     vdW  Elec       q    Type
REMARK                         _______ _______ _______ _____ _____    ______ ____
ROOT
ATOM      1  C   UNL     1      -0.798  12.401  18.758  0.00  0.00    +0.000 C 
ATOM      2  O   UNL     1      -0.720  13.196  17.811  0.00  0.00    +0.000 OA
ATOM      3  N   UNL     1      -0.489  12.752  20.090  0.00  0.00    +0.000 N 
ATOM      4  C   UNL     1      -0.403  11.779  21.126  0.00  0.00    +0.000 A 
ATOM      5  C   UNL     1       0.519  10.723  21.023  0.00  0.00    +0.000 A 
ATOM      6  C   UNL     1       0.542   9.698  21.975  0.00  0.00    +0.000 A 
ATOM      7  C   UNL     1      -0.349   9.723  23.045  0.00  0.00    +0.000 A 
ATOM      8  C   UNL     1      -1.246  10.780  23.176  0.00  0.00    +0.000 A 
ATOM      9  C   UNL     1      -1.260  11.808  22.231  0.00  0.00    +0.000 A 
ATOM     10  N   UNL     1      -2.178  12.869  22.431  0.00  0.00    +0.000 N 
ATOM     11  C   UNL     1      -3.485  12.827  21.779  0.00  0.00    +0.000 C 
ATOM     12  S   UNL     1      -1.492  14.340  22.830  0.00  0.00    +0.000 S 
ATOM     13  O   UNL     1      -2.553  15.329  22.865  0.00  0.00    +0.000 OA
ATOM     14  O   UNL     1      -0.640  14.132  23.989  0.00  0.00    +0.000 OA
ATOM     15  C   UNL     1      -0.385  14.832  21.536  0.00  0.00    +0.000 A 
ATOM     16  C   UNL     1       0.113  16.144  21.719  0.00  0.00    +0.000 A 
ATOM     17  C   UNL     1       0.995  16.724  20.815  0.00  0.00    +0.000 A 
ATOM     18  C   UNL     1       1.414  15.998  19.704  0.00  0.00    +0.000 A 
ATOM     19  C   UNL     1       0.910  14.690  19.523  0.00  0.00    +0.000 A 
ATOM     20  C   UNL     1      -0.015  14.077  20.413  0.00  0.00    +0.000 A 
ENDROOT
BRANCH  18  21
ATOM     21  C   UNL     1       2.395  16.598  18.721  0.00  0.00    +0.000 C 
ATOM     22  F   UNL     1       3.003  15.673  17.924  0.00  0.00    +0.000 F 
ATOM     23  F   UNL     1       1.801  17.485  17.874  0.00  0.00    +0.000 F 
ATOM     24  F   UNL     1       3.403  17.281  19.331  0.00  0.00    +0.000 F 
ENDBRANCH  18  21
BRANCH   1  25
ATOM     25  C   UNL     1      -1.371  10.996  18.466  0.00  0.00    +0.000 C 
BRANCH  25  27
ATOM     26  C   UNL     1      -2.373   9.787  16.608  0.00  0.00    +0.000 C 
ATOM     27  N   UNL     1      -2.407  11.021  17.403  0.00  0.00    +0.000 NA
ATOM     28  C   UNL     1      -3.731  11.152  18.026  0.00  0.00    +0.000 C 
ENDBRANCH  25  27
ENDBRANCH   1  25
TORSDOF 3
ENDMDL
MODEL 4
REMARK VINA RESULT:      -6.2      3.670      6.890
REMARK  Name = 
REMARK  6 active torsions:
REMARK  status: ('A' for Active; 'I' for Inactive)
REMARK    1  A    between atoms: C_1  and  N_2
REMARK    2  A    between atoms: N_2  and  C_3
REMARK    3  A    between atoms: N_2  and  C_4
REMARK    4  A    between atoms: C_4  and  C_5
REMARK    5  A    between atoms: N_14  and  C_15
REMARK    6  A    between atoms: C_22  and  C_23
REMARK                            x       y       z     vdW  Elec       q    Type
REMARK                         _______ _______ _______ _____ _____    ______ ____
ROOT
ATOM      1  C   UNL     1      -5.000  12.720  21.779  0.00  0.00    +0.000 C 
ATOM      2  O   UNL     1      -4.136  12.437  22.621  0.00  0.00    +0.000 OA
ATOM      3  N   UNL     1      -4.749  12.731  20.390  0.00  0.00    +0.000 N 
ATOM      4  C   UNL     1      -5.698  13.240  19.457  0.00  0.00    +0.000 A 
ATOM      5  C   UNL     1      -6.130  14.574  19.551  0.00  0.00    +0.000 A 
ATOM      6  C   UNL     1      -7.141  15.059  18.715  0.00  0.00    +0.000 A 
ATOM      7  C   UNL     1      -7.722  14.219  17.768  0.00  0.00    +0.000 A 
ATOM      8  C   UNL     1      -7.281  12.905  17.643  0.00  0.00    +0.000 A 
ATOM      9  C   UNL     1      -6.264  12.425  18.471  0.00  0.00    +0.000 A 
ATOM     10  N   UNL     1      -5.840  11.087  18.280  0.00  0.00    +0.000 N 
ATOM     11  C   UNL     1      -6.422  10.020  19.092  0.00  0.00    +0.000 C 
ATOM     12  S   UNL     1      -4.302  10.909  17.648  0.00  0.00    +0.000 S 
ATOM     13  O   UNL     1      -3.986   9.493  17.646  0.00  0.00    +0.000 OA
ATOM     14  O   UNL     1      -4.236  11.682  16.420  0.00  0.00    +0.000 OA
ATOM     15  C   UNL     1      -3.138  11.686  18.736  0.00  0.00    +0.000 A 
ATOM     16  C   UNL     1      -1.796  11.438  18.358  0.00  0.00    +0.000 A 
ATOM     17  C   UNL     1      -0.727  11.955  19.079  0.00  0.00    +0.000 A 
ATOM     18  C   UNL     1      -0.972  12.746  20.197  0.00  0.00    +0.000 A 
ATOM     19  C   UNL     1      -2.312  12.986  20.574  0.00  0.00    +0.000 A 
ATOM     20  C   UNL     1      -3.430  12.450  19.875  0.00  0.00    +0.000 A 
ENDROOT
BRANCH  18  21
ATOM     21  C   UNL     1       0.177  13.342  20.982  0.00  0.00    +0.000 C 
ATOM     22  F   UNL     1      -0.050  13.391  22.326  0.00  0.00    +0.000 F 
ATOM     23  F   UNL     1       1.331  12.637  20.825  0.00  0.00    +0.000 F 
ATOM     24  F   UNL     1       0.465  14.619  20.608  0.00  0.00    +0.000 F 
ENDBRANCH  18  21
BRANCH   1  25
ATOM     25  C   UNL     1      -6.441  12.955  22.284  0.00  0.00    +0.000 C 
BRANCH  25  27
ATOM     26  C   UNL     1      -6.365  15.199  23.220  0.00  0.00    +0.000 C 
ATOM     27  N   UNL     1      -6.477  13.767  23.525  0.00  0.00    +0.000 NA
ATOM     28  C   UNL     1      -7.748  13.525  24.221  0.00  0.00    +0.000 C 
ENDBRANCH  25  27
ENDBRANCH   1  25
TORSDOF 3
ENDMDL
MODEL 5
REMARK VINA RESULT:      -6.2      3.800      6.401
REMARK  Name = 
REMARK  6 active torsions:
REMARK  status: ('A' for Active; 'I' for Inactive)
REMARK    1  A    between atoms: C_1  and  N_2
REMARK    2  A    between atoms: N_2  and  C_3
REMARK    3  A    between atoms: N_2  and  C_4
REMARK    4  A    between atoms: C_4  and  C_5
REMARK    5  A    between atoms: N_14  and  C_15
REMARK    6  A    between atoms: C_22  and  C_23
REMARK                            x       y       z     vdW  Elec       q    Type
REMARK                         _______ _______ _______ _____ _____    ______ ____
ROOT
ATOM      1  C   UNL     1      -4.184  13.212  21.960  0.00  0.00    +0.000 C 
ATOM      2  O   UNL     1      -3.265  12.471  22.337  0.00  0.00    +0.000 OA
ATOM      3  N   UNL     1      -4.695  13.200  20.644  0.00  0.00    +0.000 N 
ATOM      4  C   UNL     1      -5.616  14.185  20.184  0.00  0.00    +0.000 A 
ATOM      5  C   UNL     1      -5.258  15.544  20.204  0.00  0.00    +0.000 A 
ATOM      6  C   UNL     1      -6.187  16.532  19.861  0.00  0.00    +0.000 A 
ATOM      7  C   UNL     1      -7.478  16.172  19.484  0.00  0.00    +0.000 A 
ATOM      8  C   UNL     1      -7.836  14.828  19.430  0.00  0.00    +0.000 A 
ATOM      9  C   UNL     1      -6.904  13.842  19.761  0.00  0.00    +0.000 A 
ATOM     10  N   UNL     1      -7.318  12.490  19.663  0.00  0.00    +0.000 N 
ATOM     11  C   UNL     1      -7.832  11.803  20.847  0.00  0.00    +0.000 C 
ATOM     12  S   UNL     1      -6.601  11.612  18.435  0.00  0.00    +0.000 S 
ATOM     13  O   UNL     1      -7.034  10.234  18.565  0.00  0.00    +0.000 OA
ATOM     14  O   UNL     1      -6.810  12.337  17.193  0.00  0.00    +0.000 OA
ATOM     15  C   UNL     1      -4.844  11.614  18.672  0.00  0.00    +0.000 A 
ATOM     16  C   UNL     1      -4.175  10.756  17.767  0.00  0.00    +0.000 A 
ATOM     17  C   UNL     1      -2.793  10.609  17.785  0.00  0.00    +0.000 A 
ATOM     18  C   UNL     1      -2.039  11.330  18.706  0.00  0.00    +0.000 A 
ATOM     19  C   UNL     1      -2.712  12.181  19.611  0.00  0.00    +0.000 A 
ATOM     20  C   UNL     1      -4.126  12.334  19.638  0.00  0.00    +0.000 A 
ENDROOT
BRANCH  18  21
ATOM     21  C   UNL     1      -0.531  11.207  18.726  0.00  0.00    +0.000 C 
ATOM     22  F   UNL     1       0.112  12.331  18.300  0.00  0.00    +0.000 F 
ATOM     23  F   UNL     1      -0.050  10.955  19.975  0.00  0.00    +0.000 F 
ATOM     24  F   UNL     1      -0.073  10.196  17.938  0.00  0.00    +0.000 F 
ENDBRANCH  18  21
BRANCH   1  25
ATOM     25  C   UNL     1      -4.868  14.100  23.023  0.00  0.00    +0.000 C 
BRANCH  25  27
ATOM     26  C   UNL     1      -6.285  12.579  24.285  0.00  0.00    +0.000 C 
ATOM     27  N   UNL     1      -6.260  13.671  23.304  0.00  0.00    +0.000 NA
ATOM     28  C   UNL     1      -7.016  14.811  23.838  0.00  0.00    +0.000 C 
ENDBRANCH  25  27
ENDBRANCH   1  25
TORSDOF 3
ENDMDL
MODEL 6
REMARK VINA RESULT:      -6.2      2.029      4.808
REMARK  Name = 
REMARK  6 active torsions:
REMARK  status: ('A' for Active; 'I' for Inactive)
REMARK    1  A    between atoms: C_1  and  N_2
REMARK    2  A    between atoms: N_2  and  C_3
REMARK    3  A    between atoms: N_2  and  C_4
REMARK    4  A    between atoms: C_4  and  C_5
REMARK    5  A    between atoms: N_14  and  C_15
REMARK    6  A    between atoms: C_22  and  C_23
REMARK                            x       y       z     vdW  Elec       q    Type
REMARK                         _______ _______ _______ _____ _____    ______ ____
ROOT
ATOM      1  C   UNL     1      -2.413  13.732  22.512  0.00  0.00    +0.000 C 
ATOM      2  O   UNL     1      -3.336  14.555  22.431  0.00  0.00    +0.000 OA
ATOM      3  N   UNL     1      -2.278  12.633  21.635  0.00  0.00    +0.000 N 
ATOM      4  C   UNL     1      -1.324  11.600  21.863  0.00  0.00    +0.000 A 
ATOM      5  C   UNL     1      -1.371  10.850  23.050  0.00  0.00    +0.000 A 
ATOM      6  C   UNL     1      -0.379   9.908  23.341  0.00  0.00    +0.000 A 
ATOM      7  C   UNL     1       0.664   9.697  22.442  0.00  0.00    +0.000 A 
ATOM      8  C   UNL     1       0.704  10.411  21.247  0.00  0.00    +0.000 A 
ATOM      9  C   UNL     1      -0.294  11.343  20.954  0.00  0.00    +0.000 A 
ATOM     10  N   UNL     1      -0.212  12.020  19.712  0.00  0.00    +0.000 N 
ATOM     11  C   UNL     1       0.437  13.328  19.641  0.00  0.00    +0.000 C 
ATOM     12  S   UNL     1      -1.393  11.615  18.600  0.00  0.00    +0.000 S 
ATOM     13  O   UNL     1      -1.240  12.489  17.453  0.00  0.00    +0.000 OA
ATOM     14  O   UNL     1      -1.370  10.171  18.436  0.00  0.00    +0.000 OA
ATOM     15  C   UNL     1      -2.986  11.967  19.294  0.00  0.00    +0.000 A 
ATOM     16  C   UNL     1      -4.033  11.805  18.355  0.00  0.00    +0.000 A 
ATOM     17  C   UNL     1      -5.361  12.034  18.696  0.00  0.00    +0.000 A 
ATOM     18  C   UNL     1      -5.679  12.420  19.994  0.00  0.00    +0.000 A 
ATOM     19  C   UNL     1      -4.630  12.585  20.926  0.00  0.00    +0.000 A 
ATOM     20  C   UNL     1      -3.259  12.387  20.604  0.00  0.00    +0.000 A 
ENDROOT
BRANCH  18  21
ATOM     21  C   UNL     1      -7.121  12.648  20.395  0.00  0.00    +0.000 C 
ATOM     22  F   UNL     1      -7.784  11.501  20.716  0.00  0.00    +0.000 F 
ATOM     23  F   UNL     1      -7.232  13.459  21.484  0.00  0.00    +0.000 F 
ATOM     24  F   UNL     1      -7.855  13.238  19.413  0.00  0.00    +0.000 F 
ENDBRANCH  18  21
BRANCH   1  25
ATOM     25  C   UNL     1      -1.304  14.001  23.554  0.00  0.00    +0.000 C 
BRANCH  25  27
ATOM     26  C   UNL     1      -1.267  15.471  25.492  0.00  0.00    +0.000 C 
ATOM     27  N   UNL     1      -1.306  15.408  24.026  0.00  0.00    +0.000 NA
ATOM     28  C   UNL     1      -0.126  16.097  23.486  0.00  0.00    +0.000 C 
ENDBRANCH  25  27
ENDBRANCH   1  25
TORSDOF 3
ENDMDL
MODEL 7
REMARK VINA RESULT:      -6.2      3.762      6.286
REMARK  Name = 
REMARK  6 active torsions:
REMARK  status: ('A' for Active; 'I' for Inactive)
REMARK    1  A    between atoms: C_1  and  N_2
REMARK    2  A    between atoms: N_2  and  C_3
REMARK    3  A    between atoms: N_2  and  C_4
REMARK    4  A    between atoms: C_4  and  C_5
REMARK    5  A    between atoms: N_14  and  C_15
REMARK    6  A    between atoms: C_22  and  C_23
REMARK                            x       y       z     vdW  Elec       q    Type
REMARK                         _______ _______ _______ _____ _____    ______ ____
ROOT
ATOM      1  C   UNL     1      -4.129  13.023  22.134  0.00  0.00    +0.000 C 
ATOM      2  O   UNL     1      -3.166  12.307  22.441  0.00  0.00    +0.000 OA
ATOM      3  N   UNL     1      -4.671  13.072  20.831  0.00  0.00    +0.000 N 
ATOM      4  C   UNL     1      -5.650  14.037  20.457  0.00  0.00    +0.000 A 
ATOM      5  C   UNL     1      -5.359  15.408  20.560  0.00  0.00    +0.000 A 
ATOM      6  C   UNL     1      -6.343  16.369  20.303  0.00  0.00    +0.000 A 
ATOM      7  C   UNL     1      -7.624  15.969  19.930  0.00  0.00    +0.000 A 
ATOM      8  C   UNL     1      -7.916  14.615  19.794  0.00  0.00    +0.000 A 
ATOM      9  C   UNL     1      -6.929  13.657  20.039  0.00  0.00    +0.000 A 
ATOM     10  N   UNL     1      -7.278  12.296  19.860  0.00  0.00    +0.000 N 
ATOM     11  C   UNL     1      -7.729  11.507  21.005  0.00  0.00    +0.000 C 
ATOM     12  S   UNL     1      -6.549  11.538  18.560  0.00  0.00    +0.000 S 
ATOM     13  O   UNL     1      -6.910  10.134  18.607  0.00  0.00    +0.000 OA
ATOM     14  O   UNL     1      -6.823  12.331  17.374  0.00  0.00    +0.000 OA
ATOM     15  C   UNL     1      -4.789  11.614  18.761  0.00  0.00    +0.000 A 
ATOM     16  C   UNL     1      -4.100  10.852  17.787  0.00  0.00    +0.000 A 
ATOM     17  C   UNL     1      -2.713  10.775  17.766  0.00  0.00    +0.000 A 
ATOM     18  C   UNL     1      -1.973  11.471  18.718  0.00  0.00    +0.000 A 
ATOM     19  C   UNL     1      -2.665  12.225  19.691  0.00  0.00    +0.000 A 
ATOM     20  C   UNL     1      -4.085  12.304  19.758  0.00  0.00    +0.000 A 
ENDROOT
BRANCH  18  21
ATOM     21  C   UNL     1      -0.461  11.424  18.698  0.00  0.00    +0.000 C 
ATOM     22  F   UNL     1       0.112  12.537  18.158  0.00  0.00    +0.000 F 
ATOM     23  F   UNL     1       0.068  11.304  19.948  0.00  0.00    +0.000 F 
ATOM     24  F   UNL     1       0.026  10.372  17.983  0.00  0.00    +0.000 F 
ENDBRANCH  18  21
BRANCH   1  25
ATOM     25  C   UNL     1      -4.830  13.804  23.268  0.00  0.00    +0.000 C 
BRANCH  25  27
ATOM     26  C   UNL     1      -4.843  16.078  24.132  0.00  0.00    +0.000 C 
ATOM     27  N   UNL     1      -4.003  14.929  23.771  0.00  0.00    +0.000 NA
ATOM     28  C   UNL     1      -3.262  14.486  24.959  0.00  0.00    +0.000 C 
ENDBRANCH  25  27
ENDBRANCH   1  25
TORSDOF 3
ENDMDL
MODEL 8
REMARK VINA RESULT:      -6.2      2.518      3.068
REMARK  Name = 
REMARK  6 active torsions:
REMARK  status: ('A' for Active; 'I' for Inactive)
REMARK    1  A    between atoms: C_1  and  N_2
REMARK    2  A    between atoms: N_2  and  C_3
REMARK    3  A    between atoms: N_2  and  C_4
REMARK    4  A    between atoms: C_4  and  C_5
REMARK    5  A    between atoms: N_14  and  C_15
REMARK    6  A    between atoms: C_22  and  C_23
REMARK                            x       y       z     vdW  Elec       q    Type
REMARK                         _______ _______ _______ _____ _____    ______ ____
ROOT
ATOM      1  C   UNL     1      -0.639  11.773  20.146  0.00  0.00    +0.000 C 
ATOM      2  O   UNL     1      -0.527  10.671  19.591  0.00  0.00    +0.000 OA
ATOM      3  N   UNL     1      -1.799  12.572  20.050  0.00  0.00    +0.000 N 
ATOM      4  C   UNL     1      -1.835  13.911  20.536  0.00  0.00    +0.000 A 
ATOM      5  C   UNL     1      -0.941  14.867  20.025  0.00  0.00    +0.000 A 
ATOM      6  C   UNL     1      -0.887  16.156  20.567  0.00  0.00    +0.000 A 
ATOM      7  C   UNL     1      -1.733  16.505  21.616  0.00  0.00    +0.000 A 
ATOM      8  C   UNL     1      -2.645  15.576  22.110  0.00  0.00    +0.000 A 
ATOM      9  C   UNL     1      -2.706  14.294  21.560  0.00  0.00    +0.000 A 
ATOM     10  N   UNL     1      -3.672  13.401  22.088  0.00  0.00    +0.000 N 
ATOM     11  C   UNL     1      -3.292  12.468  23.147  0.00  0.00    +0.000 C 
ATOM     12  S   UNL     1      -4.933  13.024  21.057  0.00  0.00    +0.000 S 
ATOM     13  O   UNL     1      -5.742  12.008  21.702  0.00  0.00    +0.000 OA
ATOM     14  O   UNL     1      -5.530  14.272  20.614  0.00  0.00    +0.000 OA
ATOM     15  C   UNL     1      -4.275  12.288  19.585  0.00  0.00    +0.000 A 
ATOM     16  C   UNL     1      -5.288  11.790  18.730  0.00  0.00    +0.000 A 
ATOM     17  C   UNL     1      -4.985  11.172  17.522  0.00  0.00    +0.000 A 
ATOM     18  C   UNL     1      -3.656  11.044  17.130  0.00  0.00    +0.000 A 
ATOM     19  C   UNL     1      -2.649  11.538  17.989  0.00  0.00    +0.000 A 
ATOM     20  C   UNL     1      -2.922  12.151  19.244  0.00  0.00    +0.000 A 
ENDROOT
BRANCH  18  21
ATOM     21  C   UNL     1      -3.305  10.400  15.807  0.00  0.00    +0.000 C 
ATOM     22  F   UNL     1      -2.529  11.185  15.008  0.00  0.00    +0.000 F 
ATOM     23  F   UNL     1      -2.615   9.236  15.967  0.00  0.00    +0.000 F 
ATOM     24  F   UNL     1      -4.403  10.085  15.065  0.00  0.00    +0.000 F 
ENDBRANCH  18  21
BRANCH   1  25
ATOM     25  C   UNL     1       0.509  12.225  21.076  0.00  0.00    +0.000 C 
BRANCH  25  27
ATOM     26  C   UNL     1       1.560  12.622  18.918  0.00  0.00    +0.000 C 
ATOM     27  N   UNL     1       1.793  12.384  20.348  0.00  0.00    +0.000 NA
ATOM     28  C   UNL     1       2.524  13.528  20.910  0.00  0.00    +0.000 C 
ENDBRANCH  25  27
ENDBRANCH   1  25
TORSDOF 3
ENDMDL
MODEL 9
REMARK VINA RESULT:      -6.1      3.742      6.012
REMARK  Name = 
REMARK  6 active torsions:
REMARK  status: ('A' for Active; 'I' for Inactive)
REMARK    1  A    between atoms: C_1  and  N_2
REMARK    2  A    between atoms: N_2  and  C_3
REMARK    3  A    between atoms: N_2  and  C_4
REMARK    4  A    between atoms: C_4  and  C_5
REMARK    5  A    between atoms: N_14  and  C_15
REMARK    6  A    between atoms: C_22  and  C_23
REMARK                            x       y       z     vdW  Elec       q    Type
REMARK                         _______ _______ _______ _____ _____    ______ ____
ROOT
ATOM      1  C   UNL     1      -3.006  12.655  22.081  0.00  0.00    +0.000 C 
ATOM      2  O   UNL     1      -2.208  11.750  22.362  0.00  0.00    +0.000 OA
ATOM      3  N   UNL     1      -3.490  12.880  20.774  0.00  0.00    +0.000 N 
ATOM      4  C   UNL     1      -4.254  14.035  20.441  0.00  0.00    +0.000 A 
ATOM      5  C   UNL     1      -3.709  15.316  20.631  0.00  0.00    +0.000 A 
ATOM      6  C   UNL     1      -4.482  16.462  20.414  0.00  0.00    +0.000 A 
ATOM      7  C   UNL     1      -5.805  16.339  19.995  0.00  0.00    +0.000 A 
ATOM      8  C   UNL     1      -6.347  15.076  19.773  0.00  0.00    +0.000 A 
ATOM      9  C   UNL     1      -5.570  13.934  19.979  0.00  0.00    +0.000 A 
ATOM     10  N   UNL     1      -6.169  12.677  19.712  0.00  0.00    +0.000 N 
ATOM     11  C   UNL     1      -6.796  11.929  20.801  0.00  0.00    +0.000 C 
ATOM     12  S   UNL     1      -5.562  11.865  18.383  0.00  0.00    +0.000 S 
ATOM     13  O   UNL     1      -6.188  10.557  18.340  0.00  0.00    +0.000 OA
ATOM     14  O   UNL     1      -5.644  12.761  17.242  0.00  0.00    +0.000 OA
ATOM     15  C   UNL     1      -3.827  11.588  18.619  0.00  0.00    +0.000 A 
ATOM     16  C   UNL     1      -3.270  10.762  17.614  0.00  0.00    +0.000 A 
ATOM     17  C   UNL     1      -1.923  10.419  17.613  0.00  0.00    +0.000 A 
ATOM     18  C   UNL     1      -1.091  10.905  18.617  0.00  0.00    +0.000 A 
ATOM     19  C   UNL     1      -1.653  11.725  19.622  0.00  0.00    +0.000 A 
ATOM     20  C   UNL     1      -3.032  12.072  19.667  0.00  0.00    +0.000 A 
ENDROOT
BRANCH  18  21
ATOM     21  C   UNL     1       0.384  10.567  18.622  0.00  0.00    +0.000 C 
ATOM     22  F   UNL     1       0.816  10.028  19.797  0.00  0.00    +0.000 F 
ATOM     23  F   UNL     1       0.710   9.663  17.657  0.00  0.00    +0.000 F 
ATOM     24  F   UNL     1       1.175  11.653  18.400  0.00  0.00    +0.000 F 
ENDBRANCH  18  21
BRANCH   1  25
ATOM     25  C   UNL     1      -3.577  13.494  23.247  0.00  0.00    +0.000 C 
BRANCH  25  27
ATOM     26  C   UNL     1      -4.828  12.340  24.985  0.00  0.00    +0.000 C 
ATOM     27  N   UNL     1      -4.911  13.014  23.684  0.00  0.00    +0.000 NA
ATOM     28  C   UNL     1      -5.820  14.163  23.798  0.00  0.00    +0.000 C 
ENDBRANCH  25  27
ENDBRANCH   1  25
TORSDOF 3
ENDMDL
