MODEL 1
REMARK VINA RESULT:      -5.8      0.000      0.000
REMARK  Name = 
REMARK  11 active torsions:
REMARK  status: ('A' for Active; 'I' for Inactive)
REMARK    1  A    between atoms: C_1  and  C_2
REMARK    2  A    between atoms: C_2  and  N_3
REMARK    3  A    between atoms: N_6  and  C_7
REMARK    4  A    between atoms: C_7  and  C_8
REMARK    5  A    between atoms: C_7  and  C_15
REMARK    6  A    between atoms: C_16  and  O_17
REMARK    7  A    between atoms: C_19  and  C_20
REMARK    8  A    between atoms: N_21  and  C_22
REMARK    9  A    between atoms: C_22  and  C_23
REMARK   10  A    between atoms: C_23  and  O_24
REMARK   11  A    between atoms: O_24  and  C_25
REMARK                            x       y       z     vdW  Elec       q    Type
REMARK                         _______ _______ _______ _____ _____    ______ ____
ROOT
ATOM      1  C   UNL     1      -0.862  12.303  20.108  0.00  0.00    +0.000 C 
ENDROOT
BRANCH   1   2
ATOM      2  C   UNL     1      -2.358  12.179  19.727  0.00  0.00    +0.000 A 
ATOM      3  C   UNL     1      -3.458  12.719  20.293  0.00  0.00    +0.000 A 
ATOM      4  C   UNL     1      -4.759  12.617  19.689  0.00  0.00    +0.000 A 
ATOM      5  C   UNL     1      -4.961  11.962  18.539  0.00  0.00    +0.000 A 
ATOM      6  C   UNL     1      -6.328  11.947  17.912  0.00  0.00    +0.000 C 
ATOM      7  N   UNL     1      -3.894  11.278  17.960  0.00  0.00    +0.000 N 
ATOM      8  C   UNL     1      -2.628  11.237  18.567  0.00  0.00    +0.000 A 
ATOM      9  O   UNL     1      -1.746  10.463  18.198  0.00  0.00    +0.000 OA
BRANCH   3  10
ATOM     10  O   UNL     1      -3.512  13.480  21.432  0.00  0.00    +0.000 OA
ATOM     11  H   UNL     1      -3.716  14.395  21.187  0.00  0.00    +0.000 HD
ENDBRANCH   3  10
BRANCH   7  12
ATOM     12  C   UNL     1      -4.064  10.511  16.714  0.00  0.00    +0.000 C 
BRANCH  12  13
ATOM     13  C   UNL     1      -3.534  11.234  15.466  0.00  0.00    +0.000 C 
BRANCH  13  14
ATOM     14  O   UNL     1      -2.626  10.409  14.733  0.00  0.00    +0.000 OA
ATOM     15  C   UNL     1      -3.236   9.876  13.565  0.00  0.00    +0.000 C 
ENDBRANCH  13  14
ENDBRANCH  12  13
ENDBRANCH   7  12
ENDBRANCH   1   2
BRANCH   1  16
ATOM     16  C   UNL     1      -0.426  11.179  21.083  0.00  0.00    +0.000 A 
ATOM     17  C   UNL     1      -1.012  11.096  22.373  0.00  0.00    +0.000 A 
ATOM     18  C   UNL     1      -0.593  10.155  23.309  0.00  0.00    +0.000 A 
ATOM     19  C   UNL     1       0.407   9.253  22.972  0.00  0.00    +0.000 A 
ATOM     20  C   UNL     1       0.969   9.281  21.695  0.00  0.00    +0.000 A 
ATOM     21  C   UNL     1       0.554  10.233  20.751  0.00  0.00    +0.000 A 
ATOM     22 CL   UNL     1       1.288  10.171  19.191  0.00  0.00    +0.000 Cl
ENDBRANCH   1  16
BRANCH   1  26
ATOM     23  N   UNL     1       1.771  15.052  19.113  0.00  0.00    +0.000 NA
ATOM     24  C   UNL     1       2.005  13.879  19.972  0.00  0.00    +0.000 C 
ATOM     25  C   UNL     1       0.961  13.693  21.097  0.00  0.00    +0.000 C 
ATOM     26  N   UNL     1      -0.467  13.649  20.669  0.00  0.00    +0.000 NA
ATOM     27  C   UNL     1      -0.690  14.796  19.759  0.00  0.00    +0.000 C 
ATOM     28  C   UNL     1       0.367  14.996  18.642  0.00  0.00    +0.000 C 
BRANCH  23  30
ATOM     29  C   UNL     1       1.710  17.549  18.903  0.00  0.00    +0.000 C 
ATOM     30  C   UNL     1       2.062  16.337  19.763  0.00  0.00    +0.000 C 
ENDBRANCH  23  30
ENDBRANCH   1  26
TORSDOF 8
ENDMDL
MODEL 2
REMARK VINA RESULT:      -5.7      2.555      6.205
REMARK  Name = 
REMARK  11 active torsions:
REMARK  status: ('A' for Active; 'I' for Inactive)
REMARK    1  A    between atoms: C_1  and  C_2
REMARK    2  A    between atoms: C_2  and  N_3
REMARK    3  A    between atoms: N_6  and  C_7
REMARK    4  A    between atoms: C_7  and  C_8
REMARK    5  A    between atoms: C_7  and  C_15
REMARK    6  A    between atoms: C_16  and  O_17
REMARK    7  A    between atoms: C_19  and  C_20
REMARK    8  A    between atoms: N_21  and  C_22
REMARK    9  A    between atoms: C_22  and  C_23
REMARK   10  A    between atoms: C_23  and  O_24
REMARK   11  A    between atoms: O_24  and  C_25
REMARK                            x       y       z     vdW  Elec       q    Type
REMARK                         _______ _______ _______ _____ _____    ______ ____
ROOT
ATOM      1  C   UNL     1      -0.333  10.741  19.449  0.00  0.00    +0.000 C 
ENDROOT
BRANCH   1   2
ATOM      2  C   UNL     1       0.232  11.941  20.248  0.00  0.00    +0.000 A 
ATOM      3  C   UNL     1       1.316  12.714  20.026  0.00  0.00    +0.000 A 
ATOM      4  C   UNL     1       1.587  13.896  20.801  0.00  0.00    +0.000 A 
ATOM      5  C   UNL     1       0.790  14.288  21.802  0.00  0.00    +0.000 A 
ATOM      6  C   UNL     1       1.077  15.571  22.533  0.00  0.00    +0.000 C 
ATOM      7  N   UNL     1      -0.280  13.475  22.166  0.00  0.00    +0.000 N 
ATOM      8  C   UNL     1      -0.524  12.247  21.529  0.00  0.00    +0.000 A 
ATOM      9  O   UNL     1      -1.315  11.418  21.978  0.00  0.00    +0.000 OA
BRANCH   3  10
ATOM     10  O   UNL     1       2.250  12.562  19.034  0.00  0.00    +0.000 OA
ATOM     11  H   UNL     1       2.031  11.772  18.518  0.00  0.00    +0.000 HD
ENDBRANCH   3  10
BRANCH   7  12
ATOM     12  C   UNL     1      -1.171  13.837  23.283  0.00  0.00    +0.000 C 
BRANCH  12  13
ATOM     13  C   UNL     1      -2.438  14.588  22.845  0.00  0.00    +0.000 C 
BRANCH  13  14
ATOM     14  O   UNL     1      -3.578  13.727  22.842  0.00  0.00    +0.000 OA
ATOM     15  C   UNL     1      -3.717  13.045  24.082  0.00  0.00    +0.000 C 
ENDBRANCH  13  14
ENDBRANCH  12  13
ENDBRANCH   7  12
ENDBRANCH   1   2
BRANCH   1  16
ATOM     16  C   UNL     1       0.745   9.653  19.213  0.00  0.00    +0.000 A 
ATOM     17  C   UNL     1       1.414   9.580  17.963  0.00  0.00    +0.000 A 
ATOM     18  C   UNL     1       2.329   8.570  17.680  0.00  0.00    +0.000 A 
ATOM     19  C   UNL     1       2.622   7.620  18.649  0.00  0.00    +0.000 A 
ATOM     20  C   UNL     1       2.014   7.694  19.903  0.00  0.00    +0.000 A 
ATOM     21  C   UNL     1       1.085   8.706  20.190  0.00  0.00    +0.000 A 
ATOM     22 CL   UNL     1       0.409   8.731  21.776  0.00  0.00    +0.000 Cl
ENDBRANCH   1  16
BRANCH   1  26
ATOM     23  N   UNL     1      -4.029  10.775  18.100  0.00  0.00    +0.000 NA
ATOM     24  C   UNL     1      -3.096   9.636  18.082  0.00  0.00    +0.000 C 
ATOM     25  C   UNL     1      -1.698   9.964  17.508  0.00  0.00    +0.000 C 
ATOM     26  N   UNL     1      -0.982  11.112  18.137  0.00  0.00    +0.000 NA
ATOM     27  C   UNL     1      -1.936  12.242  18.207  0.00  0.00    +0.000 C 
ATOM     28  C   UNL     1      -3.346  11.911  18.764  0.00  0.00    +0.000 C 
BRANCH  23  30
ATOM     29  C   UNL     1      -5.568  12.278  16.813  0.00  0.00    +0.000 C 
ATOM     30  C   UNL     1      -4.528  11.160  16.773  0.00  0.00    +0.000 C 
ENDBRANCH  23  30
ENDBRANCH   1  26
TORSDOF 8
ENDMDL
MODEL 3
REMARK VINA RESULT:      -5.6      1.697      2.273
REMARK  Name = 
REMARK  11 active torsions:
REMARK  status: ('A' for Active; 'I' for Inactive)
REMARK    1  A    between atoms: C_1  and  C_2
REMARK    2  A    between atoms: C_2  and  N_3
REMARK    3  A    between atoms: N_6  and  C_7
REMARK    4  A    between atoms: C_7  and  C_8
REMARK    5  A    between atoms: C_7  and  C_15
REMARK    6  A    between atoms: C_16  and  O_17
REMARK    7  A    between atoms: C_19  and  C_20
REMARK    8  A    between atoms: N_21  and  C_22
REMARK    9  A    between atoms: C_22  and  C_23
REMARK   10  A    between atoms: C_23  and  O_24
REMARK   11  A    between atoms: O_24  and  C_25
REMARK                            x       y       z     vdW  Elec       q    Type
REMARK                         _______ _______ _______ _____ _____    ______ ____
ROOT
ATOM      1  C   UNL     1      -0.645  12.242  20.350  0.00  0.00    +0.000 C 
ENDROOT
BRANCH   1   2
ATOM      2  C   UNL     1      -2.160  12.365  20.645  0.00  0.00    +0.000 A 
ATOM      3  C   UNL     1      -2.812  12.663  21.789  0.00  0.00    +0.000 A 
ATOM      4  C   UNL     1      -4.232  12.892  21.825  0.00  0.00    +0.000 A 
ATOM      5  C   UNL     1      -4.996  12.802  20.728  0.00  0.00    +0.000 A 
ATOM      6  C   UNL     1      -6.463  13.123  20.806  0.00  0.00    +0.000 C 
ATOM      7  N   UNL     1      -4.411  12.382  19.536  0.00  0.00    +0.000 N 
ATOM      8  C   UNL     1      -3.054  12.024  19.466  0.00  0.00    +0.000 A 
ATOM      9  O   UNL     1      -2.576  11.442  18.493  0.00  0.00    +0.000 OA
BRANCH   3  10
ATOM     10  O   UNL     1      -2.259  12.865  23.027  0.00  0.00    +0.000 OA
ATOM     11  H   UNL     1      -2.851  13.430  23.545  0.00  0.00    +0.000 HD
ENDBRANCH   3  10
BRANCH   7  12
ATOM     12  C   UNL     1      -5.207  12.231  18.305  0.00  0.00    +0.000 C 
BRANCH  12  13
ATOM     13  C   UNL     1      -5.649  10.786  18.028  0.00  0.00    +0.000 C 
BRANCH  13  14
ATOM     14  O   UNL     1      -6.983  10.554  18.484  0.00  0.00    +0.000 OA
ATOM     15  C   UNL     1      -7.019   9.563  19.503  0.00  0.00    +0.000 C 
ENDBRANCH  13  14
ENDBRANCH  12  13
ENDBRANCH   7  12
ENDBRANCH   1   2
BRANCH   1  16
ATOM     16  C   UNL     1      -0.076  10.886  20.838  0.00  0.00    +0.000 A 
ATOM     17  C   UNL     1      -0.138  10.548  22.216  0.00  0.00    +0.000 A 
ATOM     18  C   UNL     1       0.433   9.379  22.709  0.00  0.00    +0.000 A 
ATOM     19  C   UNL     1       1.059   8.500  21.835  0.00  0.00    +0.000 A 
ATOM     20  C   UNL     1       1.094   8.784  20.469  0.00  0.00    +0.000 A 
ATOM     21  C   UNL     1       0.527   9.965  19.969  0.00  0.00    +0.000 A 
ATOM     22 CL   UNL     1       0.596  10.214  18.263  0.00  0.00    +0.000 Cl
ENDBRANCH   1  16
BRANCH   1  26
ATOM     23  N   UNL     1       1.589  15.052  18.739  0.00  0.00    +0.000 NA
ATOM     24  C   UNL     1       2.010  13.685  19.089  0.00  0.00    +0.000 C 
ATOM     25  C   UNL     1       1.633  13.248  20.523  0.00  0.00    +0.000 C 
ATOM     26  N   UNL     1       0.193  13.374  20.893  0.00  0.00    +0.000 NA
ATOM     27  C   UNL     1      -0.247  14.729  20.490  0.00  0.00    +0.000 C 
ATOM     28  C   UNL     1       0.146  15.178  19.058  0.00  0.00    +0.000 C 
BRANCH  23  30
ATOM     29  C   UNL     1       1.858  17.517  19.112  0.00  0.00    +0.000 C 
ATOM     30  C   UNL     1       2.371  16.107  19.398  0.00  0.00    +0.000 C 
ENDBRANCH  23  30
ENDBRANCH   1  26
TORSDOF 8
ENDMDL
MODEL 4
REMARK VINA RESULT:      -5.6      2.644      6.646
REMARK  Name = 
REMARK  11 active torsions:
REMARK  status: ('A' for Active; 'I' for Inactive)
REMARK    1  A    between atoms: C_1  and  C_2
REMARK    2  A    between atoms: C_2  and  N_3
REMARK    3  A    between atoms: N_6  and  C_7
REMARK    4  A    between atoms: C_7  and  C_8
REMARK    5  A    between atoms: C_7  and  C_15
REMARK    6  A    between atoms: C_16  and  O_17
REMARK    7  A    between atoms: C_19  and  C_20
REMARK    8  A    between atoms: N_21  and  C_22
REMARK    9  A    between atoms: C_22  and  C_23
REMARK   10  A    between atoms: C_23  and  O_24
REMARK   11  A    between atoms: O_24  and  C_25
REMARK                            x       y       z     vdW  Elec       q    Type
REMARK                         _______ _______ _______ _____ _____    ______ ____
ROOT
ATOM      1  C   UNL     1       0.425  11.131  19.059  0.00  0.00    +0.000 C 
ENDROOT
BRANCH   1   2
ATOM      2  C   UNL     1       1.384  12.335  19.220  0.00  0.00    +0.000 A 
ATOM      3  C   UNL     1       2.250  12.894  18.348  0.00  0.00    +0.000 A 
ATOM      4  C   UNL     1       2.942  14.122  18.635  0.00  0.00    +0.000 A 
ATOM      5  C   UNL     1       2.784  14.774  19.794  0.00  0.00    +0.000 A 
ATOM      6  C   UNL     1       3.474  16.092  20.015  0.00  0.00    +0.000 C 
ATOM      7  N   UNL     1       1.999  14.195  20.788  0.00  0.00    +0.000 N 
ATOM      8  C   UNL     1       1.397  12.937  20.614  0.00  0.00    +0.000 A 
ATOM      9  O   UNL     1       0.895  12.313  21.548  0.00  0.00    +0.000 OA
BRANCH   3  10
ATOM     10  O   UNL     1       2.544  12.458  17.082  0.00  0.00    +0.000 OA
ATOM     11  H   UNL     1       3.160  13.083  16.672  0.00  0.00    +0.000 HD
ENDBRANCH   3  10
BRANCH   7  12
ATOM     12  C   UNL     1       1.817  14.848  22.096  0.00  0.00    +0.000 C 
BRANCH  12  13
ATOM     13  C   UNL     1       0.438  15.500  22.275  0.00  0.00    +0.000 C 
BRANCH  13  14
ATOM     14  O   UNL     1      -0.182  15.081  23.492  0.00  0.00    +0.000 OA
ATOM     15  C   UNL     1      -1.387  14.367  23.242  0.00  0.00    +0.000 C 
ENDBRANCH  13  14
ENDBRANCH  12  13
ENDBRANCH   7  12
ENDBRANCH   1   2
BRANCH   1  16
ATOM     16  C   UNL     1       1.192   9.784  19.071  0.00  0.00    +0.000 A 
ATOM     17  C   UNL     1       1.971   9.404  17.946  0.00  0.00    +0.000 A 
ATOM     18  C   UNL     1       2.609   8.169  17.882  0.00  0.00    +0.000 A 
ATOM     19  C   UNL     1       2.508   7.289  18.951  0.00  0.00    +0.000 A 
ATOM     20  C   UNL     1       1.786   7.654  20.088  0.00  0.00    +0.000 A 
ATOM     21  C   UNL     1       1.135   8.895  20.154  0.00  0.00    +0.000 A 
ATOM     22 CL   UNL     1       0.292   9.268  21.612  0.00  0.00    +0.000 Cl
ENDBRANCH   1  16
BRANCH   1  26
ATOM     23  N   UNL     1      -3.458  10.909  18.461  0.00  0.00    +0.000 NA
ATOM     24  C   UNL     1      -2.512   9.783  18.528  0.00  0.00    +0.000 C 
ATOM     25  C   UNL     1      -1.257   9.949  17.641  0.00  0.00    +0.000 C 
ATOM     26  N   UNL     1      -0.469  11.200  17.843  0.00  0.00    +0.000 NA
ATOM     27  C   UNL     1      -1.426  12.330  17.833  0.00  0.00    +0.000 C 
ATOM     28  C   UNL     1      -2.696  12.157  18.707  0.00  0.00    +0.000 C 
BRANCH  23  30
ATOM     29  C   UNL     1      -5.353  11.997  17.233  0.00  0.00    +0.000 C 
ATOM     30  C   UNL     1      -4.209  10.986  17.201  0.00  0.00    +0.000 C 
ENDBRANCH  23  30
ENDBRANCH   1  26
TORSDOF 8
ENDMDL
MODEL 5
REMARK VINA RESULT:      -5.5      2.628      3.287
REMARK  Name = 
REMARK  11 active torsions:
REMARK  status: ('A' for Active; 'I' for Inactive)
REMARK    1  A    between atoms: C_1  and  C_2
REMARK    2  A    between atoms: C_2  and  N_3
REMARK    3  A    between atoms: N_6  and  C_7
REMARK    4  A    between atoms: C_7  and  C_8
REMARK    5  A    between atoms: C_7  and  C_15
REMARK    6  A    between atoms: C_16  and  O_17
REMARK    7  A    between atoms: C_19  and  C_20
REMARK    8  A    between atoms: N_21  and  C_22
REMARK    9  A    between atoms: C_22  and  C_23
REMARK   10  A    between atoms: C_23  and  O_24
REMARK   11  A    between atoms: O_24  and  C_25
REMARK                            x       y       z     vdW  Elec       q    Type
REMARK                         _______ _______ _______ _____ _____    ______ ____
ROOT
ATOM      1  C   UNL     1      -1.915  12.881  21.293  0.00  0.00    +0.000 C 
ENDROOT
BRANCH   1   2
ATOM      2  C   UNL     1      -3.384  12.847  21.783  0.00  0.00    +0.000 A 
ATOM      3  C   UNL     1      -3.906  13.042  23.012  0.00  0.00    +0.000 A 
ATOM      4  C   UNL     1      -5.324  13.132  23.237  0.00  0.00    +0.000 A 
ATOM      5  C   UNL     1      -6.212  13.007  22.243  0.00  0.00    +0.000 A 
ATOM      6  C   UNL     1      -7.680  13.182  22.520  0.00  0.00    +0.000 C 
ATOM      7  N   UNL     1      -5.751  12.686  20.968  0.00  0.00    +0.000 N 
ATOM      8  C   UNL     1      -4.388  12.463  20.711  0.00  0.00    +0.000 A 
ATOM      9  O   UNL     1      -3.990  11.963  19.660  0.00  0.00    +0.000 OA
BRANCH   3  10
ATOM     10  O   UNL     1      -3.217  13.254  24.178  0.00  0.00    +0.000 OA
ATOM     11  H   UNL     1      -3.690  12.820  24.903  0.00  0.00    +0.000 HD
ENDBRANCH   3  10
BRANCH   7  12
ATOM     12  C   UNL     1      -6.683  12.501  19.842  0.00  0.00    +0.000 C 
BRANCH  12  13
ATOM     13  C   UNL     1      -6.954  11.028  19.498  0.00  0.00    +0.000 C 
BRANCH  13  14
ATOM     14  O   UNL     1      -7.161  10.249  20.678  0.00  0.00    +0.000 OA
ATOM     15  C   UNL     1      -7.512   8.908  20.359  0.00  0.00    +0.000 C 
ENDBRANCH  13  14
ENDBRANCH  12  13
ENDBRANCH   7  12
ENDBRANCH   1   2
BRANCH   1  16
ATOM     16  C   UNL     1      -1.200  11.528  21.538  0.00  0.00    +0.000 A 
ATOM     17  C   UNL     1      -1.079  11.022  22.859  0.00  0.00    +0.000 A 
ATOM     18  C   UNL     1      -0.374   9.853  23.133  0.00  0.00    +0.000 A 
ATOM     19  C   UNL     1       0.206   9.142  22.091  0.00  0.00    +0.000 A 
ATOM     20  C   UNL     1       0.063   9.592  20.777  0.00  0.00    +0.000 A 
ATOM     21  C   UNL     1      -0.639  10.773  20.497  0.00  0.00    +0.000 A 
ATOM     22 CL   UNL     1      -0.786  11.232  18.841  0.00  0.00    +0.000 Cl
ENDBRANCH   1  16
BRANCH   1  26
ATOM     23  N   UNL     1       0.184  15.833  19.757  0.00  0.00    +0.000 NA
ATOM     24  C   UNL     1       0.654  14.463  20.021  0.00  0.00    +0.000 C 
ATOM     25  C   UNL     1       0.340  13.942  21.442  0.00  0.00    +0.000 C 
ATOM     26  N   UNL     1      -1.088  14.008  21.866  0.00  0.00    +0.000 NA
ATOM     27  C   UNL     1      -1.580  15.368  21.550  0.00  0.00    +0.000 C 
ATOM     28  C   UNL     1      -1.249  15.901  20.131  0.00  0.00    +0.000 C 
BRANCH  23  30
ATOM     29  C   UNL     1       2.167  17.363  19.644  0.00  0.00    +0.000 C 
ATOM     30  C   UNL     1       0.961  16.875  20.444  0.00  0.00    +0.000 C 
ENDBRANCH  23  30
ENDBRANCH   1  26
TORSDOF 8
ENDMDL
MODEL 6
REMARK VINA RESULT:      -5.5      1.708      2.209
REMARK  Name = 
REMARK  11 active torsions:
REMARK  status: ('A' for Active; 'I' for Inactive)
REMARK    1  A    between atoms: C_1  and  C_2
REMARK    2  A    between atoms: C_2  and  N_3
REMARK    3  A    between atoms: N_6  and  C_7
REMARK    4  A    between atoms: C_7  and  C_8
REMARK    5  A    between atoms: C_7  and  C_15
REMARK    6  A    between atoms: C_16  and  O_17
REMARK    7  A    between atoms: C_19  and  C_20
REMARK    8  A    between atoms: N_21  and  C_22
REMARK    9  A    between atoms: C_22  and  C_23
REMARK   10  A    between atoms: C_23  and  O_24
REMARK   11  A    between atoms: O_24  and  C_25
REMARK                            x       y       z     vdW  Elec       q    Type
REMARK                         _______ _______ _______ _____ _____    ______ ____
ROOT
ATOM      1  C   UNL     1      -1.469  12.639  20.375  0.00  0.00    +0.000 C 
ENDROOT
BRANCH   1   2
ATOM      2  C   UNL     1      -3.007  12.715  20.544  0.00  0.00    +0.000 A 
ATOM      3  C   UNL     1      -3.758  13.246  21.531  0.00  0.00    +0.000 A 
ATOM      4  C   UNL     1      -5.188  13.365  21.428  0.00  0.00    +0.000 A 
ATOM      5  C   UNL     1      -5.862  12.936  20.353  0.00  0.00    +0.000 A 
ATOM      6  C   UNL     1      -7.348  13.149  20.262  0.00  0.00    +0.000 C 
ATOM      7  N   UNL     1      -5.166  12.268  19.347  0.00  0.00    +0.000 N 
ATOM      8  C   UNL     1      -3.788  12.012  19.448  0.00  0.00    +0.000 A 
ATOM      9  O   UNL     1      -3.206  11.238  18.690  0.00  0.00    +0.000 OA
BRANCH   3  10
ATOM     10  O   UNL     1      -3.311  13.803  22.702  0.00  0.00    +0.000 OA
ATOM     11  H   UNL     1      -3.314  13.124  23.392  0.00  0.00    +0.000 HD
ENDBRANCH   3  10
BRANCH   7  12
ATOM     12  C   UNL     1      -5.858  11.743  18.157  0.00  0.00    +0.000 C 
BRANCH  12  13
ATOM     13  C   UNL     1      -5.817  12.691  16.949  0.00  0.00    +0.000 C 
BRANCH  13  14
ATOM     14  O   UNL     1      -7.075  13.342  16.756  0.00  0.00    +0.000 OA
ATOM     15  C   UNL     1      -6.950  14.755  16.857  0.00  0.00    +0.000 C 
ENDBRANCH  13  14
ENDBRANCH  12  13
ENDBRANCH   7  12
ENDBRANCH   1   2
BRANCH   1  16
ATOM     16  C   UNL     1      -0.885  11.363  21.033  0.00  0.00    +0.000 A 
ATOM     17  C   UNL     1      -1.056  11.143  22.425  0.00  0.00    +0.000 A 
ATOM     18  C   UNL     1      -0.478  10.053  23.069  0.00  0.00    +0.000 A 
ATOM     19  C   UNL     1       0.264   9.137  22.337  0.00  0.00    +0.000 A 
ATOM     20  C   UNL     1       0.410   9.303  20.959  0.00  0.00    +0.000 A 
ATOM     21  C   UNL     1      -0.164  10.404  20.305  0.00  0.00    +0.000 A 
ATOM     22 CL   UNL     1       0.047  10.507  18.597  0.00  0.00    +0.000 Cl
ENDBRANCH   1  16
BRANCH   1  26
ATOM     23  N   UNL     1       1.167  15.098  18.798  0.00  0.00    +0.000 NA
ATOM     24  C   UNL     1       1.449  13.823  19.479  0.00  0.00    +0.000 C 
ATOM     25  C   UNL     1       0.756  13.665  20.852  0.00  0.00    +0.000 C 
ATOM     26  N   UNL     1      -0.723  13.856  20.868  0.00  0.00    +0.000 NA
ATOM     27  C   UNL     1      -1.014  15.109  20.135  0.00  0.00    +0.000 C 
ATOM     28  C   UNL     1      -0.305  15.278  18.765  0.00  0.00    +0.000 C 
BRANCH  23  30
ATOM     29  C   UNL     1       3.355  16.174  19.380  0.00  0.00    +0.000 C 
ATOM     30  C   UNL     1       1.830  16.260  19.404  0.00  0.00    +0.000 C 
ENDBRANCH  23  30
ENDBRANCH   1  26
TORSDOF 8
ENDMDL
MODEL 7
REMARK VINA RESULT:      -5.5      2.828      3.628
REMARK  Name = 
REMARK  11 active torsions:
REMARK  status: ('A' for Active; 'I' for Inactive)
REMARK    1  A    between atoms: C_1  and  C_2
REMARK    2  A    between atoms: C_2  and  N_3
REMARK    3  A    between atoms: N_6  and  C_7
REMARK    4  A    between atoms: C_7  and  C_8
REMARK    5  A    between atoms: C_7  and  C_15
REMARK    6  A    between atoms: C_16  and  O_17
REMARK    7  A    between atoms: C_19  and  C_20
REMARK    8  A    between atoms: N_21  and  C_22
REMARK    9  A    between atoms: C_22  and  C_23
REMARK   10  A    between atoms: C_23  and  O_24
REMARK   11  A    between atoms: O_24  and  C_25
REMARK                            x       y       z     vdW  Elec       q    Type
REMARK                         _______ _______ _______ _____ _____    ______ ____
ROOT
ATOM      1  C   UNL     1      -1.356  12.992  21.154  0.00  0.00    +0.000 C 
ENDROOT
BRANCH   1   2
ATOM      2  C   UNL     1      -2.622  13.408  21.943  0.00  0.00    +0.000 A 
ATOM      3  C   UNL     1      -2.755  13.931  23.180  0.00  0.00    +0.000 A 
ATOM      4  C   UNL     1      -4.018  14.408  23.679  0.00  0.00    +0.000 A 
ATOM      5  C   UNL     1      -5.140  14.343  22.953  0.00  0.00    +0.000 A 
ATOM      6  C   UNL     1      -6.419  14.923  23.492  0.00  0.00    +0.000 C 
ATOM      7  N   UNL     1      -5.103  13.707  21.714  0.00  0.00    +0.000 N 
ATOM      8  C   UNL     1      -3.927  13.112  21.226  0.00  0.00    +0.000 A 
ATOM      9  O   UNL     1      -3.926  12.359  20.253  0.00  0.00    +0.000 OA
BRANCH   3  10
ATOM     10  O   UNL     1      -1.758  14.157  24.093  0.00  0.00    +0.000 OA
ATOM     11  H   UNL     1      -2.156  14.265  24.969  0.00  0.00    +0.000 HD
ENDBRANCH   3  10
BRANCH   7  12
ATOM     12  C   UNL     1      -6.313  13.574  20.885  0.00  0.00    +0.000 C 
BRANCH  12  13
ATOM     13  C   UNL     1      -7.305  12.521  21.403  0.00  0.00    +0.000 C 
BRANCH  13  14
ATOM     14  O   UNL     1      -6.793  11.197  21.233  0.00  0.00    +0.000 OA
ATOM     15  C   UNL     1      -7.149  10.661  19.965  0.00  0.00    +0.000 C 
ENDBRANCH  13  14
ENDBRANCH  12  13
ENDBRANCH   7  12
ENDBRANCH   1   2
BRANCH   1  16
ATOM     16  C   UNL     1      -0.948  11.528  21.460  0.00  0.00    +0.000 A 
ATOM     17  C   UNL     1      -0.764  11.113  22.805  0.00  0.00    +0.000 A 
ATOM     18  C   UNL     1      -0.319   9.832  23.121  0.00  0.00    +0.000 A 
ATOM     19  C   UNL     1      -0.071   8.922  22.103  0.00  0.00    +0.000 A 
ATOM     20  C   UNL     1      -0.288   9.289  20.774  0.00  0.00    +0.000 A 
ATOM     21  C   UNL     1      -0.729  10.581  20.450  0.00  0.00    +0.000 A 
ATOM     22 CL   UNL     1      -0.994  10.930  18.782  0.00  0.00    +0.000 Cl
ENDBRANCH   1  16
BRANCH   1  26
ATOM     23  N   UNL     1       0.984  15.035  18.739  0.00  0.00    +0.000 NA
ATOM     24  C   UNL     1       1.152  13.630  19.148  0.00  0.00    +0.000 C 
ATOM     25  C   UNL     1       1.061  13.394  20.673  0.00  0.00    +0.000 C 
ATOM     26  N   UNL     1      -0.169  13.905  21.346  0.00  0.00    +0.000 NA
ATOM     27  C   UNL     1      -0.372  15.300  20.892  0.00  0.00    +0.000 C 
ATOM     28  C   UNL     1      -0.261  15.543  19.364  0.00  0.00    +0.000 C 
BRANCH  23  30
ATOM     29  C   UNL     1       2.576  16.783  17.906  0.00  0.00    +0.000 C 
ATOM     30  C   UNL     1       2.130  15.894  19.065  0.00  0.00    +0.000 C 
ENDBRANCH  23  30
ENDBRANCH   1  26
TORSDOF 8
ENDMDL
MODEL 8
REMARK VINA RESULT:      -5.3      2.285      2.915
REMARK  Name = 
REMARK  11 active torsions:
REMARK  status: ('A' for Active; 'I' for Inactive)
REMARK    1  A    between atoms: C_1  and  C_2
REMARK    2  A    between atoms: C_2  and  N_3
REMARK    3  A    between atoms: N_6  and  C_7
REMARK    4  A    between atoms: C_7  and  C_8
REMARK    5  A    between atoms: C_7  and  C_15
REMARK    6  A    between atoms: C_16  and  O_17
REMARK    7  A    between atoms: C_19  and  C_20
REMARK    8  A    between atoms: N_21  and  C_22
REMARK    9  A    between atoms: C_22  and  C_23
REMARK   10  A    between atoms: C_23  and  O_24
REMARK   11  A    between atoms: O_24  and  C_25
REMARK                            x       y       z     vdW  Elec       q    Type
REMARK                         _______ _______ _______ _____ _____    ______ ____
ROOT
ATOM      1  C   UNL     1      -1.103  12.757  20.780  0.00  0.00    +0.000 C 
ENDROOT
BRANCH   1   2
ATOM      2  C   UNL     1      -2.457  13.281  21.317  0.00  0.00    +0.000 A 
ATOM      3  C   UNL     1      -2.765  13.897  22.478  0.00  0.00    +0.000 A 
ATOM      4  C   UNL     1      -4.065  14.460  22.727  0.00  0.00    +0.000 A 
ATOM      5  C   UNL     1      -5.056  14.387  21.829  0.00  0.00    +0.000 A 
ATOM      6  C   UNL     1      -6.374  15.055  22.108  0.00  0.00    +0.000 C 
ATOM      7  N   UNL     1      -4.848  13.661  20.658  0.00  0.00    +0.000 N 
ATOM      8  C   UNL     1      -3.641  12.985  20.413  0.00  0.00    +0.000 A 
ATOM      9  O   UNL     1      -3.519  12.164  19.505  0.00  0.00    +0.000 OA
BRANCH   3  10
ATOM     10  O   UNL     1      -1.920  14.150  23.528  0.00  0.00    +0.000 OA
ATOM     11  H   UNL     1      -1.201  13.500  23.513  0.00  0.00    +0.000 HD
ENDBRANCH   3  10
BRANCH   7  12
ATOM     12  C   UNL     1      -5.912  13.517  19.649  0.00  0.00    +0.000 C 
BRANCH  12  13
ATOM     13  C   UNL     1      -6.859  12.336  19.914  0.00  0.00    +0.000 C 
BRANCH  13  14
ATOM     14  O   UNL     1      -7.014  11.523  18.749  0.00  0.00    +0.000 OA
ATOM     15  C   UNL     1      -6.834  12.280  17.559  0.00  0.00    +0.000 C 
ENDBRANCH  13  14
ENDBRANCH  12  13
ENDBRANCH   7  12
ENDBRANCH   1   2
BRANCH   1  16
ATOM     16  C   UNL     1      -0.795  11.330  21.300  0.00  0.00    +0.000 A 
ATOM     17  C   UNL     1      -0.751  11.082  22.697  0.00  0.00    +0.000 A 
ATOM     18  C   UNL     1      -0.399   9.836  23.208  0.00  0.00    +0.000 A 
ATOM     19  C   UNL     1      -0.106   8.796  22.337  0.00  0.00    +0.000 A 
ATOM     20  C   UNL     1      -0.185   8.999  20.959  0.00  0.00    +0.000 A 
ATOM     21  C   UNL     1      -0.533  10.255  20.439  0.00  0.00    +0.000 A 
ATOM     22 CL   UNL     1      -0.632  10.400  18.723  0.00  0.00    +0.000 Cl
ENDBRANCH   1  16
BRANCH   1  26
ATOM     23  N   UNL     1       1.631  14.491  18.543  0.00  0.00    +0.000 NA
ATOM     24  C   UNL     1       1.692  13.136  19.115  0.00  0.00    +0.000 C 
ATOM     25  C   UNL     1       1.371  13.065  20.626  0.00  0.00    +0.000 C 
ATOM     26  N   UNL     1       0.073  13.666  21.051  0.00  0.00    +0.000 NA
ATOM     27  C   UNL     1      -0.016  15.007  20.430  0.00  0.00    +0.000 C 
ATOM     28  C   UNL     1       0.325  15.084  18.919  0.00  0.00    +0.000 C 
BRANCH  23  30
ATOM     29  C   UNL     1       2.768  16.701  18.212  0.00  0.00    +0.000 C 
ATOM     30  C   UNL     1       2.744  15.361  18.946  0.00  0.00    +0.000 C 
ENDBRANCH  23  30
ENDBRANCH   1  26
TORSDOF 8
ENDMDL
MODEL 9
REMARK VINA RESULT:      -5.3      2.348      2.706
REMARK  Name = 
REMARK  11 active torsions:
REMARK  status: ('A' for Active; 'I' for Inactive)
REMARK    1  A    between atoms: C_1  and  C_2
REMARK    2  A    between atoms: C_2  and  N_3
REMARK    3  A    between atoms: N_6  and  C_7
REMARK    4  A    between atoms: C_7  and  C_8
REMARK    5  A    between atoms: C_7  and  C_15
REMARK    6  A    between atoms: C_16  and  O_17
REMARK    7  A    between atoms: C_19  and  C_20
REMARK    8  A    between atoms: N_21  and  C_22
REMARK    9  A    between atoms: C_22  and  C_23
REMARK   10  A    between atoms: C_23  and  O_24
REMARK   11  A    between atoms: O_24  and  C_25
REMARK                            x       y       z     vdW  Elec       q    Type
REMARK                         _______ _______ _______ _____ _____    ______ ____
ROOT
ATOM      1  C   UNL     1      -1.591  12.666  20.974  0.00  0.00    +0.000 C 
ENDROOT
BRANCH   1   2
ATOM      2  C   UNL     1      -3.095  12.694  21.340  0.00  0.00    +0.000 A 
ATOM      3  C   UNL     1      -3.709  12.878  22.528  0.00  0.00    +0.000 A 
ATOM      4  C   UNL     1      -5.134  13.035  22.639  0.00  0.00    +0.000 A 
ATOM      5  C   UNL     1      -5.941  12.987  21.572  0.00  0.00    +0.000 A 
ATOM      6  C   UNL     1      -7.416  13.230  21.733  0.00  0.00    +0.000 C 
ATOM      7  N   UNL     1      -5.391  12.681  20.329  0.00  0.00    +0.000 N 
ATOM      8  C   UNL     1      -4.024  12.396  20.177  0.00  0.00    +0.000 A 
ATOM      9  O   UNL     1      -3.564  11.908  19.145  0.00  0.00    +0.000 OA
BRANCH   3  10
ATOM     10  O   UNL     1      -3.110  13.018  23.754  0.00  0.00    +0.000 OA
ATOM     11  H   UNL     1      -2.322  12.455  23.782  0.00  0.00    +0.000 HD
ENDBRANCH   3  10
BRANCH   7  12
ATOM     12  C   UNL     1      -6.233  12.580  19.124  0.00  0.00    +0.000 C 
BRANCH  12  13
ATOM     13  C   UNL     1      -6.413  13.913  18.382  0.00  0.00    +0.000 C 
BRANCH  13  14
ATOM     14  O   UNL     1      -6.608  13.706  16.981  0.00  0.00    +0.000 OA
ATOM     15  C   UNL     1      -7.132  14.869  16.352  0.00  0.00    +0.000 C 
ENDBRANCH  13  14
ENDBRANCH  12  13
ENDBRANCH   7  12
ENDBRANCH   1   2
BRANCH   1  16
ATOM     16  C   UNL     1      -0.938  11.309  21.344  0.00  0.00    +0.000 A 
ATOM     17  C   UNL     1      -0.905  10.887  22.699  0.00  0.00    +0.000 A 
ATOM     18  C   UNL     1      -0.258   9.716  23.085  0.00  0.00    +0.000 A 
ATOM     19  C   UNL     1       0.350   8.921  22.124  0.00  0.00    +0.000 A 
ATOM     20  C   UNL     1       0.294   9.288  20.778  0.00  0.00    +0.000 A 
ATOM     21  C   UNL     1      -0.351  10.471  20.386  0.00  0.00    +0.000 A 
ATOM     22 CL   UNL     1      -0.393  10.825  18.698  0.00  0.00    +0.000 Cl
ENDBRANCH   1  16
BRANCH   1  26
ATOM     23  N   UNL     1       0.665  15.519  19.475  0.00  0.00    +0.000 NA
ATOM     24  C   UNL     1       1.089  14.152  19.820  0.00  0.00    +0.000 C 
ATOM     25  C   UNL     1       0.671  13.692  21.236  0.00  0.00    +0.000 C 
ATOM     26  N   UNL     1      -0.782  13.799  21.560  0.00  0.00    +0.000 NA
ATOM     27  C   UNL     1      -1.223  15.155  21.161  0.00  0.00    +0.000 C 
ATOM     28  C   UNL     1      -0.788  15.627  19.749  0.00  0.00    +0.000 C 
BRANCH  23  30
ATOM     29  C   UNL     1       0.976  17.986  19.797  0.00  0.00    +0.000 C 
ATOM     30  C   UNL     1       1.415  16.572  20.173  0.00  0.00    +0.000 C 
ENDBRANCH  23  30
ENDBRANCH   1  26
TORSDOF 8
ENDMDL
