MODEL 1
REMARK VINA RESULT:      -7.9      0.000      0.000
REMARK  Name = 
REMARK  8 active torsions:
REMARK  status: ('A' for Active; 'I' for Inactive)
REMARK    1  A    between atoms: C_1  and  C_2
REMARK    2  A    between atoms: C_2  and  C_4
REMARK    3  A    between atoms: C_4  and  C_17
REMARK    4  A    between atoms: C_5  and  C_6
REMARK    5  A    between atoms: C_8  and  O_9
REMARK    6  A    between atoms: C_10  and  O_11
REMARK    7  A    between atoms: C_12  and  N_13
REMARK    8  A    between atoms: C_17  and  C_18
REMARK                            x       y       z     vdW  Elec       q    Type
REMARK                         _______ _______ _______ _____ _____    ______ ____
ROOT
ATOM      1  C   UNL     1       4.268   4.688  17.421  0.00  0.00    +0.000 A 
ATOM      2  C   UNL     1       3.604   5.879  17.747  0.00  0.00    +0.000 A 
ATOM      3  C   UNL     1       3.013   6.011  19.001  0.00  0.00    +0.000 A 
ATOM      4  C   UNL     1       3.049   4.968  19.927  0.00  0.00    +0.000 A 
ATOM      5  C   UNL     1       3.651   3.769  19.565  0.00  0.00    +0.000 A 
ATOM      6  C   UNL     1       4.256   3.610  18.313  0.00  0.00    +0.000 A 
ENDROOT
BRANCH   5   7
ATOM      7  N   UNL     1       3.745   2.681  20.515  0.00  0.00    +0.000 N 
ATOM      8  O   UNL     1       2.765   2.452  21.229  0.00  0.00    +0.000 OA
ATOM      9  O   UNL     1       4.789   2.009  20.479  0.00  0.00    +0.000 OA
ENDBRANCH   5   7
BRANCH   1  11
ATOM     10  C   UNL     1       6.367   4.792  16.017  0.00  0.00    +0.000 C 
ATOM     11  C   UNL     1       5.037   4.599  16.180  0.00  0.00    +0.000 C 
BRANCH  10  13
ATOM     12  C   UNL     1       7.441   6.477  17.729  0.00  0.00    +0.000 C 
ATOM     13  C   UNL     1       7.365   5.112  17.095  0.00  0.00    +0.000 C 
ATOM     14  O   UNL     1       8.158   4.239  17.456  0.00  0.00    +0.000 OA
ENDBRANCH  10  13
BRANCH  10  15
ATOM     15  C   UNL     1       6.809   4.746  14.577  0.00  0.00    +0.000 C 
ATOM     16  C   UNL     1       6.065   3.886  13.584  0.00  0.00    +0.000 C 
ATOM     17  O   UNL     1       7.762   5.428  14.192  0.00  0.00    +0.000 OA
ENDBRANCH  10  15
ENDBRANCH   1  11
BRANCH   3  18
ATOM     18  O   UNL     1       2.425   7.182  19.394  0.00  0.00    +0.000 OA
ATOM     19  H   UNL     1       1.526   6.993  19.716  0.00  0.00    +0.000 HD
ENDBRANCH   3  18
BRANCH   4  20
ATOM     20  O   UNL     1       2.539   5.184  21.175  0.00  0.00    +0.000 OA
ATOM     21  H   UNL     1       2.921   4.482  21.743  0.00  0.00    +0.000 HD
ENDBRANCH   4  20
TORSDOF 6
ENDMDL
MODEL 2
REMARK VINA RESULT:      -7.5      2.504      5.982
REMARK  Name = 
REMARK  8 active torsions:
REMARK  status: ('A' for Active; 'I' for Inactive)
REMARK    1  A    between atoms: C_1  and  C_2
REMARK    2  A    between atoms: C_2  and  C_4
REMARK    3  A    between atoms: C_4  and  C_17
REMARK    4  A    between atoms: C_5  and  C_6
REMARK    5  A    between atoms: C_8  and  O_9
REMARK    6  A    between atoms: C_10  and  O_11
REMARK    7  A    between atoms: C_12  and  N_13
REMARK    8  A    between atoms: C_17  and  C_18
REMARK                            x       y       z     vdW  Elec       q    Type
REMARK                         _______ _______ _______ _____ _____    ______ ____
ROOT
ATOM      1  C   UNL     1       4.871   5.086  18.878  0.00  0.00    +0.000 A 
ATOM      2  C   UNL     1       6.109   5.467  19.415  0.00  0.00    +0.000 A 
ATOM      3  C   UNL     1       7.085   5.998  18.577  0.00  0.00    +0.000 A 
ATOM      4  C   UNL     1       6.861   6.132  17.206  0.00  0.00    +0.000 A 
ATOM      5  C   UNL     1       5.655   5.688  16.676  0.00  0.00    +0.000 A 
ATOM      6  C   UNL     1       4.655   5.154  17.496  0.00  0.00    +0.000 A 
ENDROOT
BRANCH   5   7
ATOM      7  N   UNL     1       5.370   5.853  15.266  0.00  0.00    +0.000 N 
ATOM      8  O   UNL     1       5.159   6.995  14.851  0.00  0.00    +0.000 OA
ATOM      9  O   UNL     1       5.441   4.829  14.568  0.00  0.00    +0.000 OA
ENDBRANCH   5   7
BRANCH   1  11
ATOM     10  C   UNL     1       3.428   3.435  20.134  0.00  0.00    +0.000 C 
ATOM     11  C   UNL     1       3.781   4.690  19.768  0.00  0.00    +0.000 C 
BRANCH  10  13
ATOM     12  C   UNL     1       3.673   1.374  18.518  0.00  0.00    +0.000 C 
ATOM     13  C   UNL     1       4.109   2.159  19.729  0.00  0.00    +0.000 C 
ATOM     14  O   UNL     1       5.037   1.729  20.418  0.00  0.00    +0.000 OA
ENDBRANCH  10  13
BRANCH  10  15
ATOM     15  C   UNL     1       2.172   3.384  20.966  0.00  0.00    +0.000 C 
ATOM     16  C   UNL     1       0.828   3.624  20.323  0.00  0.00    +0.000 C 
ATOM     17  O   UNL     1       2.229   3.120  22.170  0.00  0.00    +0.000 OA
ENDBRANCH  10  15
ENDBRANCH   1  11
BRANCH   3  18
ATOM     18  O   UNL     1       8.277   6.457  19.067  0.00  0.00    +0.000 OA
ATOM     19  H   UNL     1       8.922   6.505  18.340  0.00  0.00    +0.000 HD
ENDBRANCH   3  18
BRANCH   4  20
ATOM     20  O   UNL     1       7.813   6.747  16.445  0.00  0.00    +0.000 OA
ATOM     21  H   UNL     1       7.887   6.211  15.628  0.00  0.00    +0.000 HD
ENDBRANCH   4  20
TORSDOF 6
ENDMDL
MODEL 3
REMARK VINA RESULT:      -7.5      0.743      1.053
REMARK  Name = 
REMARK  8 active torsions:
REMARK  status: ('A' for Active; 'I' for Inactive)
REMARK    1  A    between atoms: C_1  and  C_2
REMARK    2  A    between atoms: C_2  and  C_4
REMARK    3  A    between atoms: C_4  and  C_17
REMARK    4  A    between atoms: C_5  and  C_6
REMARK    5  A    between atoms: C_8  and  O_9
REMARK    6  A    between atoms: C_10  and  O_11
REMARK    7  A    between atoms: C_12  and  N_13
REMARK    8  A    between atoms: C_17  and  C_18
REMARK                            x       y       z     vdW  Elec       q    Type
REMARK                         _______ _______ _______ _____ _____    ______ ____
ROOT
ATOM      1  C   UNL     1       4.276   4.623  17.431  0.00  0.00    +0.000 A 
ATOM      2  C   UNL     1       3.617   5.822  17.734  0.00  0.00    +0.000 A 
ATOM      3  C   UNL     1       3.004   5.971  18.975  0.00  0.00    +0.000 A 
ATOM      4  C   UNL     1       3.013   4.935  19.911  0.00  0.00    +0.000 A 
ATOM      5  C   UNL     1       3.612   3.729  19.572  0.00  0.00    +0.000 A 
ATOM      6  C   UNL     1       4.239   3.553  18.333  0.00  0.00    +0.000 A 
ENDROOT
BRANCH   5   7
ATOM      7  N   UNL     1       3.680   2.648  20.534  0.00  0.00    +0.000 N 
ATOM      8  O   UNL     1       4.745   2.033  20.634  0.00  0.00    +0.000 OA
ATOM      9  O   UNL     1       2.675   2.480  21.243  0.00  0.00    +0.000 OA
ENDBRANCH   5   7
BRANCH   1  11
ATOM     10  C   UNL     1       6.306   5.014  15.976  0.00  0.00    +0.000 C 
ATOM     11  C   UNL     1       5.068   4.516  16.206  0.00  0.00    +0.000 C 
BRANCH  10  13
ATOM     12  C   UNL     1       7.764   5.100  18.164  0.00  0.00    +0.000 C 
ATOM     13  C   UNL     1       7.164   5.767  16.953  0.00  0.00    +0.000 C 
ATOM     14  O   UNL     1       7.366   6.970  16.771  0.00  0.00    +0.000 OA
ENDBRANCH  10  13
BRANCH  10  15
ATOM     15  C   UNL     1       6.773   4.828  14.555  0.00  0.00    +0.000 C 
ATOM     16  C   UNL     1       6.025   3.902  13.627  0.00  0.00    +0.000 C 
ATOM     17  O   UNL     1       7.753   5.448  14.132  0.00  0.00    +0.000 OA
ENDBRANCH  10  15
ENDBRANCH   1  11
BRANCH   3  18
ATOM     18  O   UNL     1       2.418   7.149  19.347  0.00  0.00    +0.000 OA
ATOM     19  H   UNL     1       1.790   7.424  18.655  0.00  0.00    +0.000 HD
ENDBRANCH   3  18
BRANCH   4  20
ATOM     20  O   UNL     1       2.482   5.167  21.148  0.00  0.00    +0.000 OA
ATOM     21  H   UNL     1       2.365   4.285  21.556  0.00  0.00    +0.000 HD
ENDBRANCH   4  20
TORSDOF 6
ENDMDL
MODEL 4
REMARK VINA RESULT:      -7.4      2.191      5.638
REMARK  Name = 
REMARK  8 active torsions:
REMARK  status: ('A' for Active; 'I' for Inactive)
REMARK    1  A    between atoms: C_1  and  C_2
REMARK    2  A    between atoms: C_2  and  C_4
REMARK    3  A    between atoms: C_4  and  C_17
REMARK    4  A    between atoms: C_5  and  C_6
REMARK    5  A    between atoms: C_8  and  O_9
REMARK    6  A    between atoms: C_10  and  O_11
REMARK    7  A    between atoms: C_12  and  N_13
REMARK    8  A    between atoms: C_17  and  C_18
REMARK                            x       y       z     vdW  Elec       q    Type
REMARK                         _______ _______ _______ _____ _____    ______ ____
ROOT
ATOM      1  C   UNL     1       4.339   5.421  18.681  0.00  0.00    +0.000 A 
ATOM      2  C   UNL     1       4.107   6.099  17.476  0.00  0.00    +0.000 A 
ATOM      3  C   UNL     1       5.173   6.351  16.616  0.00  0.00    +0.000 A 
ATOM      4  C   UNL     1       6.472   5.963  16.947  0.00  0.00    +0.000 A 
ATOM      5  C   UNL     1       6.698   5.352  18.174  0.00  0.00    +0.000 A 
ATOM      6  C   UNL     1       5.645   5.083  19.056  0.00  0.00    +0.000 A 
ENDROOT
BRANCH   5   7
ATOM      7  N   UNL     1       8.025   4.895  18.531  0.00  0.00    +0.000 N 
ATOM      8  O   UNL     1       8.494   5.274  19.607  0.00  0.00    +0.000 OA
ATOM      9  O   UNL     1       8.556   4.087  17.752  0.00  0.00    +0.000 OA
ENDBRANCH   5   7
BRANCH   1  11
ATOM     10  C   UNL     1       2.904   3.742  19.909  0.00  0.00    +0.000 C 
ATOM     11  C   UNL     1       3.211   4.999  19.509  0.00  0.00    +0.000 C 
BRANCH  10  13
ATOM     12  C   UNL     1       3.370   1.622  18.423  0.00  0.00    +0.000 C 
ATOM     13  C   UNL     1       3.684   2.492  19.613  0.00  0.00    +0.000 C 
ATOM     14  O   UNL     1       4.592   2.157  20.377  0.00  0.00    +0.000 OA
ENDBRANCH  10  13
BRANCH  10  15
ATOM     15  C   UNL     1       1.595   3.651  20.652  0.00  0.00    +0.000 C 
ATOM     16  C   UNL     1       1.384   2.571  21.685  0.00  0.00    +0.000 C 
ATOM     17  O   UNL     1       0.698   4.472  20.442  0.00  0.00    +0.000 OA
ENDBRANCH  10  15
ENDBRANCH   1  11
BRANCH   3  18
ATOM     18  O   UNL     1       4.983   6.938  15.395  0.00  0.00    +0.000 OA
ATOM     19  H   UNL     1       5.423   6.401  14.713  0.00  0.00    +0.000 HD
ENDBRANCH   3  18
BRANCH   4  20
ATOM     20  O   UNL     1       7.463   6.147  16.027  0.00  0.00    +0.000 OA
ATOM     21  H   UNL     1       7.373   5.409  15.388  0.00  0.00    +0.000 HD
ENDBRANCH   4  20
TORSDOF 6
ENDMDL
MODEL 5
REMARK VINA RESULT:      -7.3      2.294      5.951
REMARK  Name = 
REMARK  8 active torsions:
REMARK  status: ('A' for Active; 'I' for Inactive)
REMARK    1  A    between atoms: C_1  and  C_2
REMARK    2  A    between atoms: C_2  and  C_4
REMARK    3  A    between atoms: C_4  and  C_17
REMARK    4  A    between atoms: C_5  and  C_6
REMARK    5  A    between atoms: C_8  and  O_9
REMARK    6  A    between atoms: C_10  and  O_11
REMARK    7  A    between atoms: C_12  and  N_13
REMARK    8  A    between atoms: C_17  and  C_18
REMARK                            x       y       z     vdW  Elec       q    Type
REMARK                         _______ _______ _______ _____ _____    ______ ____
ROOT
ATOM      1  C   UNL     1       4.411   5.108  18.199  0.00  0.00    +0.000 A 
ATOM      2  C   UNL     1       4.294   4.520  16.932  0.00  0.00    +0.000 A 
ATOM      3  C   UNL     1       5.293   4.731  15.985  0.00  0.00    +0.000 A 
ATOM      4  C   UNL     1       6.395   5.539  16.269  0.00  0.00    +0.000 A 
ATOM      5  C   UNL     1       6.465   6.170  17.504  0.00  0.00    +0.000 A 
ATOM      6  C   UNL     1       5.477   5.973  18.476  0.00  0.00    +0.000 A 
ENDROOT
BRANCH   5   7
ATOM      7  N   UNL     1       7.615   6.979  17.850  0.00  0.00    +0.000 N 
ATOM      8  O   UNL     1       7.858   7.963  17.147  0.00  0.00    +0.000 OA
ATOM      9  O   UNL     1       8.222   6.658  18.884  0.00  0.00    +0.000 OA
ENDBRANCH   5   7
BRANCH   1  11
ATOM     10  C   UNL     1       3.307   3.559  19.862  0.00  0.00    +0.000 C 
ATOM     11  C   UNL     1       3.463   4.759  19.256  0.00  0.00    +0.000 C 
BRANCH  10  13
ATOM     12  C   UNL     1       3.731   1.336  18.520  0.00  0.00    +0.000 C 
ATOM     13  C   UNL     1       4.108   2.313  19.604  0.00  0.00    +0.000 C 
ATOM     14  O   UNL     1       5.088   2.073  20.312  0.00  0.00    +0.000 OA
ENDBRANCH  10  13
BRANCH  10  15
ATOM     15  C   UNL     1       2.146   3.517  20.822  0.00  0.00    +0.000 C 
ATOM     16  C   UNL     1       0.750   3.824  20.336  0.00  0.00    +0.000 C 
ATOM     17  O   UNL     1       2.321   3.207  22.004  0.00  0.00    +0.000 OA
ENDBRANCH  10  15
ENDBRANCH   1  11
BRANCH   3  18
ATOM     18  O   UNL     1       5.262   4.114  14.765  0.00  0.00    +0.000 OA
ATOM     19  H   UNL     1       4.347   3.851  14.565  0.00  0.00    +0.000 HD
ENDBRANCH   3  18
BRANCH   4  20
ATOM     20  O   UNL     1       7.392   5.633  15.341  0.00  0.00    +0.000 OA
ATOM     21  H   UNL     1       7.072   5.141  14.557  0.00  0.00    +0.000 HD
ENDBRANCH   4  20
TORSDOF 6
ENDMDL
MODEL 6
REMARK VINA RESULT:      -7.3      2.331      6.145
REMARK  Name = 
REMARK  8 active torsions:
REMARK  status: ('A' for Active; 'I' for Inactive)
REMARK    1  A    between atoms: C_1  and  C_2
REMARK    2  A    between atoms: C_2  and  C_4
REMARK    3  A    between atoms: C_4  and  C_17
REMARK    4  A    between atoms: C_5  and  C_6
REMARK    5  A    between atoms: C_8  and  O_9
REMARK    6  A    between atoms: C_10  and  O_11
REMARK    7  A    between atoms: C_12  and  N_13
REMARK    8  A    between atoms: C_17  and  C_18
REMARK                            x       y       z     vdW  Elec       q    Type
REMARK                         _______ _______ _______ _____ _____    ______ ____
ROOT
ATOM      1  C   UNL     1       5.188   4.108  18.100  0.00  0.00    +0.000 A 
ATOM      2  C   UNL     1       5.226   3.539  16.819  0.00  0.00    +0.000 A 
ATOM      3  C   UNL     1       6.064   4.088  15.852  0.00  0.00    +0.000 A 
ATOM      4  C   UNL     1       6.846   5.210  16.130  0.00  0.00    +0.000 A 
ATOM      5  C   UNL     1       6.747   5.804  17.381  0.00  0.00    +0.000 A 
ATOM      6  C   UNL     1       5.916   5.272  18.374  0.00  0.00    +0.000 A 
ENDROOT
BRANCH   5   7
ATOM      7  N   UNL     1       7.576   6.942  17.720  0.00  0.00    +0.000 N 
ATOM      8  O   UNL     1       7.523   7.932  16.985  0.00  0.00    +0.000 OA
ATOM      9  O   UNL     1       8.220   6.858  18.777  0.00  0.00    +0.000 OA
ENDBRANCH   5   7
BRANCH   1  11
ATOM     10  C   UNL     1       3.180   3.693  19.578  0.00  0.00    +0.000 C 
ATOM     11  C   UNL     1       4.447   3.443  19.171  0.00  0.00    +0.000 C 
BRANCH  10  13
ATOM     12  C   UNL     1       1.454   4.418  17.729  0.00  0.00    +0.000 C 
ATOM     13  C   UNL     1       2.232   4.700  18.989  0.00  0.00    +0.000 C 
ATOM     14  O   UNL     1       2.103   5.796  19.540  0.00  0.00    +0.000 OA
ENDBRANCH  10  13
BRANCH  10  15
ATOM     15  C   UNL     1       2.774   2.905  20.797  0.00  0.00    +0.000 C 
ATOM     16  C   UNL     1       1.323   2.835  21.205  0.00  0.00    +0.000 C 
ATOM     17  O   UNL     1       3.618   2.290  21.455  0.00  0.00    +0.000 OA
ENDBRANCH  10  15
ENDBRANCH   1  11
BRANCH   3  18
ATOM     18  O   UNL     1       6.195   3.520  14.614  0.00  0.00    +0.000 OA
ATOM     19  H   UNL     1       6.325   4.224  13.954  0.00  0.00    +0.000 HD
ENDBRANCH   3  18
BRANCH   4  20
ATOM     20  O   UNL     1       7.721   5.648  15.178  0.00  0.00    +0.000 OA
ATOM     21  H   UNL     1       8.288   4.878  14.963  0.00  0.00    +0.000 HD
ENDBRANCH   4  20
TORSDOF 6
ENDMDL
MODEL 7
REMARK VINA RESULT:      -7.3      2.407      5.768
REMARK  Name = 
REMARK  8 active torsions:
REMARK  status: ('A' for Active; 'I' for Inactive)
REMARK    1  A    between atoms: C_1  and  C_2
REMARK    2  A    between atoms: C_2  and  C_4
REMARK    3  A    between atoms: C_4  and  C_17
REMARK    4  A    between atoms: C_5  and  C_6
REMARK    5  A    between atoms: C_8  and  O_9
REMARK    6  A    between atoms: C_10  and  O_11
REMARK    7  A    between atoms: C_12  and  N_13
REMARK    8  A    between atoms: C_17  and  C_18
REMARK                            x       y       z     vdW  Elec       q    Type
REMARK                         _______ _______ _______ _____ _____    ______ ____
ROOT
ATOM      1  C   UNL     1       4.377   5.097  18.742  0.00  0.00    +0.000 A 
ATOM      2  C   UNL     1       4.166   5.137  17.357  0.00  0.00    +0.000 A 
ATOM      3  C   UNL     1       5.217   5.489  16.515  0.00  0.00    +0.000 A 
ATOM      4  C   UNL     1       6.469   5.829  17.029  0.00  0.00    +0.000 A 
ATOM      5  C   UNL     1       6.645   5.852  18.407  0.00  0.00    +0.000 A 
ATOM      6  C   UNL     1       5.607   5.498  19.277  0.00  0.00    +0.000 A 
ENDROOT
BRANCH   5   7
ATOM      7  N   UNL     1       7.942   6.156  18.975  0.00  0.00    +0.000 N 
ATOM      8  O   UNL     1       8.510   5.270  19.620  0.00  0.00    +0.000 OA
ATOM      9  O   UNL     1       8.416   7.268  18.697  0.00  0.00    +0.000 OA
ENDBRANCH   5   7
BRANCH   1  11
ATOM     10  C   UNL     1       3.183   3.286  20.039  0.00  0.00    +0.000 C 
ATOM     11  C   UNL     1       3.338   4.565  19.623  0.00  0.00    +0.000 C 
BRANCH  10  13
ATOM     12  C   UNL     1       3.831   1.250  18.504  0.00  0.00    +0.000 C 
ATOM     13  C   UNL     1       4.075   2.122  19.709  0.00  0.00    +0.000 C 
ATOM     14  O   UNL     1       5.020   1.860  20.456  0.00  0.00    +0.000 OA
ENDBRANCH  10  13
BRANCH  10  15
ATOM     15  C   UNL     1       1.927   3.064  20.842  0.00  0.00    +0.000 C 
ATOM     16  C   UNL     1       0.576   3.340  20.227  0.00  0.00    +0.000 C 
ATOM     17  O   UNL     1       1.989   2.631  21.996  0.00  0.00    +0.000 OA
ENDBRANCH  10  15
ENDBRANCH   1  11
BRANCH   3  18
ATOM     18  O   UNL     1       5.082   5.464  15.154  0.00  0.00    +0.000 OA
ATOM     19  H   UNL     1       5.841   5.921  14.751  0.00  0.00    +0.000 HD
ENDBRANCH   3  18
BRANCH   4  20
ATOM     20  O   UNL     1       7.490   6.073  16.157  0.00  0.00    +0.000 OA
ATOM     21  H   UNL     1       7.113   5.936  15.262  0.00  0.00    +0.000 HD
ENDBRANCH   4  20
TORSDOF 6
ENDMDL
MODEL 8
REMARK VINA RESULT:      -7.3      1.567      2.709
REMARK  Name = 
REMARK  8 active torsions:
REMARK  status: ('A' for Active; 'I' for Inactive)
REMARK    1  A    between atoms: C_1  and  C_2
REMARK    2  A    between atoms: C_2  and  C_4
REMARK    3  A    between atoms: C_4  and  C_17
REMARK    4  A    between atoms: C_5  and  C_6
REMARK    5  A    between atoms: C_8  and  O_9
REMARK    6  A    between atoms: C_10  and  O_11
REMARK    7  A    between atoms: C_12  and  N_13
REMARK    8  A    between atoms: C_17  and  C_18
REMARK                            x       y       z     vdW  Elec       q    Type
REMARK                         _______ _______ _______ _____ _____    ______ ____
ROOT
ATOM      1  C   UNL     1       4.047   4.119  17.222  0.00  0.00    +0.000 A 
ATOM      2  C   UNL     1       3.477   2.884  17.558  0.00  0.00    +0.000 A 
ATOM      3  C   UNL     1       2.473   2.833  18.521  0.00  0.00    +0.000 A 
ATOM      4  C   UNL     1       2.045   3.989  19.176  0.00  0.00    +0.000 A 
ATOM      5  C   UNL     1       2.665   5.196  18.883  0.00  0.00    +0.000 A 
ATOM      6  C   UNL     1       3.675   5.277  17.916  0.00  0.00    +0.000 A 
ENDROOT
BRANCH   5   7
ATOM      7  N   UNL     1       2.217   6.422  19.509  0.00  0.00    +0.000 N 
ATOM      8  O   UNL     1       1.836   6.363  20.681  0.00  0.00    +0.000 OA
ATOM      9  O   UNL     1       2.328   7.457  18.834  0.00  0.00    +0.000 OA
ENDBRANCH   5   7
BRANCH   1  11
ATOM     10  C   UNL     1       6.255   4.656  16.115  0.00  0.00    +0.000 C 
ATOM     11  C   UNL     1       4.976   4.212  16.097  0.00  0.00    +0.000 C 
BRANCH  10  13
ATOM     12  C   UNL     1       7.163   6.591  17.649  0.00  0.00    +0.000 C 
ATOM     13  C   UNL     1       7.023   5.127  17.318  0.00  0.00    +0.000 C 
ATOM     14  O   UNL     1       7.572   4.294  18.043  0.00  0.00    +0.000 OA
ENDBRANCH  10  13
BRANCH  10  15
ATOM     15  C   UNL     1       6.883   4.735  14.747  0.00  0.00    +0.000 C 
ATOM     16  C   UNL     1       6.285   3.966  13.594  0.00  0.00    +0.000 C 
ATOM     17  O   UNL     1       7.872   5.446  14.552  0.00  0.00    +0.000 OA
ENDBRANCH  10  15
ENDBRANCH   1  11
BRANCH   3  18
ATOM     18  O   UNL     1       1.832   1.663  18.825  0.00  0.00    +0.000 OA
ATOM     19  H   UNL     1       1.112   1.521  18.185  0.00  0.00    +0.000 HD
ENDBRANCH   3  18
BRANCH   4  20
ATOM     20  O   UNL     1       0.992   3.897  20.041  0.00  0.00    +0.000 OA
ATOM     21  H   UNL     1       0.610   4.798  20.090  0.00  0.00    +0.000 HD
ENDBRANCH   4  20
TORSDOF 6
ENDMDL
MODEL 9
REMARK VINA RESULT:      -7.3      2.339      5.948
REMARK  Name = 
REMARK  8 active torsions:
REMARK  status: ('A' for Active; 'I' for Inactive)
REMARK    1  A    between atoms: C_1  and  C_2
REMARK    2  A    between atoms: C_2  and  C_4
REMARK    3  A    between atoms: C_4  and  C_17
REMARK    4  A    between atoms: C_5  and  C_6
REMARK    5  A    between atoms: C_8  and  O_9
REMARK    6  A    between atoms: C_10  and  O_11
REMARK    7  A    between atoms: C_12  and  N_13
REMARK    8  A    between atoms: C_17  and  C_18
REMARK                            x       y       z     vdW  Elec       q    Type
REMARK                         _______ _______ _______ _____ _____    ______ ____
ROOT
ATOM      1  C   UNL     1       4.292   5.112  17.919  0.00  0.00    +0.000 A 
ATOM      2  C   UNL     1       4.284   4.515  16.651  0.00  0.00    +0.000 A 
ATOM      3  C   UNL     1       5.360   4.721  15.791  0.00  0.00    +0.000 A 
ATOM      4  C   UNL     1       6.432   5.533  16.162  0.00  0.00    +0.000 A 
ATOM      5  C   UNL     1       6.395   6.173  17.395  0.00  0.00    +0.000 A 
ATOM      6  C   UNL     1       5.328   5.981  18.280  0.00  0.00    +0.000 A 
ENDROOT
BRANCH   5   7
ATOM      7  N   UNL     1       7.510   6.987  17.831  0.00  0.00    +0.000 N 
ATOM      8  O   UNL     1       8.130   6.624  18.834  0.00  0.00    +0.000 OA
ATOM      9  O   UNL     1       7.804   7.951  17.107  0.00  0.00    +0.000 OA
ENDBRANCH   5   7
BRANCH   1  11
ATOM     10  C   UNL     1       3.094   3.593  19.545  0.00  0.00    +0.000 C 
ATOM     11  C   UNL     1       3.257   4.768  18.893  0.00  0.00    +0.000 C 
BRANCH  10  13
ATOM     12  C   UNL     1       3.694   1.284  18.437  0.00  0.00    +0.000 C 
ATOM     13  C   UNL     1       3.972   2.378  19.436  0.00  0.00    +0.000 C 
ATOM     14  O   UNL     1       4.934   2.263  20.198  0.00  0.00    +0.000 OA
ENDBRANCH  10  13
BRANCH  10  15
ATOM     15  C   UNL     1       1.844   3.541  20.386  0.00  0.00    +0.000 C 
ATOM     16  C   UNL     1       1.839   2.782  21.691  0.00  0.00    +0.000 C 
ATOM     17  O   UNL     1       0.824   4.137  20.029  0.00  0.00    +0.000 OA
ENDBRANCH  10  15
ENDBRANCH   1  11
BRANCH   3  18
ATOM     18  O   UNL     1       5.434   4.096  14.577  0.00  0.00    +0.000 OA
ATOM     19  H   UNL     1       4.764   3.390  14.541  0.00  0.00    +0.000 HD
ENDBRANCH   3  18
BRANCH   4  20
ATOM     20  O   UNL     1       7.505   5.623  15.322  0.00  0.00    +0.000 OA
ATOM     21  H   UNL     1       7.766   6.568  15.325  0.00  0.00    +0.000 HD
ENDBRANCH   4  20
TORSDOF 6
ENDMDL
