MODEL 1
REMARK VINA RESULT:      -7.5      0.000      0.000
REMARK  Name = 
REMARK  4 active torsions:
REMARK  status: ('A' for Active; 'I' for Inactive)
REMARK    1  A    between atoms: C_1  and  C_2
REMARK    2  A    between atoms: N_5  and  C_6
REMARK    3  A    between atoms: C_6  and  C_7
REMARK    4  A    between atoms: C_15  and  C_16
REMARK                            x       y       z     vdW  Elec       q    Type
REMARK                         _______ _______ _______ _____ _____    ______ ____
ROOT
ATOM      1  C   UNL     1       7.767   7.713  17.623  0.00  0.00    +0.000 C 
ATOM      2  C   UNL     1       6.951   6.655  16.951  0.00  0.00    +0.000 A 
ATOM      3  N   UNL     1       5.755   6.366  17.466  0.00  0.00    +0.000 NA
ATOM      4  C   UNL     1       5.052   5.440  16.825  0.00  0.00    +0.000 A 
ATOM      5  N   UNL     1       3.779   5.217  17.305  0.00  0.00    +0.000 N 
ATOM      6  N   UNL     1       5.481   4.803  15.743  0.00  0.00    +0.000 NA
ATOM      7  C   UNL     1       6.687   5.159  15.283  0.00  0.00    +0.000 A 
ATOM      8  N   UNL     1       7.466   6.083  15.863  0.00  0.00    +0.000 NA
ATOM      9  H   UNL     1       3.694   5.636  18.223  0.00  0.00    +0.000 HD
ENDROOT
BRANCH   7  10
ATOM     10  C   UNL     1       7.194   4.498  14.014  0.00  0.00    +0.000 C 
ATOM     11  F   UNL     1       6.207   3.915  13.271  0.00  0.00    +0.000 F 
ATOM     12  F   UNL     1       7.833   5.361  13.168  0.00  0.00    +0.000 F 
ENDBRANCH   7  10
BRANCH   5  13
ATOM     13  C   UNL     1       3.233   3.884  17.173  0.00  0.00    +0.000 C 
BRANCH  13  14
ATOM     14  C   UNL     1       2.651   3.461  18.505  0.00  0.00    +0.000 A 
ATOM     15  C   UNL     1       3.510   3.044  19.537  0.00  0.00    +0.000 A 
ATOM     16  C   UNL     1       3.005   2.670  20.782  0.00  0.00    +0.000 A 
ATOM     17  C   UNL     1       1.633   2.716  21.009  0.00  0.00    +0.000 A 
ATOM     18 CL   UNL     1       1.006   2.262  22.547  0.00  0.00    +0.000 Cl
ATOM     19  C   UNL     1       0.764   3.129  20.000  0.00  0.00    +0.000 A 
ATOM     20  C   UNL     1       1.270   3.500  18.750  0.00  0.00    +0.000 A 
ENDBRANCH  13  14
ENDBRANCH   5  13
TORSDOF 3
ENDMDL
MODEL 2
REMARK VINA RESULT:      -7.5      0.148      1.119
REMARK  Name = 
REMARK  4 active torsions:
REMARK  status: ('A' for Active; 'I' for Inactive)
REMARK    1  A    between atoms: C_1  and  C_2
REMARK    2  A    between atoms: N_5  and  C_6
REMARK    3  A    between atoms: C_6  and  C_7
REMARK    4  A    between atoms: C_15  and  C_16
REMARK                            x       y       z     vdW  Elec       q    Type
REMARK                         _______ _______ _______ _____ _____    ______ ____
ROOT
ATOM      1  C   UNL     1       7.832   7.633  17.674  0.00  0.00    +0.000 C 
ATOM      2  C   UNL     1       6.947   6.633  16.998  0.00  0.00    +0.000 A 
ATOM      3  N   UNL     1       5.742   6.410  17.522  0.00  0.00    +0.000 NA
ATOM      4  C   UNL     1       4.978   5.536  16.878  0.00  0.00    +0.000 A 
ATOM      5  N   UNL     1       3.698   5.385  17.369  0.00  0.00    +0.000 N 
ATOM      6  N   UNL     1       5.357   4.886  15.786  0.00  0.00    +0.000 NA
ATOM      7  C   UNL     1       6.579   5.174  15.317  0.00  0.00    +0.000 A 
ATOM      8  N   UNL     1       7.417   6.043  15.899  0.00  0.00    +0.000 NA
ATOM      9  H   UNL     1       3.647   5.797  18.292  0.00  0.00    +0.000 HD
ENDROOT
BRANCH   7  10
ATOM     10  C   UNL     1       7.033   4.498  14.036  0.00  0.00    +0.000 C 
ATOM     11  F   UNL     1       6.006   3.973  13.303  0.00  0.00    +0.000 F 
ATOM     12  F   UNL     1       7.704   5.334  13.188  0.00  0.00    +0.000 F 
ENDBRANCH   7  10
BRANCH   5  13
ATOM     13  C   UNL     1       3.072   4.088  17.229  0.00  0.00    +0.000 C 
BRANCH  13  14
ATOM     14  C   UNL     1       2.576   3.635  18.585  0.00  0.00    +0.000 A 
ATOM     15  C   UNL     1       1.195   3.621  18.850  0.00  0.00    +0.000 A 
ATOM     16  C   UNL     1       0.706   3.186  20.082  0.00  0.00    +0.000 A 
ATOM     17  C   UNL     1       1.596   2.756  21.061  0.00  0.00    +0.000 A 
ATOM     18 CL   UNL     1       0.997   2.213  22.580  0.00  0.00    +0.000 Cl
ATOM     19  C   UNL     1       2.969   2.760  20.818  0.00  0.00    +0.000 A 
ATOM     20  C   UNL     1       3.460   3.199  19.583  0.00  0.00    +0.000 A 
ENDBRANCH  13  14
ENDBRANCH   5  13
TORSDOF 3
ENDMDL
MODEL 3
REMARK VINA RESULT:      -7.4      1.977      2.778
REMARK  Name = 
REMARK  4 active torsions:
REMARK  status: ('A' for Active; 'I' for Inactive)
REMARK    1  A    between atoms: C_1  and  C_2
REMARK    2  A    between atoms: N_5  and  C_6
REMARK    3  A    between atoms: C_6  and  C_7
REMARK    4  A    between atoms: C_15  and  C_16
REMARK                            x       y       z     vdW  Elec       q    Type
REMARK                         _______ _______ _______ _____ _____    ______ ____
ROOT
ATOM      1  C   UNL     1       7.129   4.582  13.767  0.00  0.00    +0.000 C 
ATOM      2  C   UNL     1       6.533   5.056  15.055  0.00  0.00    +0.000 A 
ATOM      3  N   UNL     1       5.325   4.600  15.389  0.00  0.00    +0.000 NA
ATOM      4  C   UNL     1       4.843   5.023  16.552  0.00  0.00    +0.000 A 
ATOM      5  N   UNL     1       3.639   4.472  16.936  0.00  0.00    +0.000 N 
ATOM      6  N   UNL     1       5.482   5.863  17.356  0.00  0.00    +0.000 NA
ATOM      7  C   UNL     1       6.694   6.266  16.952  0.00  0.00    +0.000 A 
ATOM      8  N   UNL     1       7.260   5.890  15.797  0.00  0.00    +0.000 NA
ATOM      9  H   UNL     1       3.215   4.015  16.138  0.00  0.00    +0.000 HD
ENDROOT
BRANCH   7  10
ATOM     10  C   UNL     1       7.487   7.182  17.867  0.00  0.00    +0.000 C 
ATOM     11  F   UNL     1       8.324   6.513  18.715  0.00  0.00    +0.000 F 
ATOM     12  F   UNL     1       8.275   8.073  17.195  0.00  0.00    +0.000 F 
ENDBRANCH   7  10
BRANCH   5  13
ATOM     13  C   UNL     1       2.750   5.286  17.735  0.00  0.00    +0.000 C 
BRANCH  13  14
ATOM     14  C   UNL     1       2.295   4.482  18.934  0.00  0.00    +0.000 A 
ATOM     15  C   UNL     1       2.698   4.872  20.224  0.00  0.00    +0.000 A 
ATOM     16  C   UNL     1       2.276   4.165  21.350  0.00  0.00    +0.000 A 
ATOM     17  C   UNL     1       1.442   3.063  21.197  0.00  0.00    +0.000 A 
ATOM     18 CL   UNL     1       0.913   2.192  22.584  0.00  0.00    +0.000 Cl
ATOM     19  C   UNL     1       1.029   2.661  19.928  0.00  0.00    +0.000 A 
ATOM     20  C   UNL     1       1.454   3.368  18.797  0.00  0.00    +0.000 A 
ENDBRANCH  13  14
ENDBRANCH   5  13
TORSDOF 3
ENDMDL
MODEL 4
REMARK VINA RESULT:      -7.3      2.137      3.027
REMARK  Name = 
REMARK  4 active torsions:
REMARK  status: ('A' for Active; 'I' for Inactive)
REMARK    1  A    between atoms: C_1  and  C_2
REMARK    2  A    between atoms: N_5  and  C_6
REMARK    3  A    between atoms: C_6  and  C_7
REMARK    4  A    between atoms: C_15  and  C_16
REMARK                            x       y       z     vdW  Elec       q    Type
REMARK                         _______ _______ _______ _____ _____    ______ ____
ROOT
ATOM      1  C   UNL     1       7.026   4.531  13.619  0.00  0.00    +0.000 C 
ATOM      2  C   UNL     1       6.511   5.065  14.919  0.00  0.00    +0.000 A 
ATOM      3  N   UNL     1       5.307   4.662  15.327  0.00  0.00    +0.000 NA
ATOM      4  C   UNL     1       4.899   5.138  16.497  0.00  0.00    +0.000 A 
ATOM      5  N   UNL     1       3.698   4.641  16.958  0.00  0.00    +0.000 N 
ATOM      6  N   UNL     1       5.605   5.980  17.240  0.00  0.00    +0.000 NA
ATOM      7  C   UNL     1       6.807   6.327  16.765  0.00  0.00    +0.000 A 
ATOM      8  N   UNL     1       7.303   5.896  15.596  0.00  0.00    +0.000 NA
ATOM      9  H   UNL     1       3.219   4.175  16.197  0.00  0.00    +0.000 HD
ENDROOT
BRANCH   7  10
ATOM     10  C   UNL     1       7.676   7.243  17.609  0.00  0.00    +0.000 C 
ATOM     11  F   UNL     1       7.209   8.525  17.678  0.00  0.00    +0.000 F 
ATOM     12  F   UNL     1       7.807   6.826  18.904  0.00  0.00    +0.000 F 
ENDBRANCH   7  10
BRANCH   5  13
ATOM     13  C   UNL     1       2.878   5.511  17.773  0.00  0.00    +0.000 C 
BRANCH  13  14
ATOM     14  C   UNL     1       2.371   4.728  18.966  0.00  0.00    +0.000 A 
ATOM     15  C   UNL     1       1.524   3.625  18.762  0.00  0.00    +0.000 A 
ATOM     16  C   UNL     1       1.060   2.870  19.840  0.00  0.00    +0.000 A 
ATOM     17  C   UNL     1       1.445   3.210  21.133  0.00  0.00    +0.000 A 
ATOM     18 CL   UNL     1       0.881   2.277  22.465  0.00  0.00    +0.000 Cl
ATOM     19  C   UNL     1       2.286   4.298  21.356  0.00  0.00    +0.000 A 
ATOM     20  C   UNL     1       2.749   5.058  20.276  0.00  0.00    +0.000 A 
ENDBRANCH  13  14
ENDBRANCH   5  13
TORSDOF 3
ENDMDL
MODEL 5
REMARK VINA RESULT:      -7.2      2.339      3.029
REMARK  Name = 
REMARK  4 active torsions:
REMARK  status: ('A' for Active; 'I' for Inactive)
REMARK    1  A    between atoms: C_1  and  C_2
REMARK    2  A    between atoms: N_5  and  C_6
REMARK    3  A    between atoms: C_6  and  C_7
REMARK    4  A    between atoms: C_15  and  C_16
REMARK                            x       y       z     vdW  Elec       q    Type
REMARK                         _______ _______ _______ _____ _____    ______ ____
ROOT
ATOM      1  C   UNL     1       7.224   4.823  13.995  0.00  0.00    +0.000 C 
ATOM      2  C   UNL     1       6.648   5.062  15.356  0.00  0.00    +0.000 A 
ATOM      3  N   UNL     1       5.328   4.953  15.504  0.00  0.00    +0.000 NA
ATOM      4  C   UNL     1       4.861   5.146  16.732  0.00  0.00    +0.000 A 
ATOM      5  N   UNL     1       3.508   4.936  16.897  0.00  0.00    +0.000 N 
ATOM      6  N   UNL     1       5.623   5.449  17.774  0.00  0.00    +0.000 NA
ATOM      7  C   UNL     1       6.940   5.529  17.544  0.00  0.00    +0.000 A 
ATOM      8  N   UNL     1       7.501   5.348  16.340  0.00  0.00    +0.000 NA
ATOM      9  H   UNL     1       3.065   4.903  15.987  0.00  0.00    +0.000 HD
ENDROOT
BRANCH   7  10
ATOM     10  C   UNL     1       7.858   5.815  18.719  0.00  0.00    +0.000 C 
ATOM     11  F   UNL     1       8.367   7.083  18.715  0.00  0.00    +0.000 F 
ATOM     12  F   UNL     1       7.250   5.664  19.933  0.00  0.00    +0.000 F 
ENDBRANCH   7  10
BRANCH   5  13
ATOM     13  C   UNL     1       2.821   5.722  17.898  0.00  0.00    +0.000 C 
BRANCH  13  14
ATOM     14  C   UNL     1       2.360   4.803  19.010  0.00  0.00    +0.000 A 
ATOM     15  C   UNL     1       2.753   5.065  20.334  0.00  0.00    +0.000 A 
ATOM     16  C   UNL     1       2.325   4.250  21.383  0.00  0.00    +0.000 A 
ATOM     17  C   UNL     1       1.494   3.167  21.116  0.00  0.00    +0.000 A 
ATOM     18 CL   UNL     1       0.958   2.163  22.407  0.00  0.00    +0.000 Cl
ATOM     19  C   UNL     1       1.092   2.891  19.810  0.00  0.00    +0.000 A 
ATOM     20  C   UNL     1       1.523   3.706  18.758  0.00  0.00    +0.000 A 
ENDBRANCH  13  14
ENDBRANCH   5  13
TORSDOF 3
ENDMDL
MODEL 6
REMARK VINA RESULT:      -7.0      1.107      1.301
REMARK  Name = 
REMARK  4 active torsions:
REMARK  status: ('A' for Active; 'I' for Inactive)
REMARK    1  A    between atoms: C_1  and  C_2
REMARK    2  A    between atoms: N_5  and  C_6
REMARK    3  A    between atoms: C_6  and  C_7
REMARK    4  A    between atoms: C_15  and  C_16
REMARK                            x       y       z     vdW  Elec       q    Type
REMARK                         _______ _______ _______ _____ _____    ______ ____
ROOT
ATOM      1  C   UNL     1       8.113   6.820  18.508  0.00  0.00    +0.000 C 
ATOM      2  C   UNL     1       6.983   6.284  17.686  0.00  0.00    +0.000 A 
ATOM      3  N   UNL     1       5.740   6.490  18.124  0.00  0.00    +0.000 NA
ATOM      4  C   UNL     1       4.766   6.023  17.353  0.00  0.00    +0.000 A 
ATOM      5  N   UNL     1       3.484   6.325  17.761  0.00  0.00    +0.000 N 
ATOM      6  N   UNL     1       4.970   5.368  16.218  0.00  0.00    +0.000 NA
ATOM      7  C   UNL     1       6.246   5.212  15.843  0.00  0.00    +0.000 A 
ATOM      8  N   UNL     1       7.293   5.652  16.555  0.00  0.00    +0.000 NA
ATOM      9  H   UNL     1       3.510   6.651  18.719  0.00  0.00    +0.000 HD
ENDROOT
BRANCH   7  10
ATOM     10  C   UNL     1       6.527   4.520  14.521  0.00  0.00    +0.000 C 
ATOM     11  F   UNL     1       5.404   4.290  13.778  0.00  0.00    +0.000 F 
ATOM     12  F   UNL     1       7.372   5.222  13.708  0.00  0.00    +0.000 F 
ENDBRANCH   7  10
BRANCH   5  13
ATOM     13  C   UNL     1       2.437   5.376  17.452  0.00  0.00    +0.000 C 
BRANCH  13  14
ATOM     14  C   UNL     1       2.092   4.603  18.708  0.00  0.00    +0.000 A 
ATOM     15  C   UNL     1       1.623   3.282  18.602  0.00  0.00    +0.000 A 
ATOM     16  C   UNL     1       1.319   2.536  19.742  0.00  0.00    +0.000 A 
ATOM     17  C   UNL     1       1.488   3.105  21.000  0.00  0.00    +0.000 A 
ATOM     18 CL   UNL     1       1.121   2.186  22.408  0.00  0.00    +0.000 Cl
ATOM     19  C   UNL     1       1.954   4.412  21.126  0.00  0.00    +0.000 A 
ATOM     20  C   UNL     1       2.256   5.162  19.984  0.00  0.00    +0.000 A 
ENDBRANCH  13  14
ENDBRANCH   5  13
TORSDOF 3
ENDMDL
MODEL 7
REMARK VINA RESULT:      -6.9      2.503      3.389
REMARK  Name = 
REMARK  4 active torsions:
REMARK  status: ('A' for Active; 'I' for Inactive)
REMARK    1  A    between atoms: C_1  and  C_2
REMARK    2  A    between atoms: N_5  and  C_6
REMARK    3  A    between atoms: C_6  and  C_7
REMARK    4  A    between atoms: C_15  and  C_16
REMARK                            x       y       z     vdW  Elec       q    Type
REMARK                         _______ _______ _______ _____ _____    ______ ____
ROOT
ATOM      1  C   UNL     1       8.956   5.998  12.655  0.00  0.00    +0.000 C 
ATOM      2  C   UNL     1       7.779   5.179  13.084  0.00  0.00    +0.000 A 
ATOM      3  N   UNL     1       7.377   5.280  14.352  0.00  0.00    +0.000 NA
ATOM      4  C   UNL     1       6.314   4.558  14.685  0.00  0.00    +0.000 A 
ATOM      5  N   UNL     1       5.845   4.742  15.969  0.00  0.00    +0.000 N 
ATOM      6  N   UNL     1       5.670   3.758  13.846  0.00  0.00    +0.000 NA
ATOM      7  C   UNL     1       6.130   3.722  12.589  0.00  0.00    +0.000 A 
ATOM      8  N   UNL     1       7.194   4.417  12.162  0.00  0.00    +0.000 NA
ATOM      9  H   UNL     1       6.550   5.224  16.512  0.00  0.00    +0.000 HD
ENDROOT
BRANCH   7  10
ATOM     10  C   UNL     1       5.390   2.865  11.578  0.00  0.00    +0.000 C 
ATOM     11  F   UNL     1       5.640   1.528  11.710  0.00  0.00    +0.000 F 
ATOM     12  F   UNL     1       4.031   2.995  11.645  0.00  0.00    +0.000 F 
ENDBRANCH   7  10
BRANCH   5  13
ATOM     13  C   UNL     1       5.213   3.617  16.623  0.00  0.00    +0.000 C 
BRANCH  13  14
ATOM     14  C   UNL     1       4.301   4.135  17.715  0.00  0.00    +0.000 A 
ATOM     15  C   UNL     1       3.578   5.323  17.508  0.00  0.00    +0.000 A 
ATOM     16  C   UNL     1       2.712   5.814  18.487  0.00  0.00    +0.000 A 
ATOM     17  C   UNL     1       2.557   5.115  19.680  0.00  0.00    +0.000 A 
ATOM     18 CL   UNL     1       1.484   5.712  20.886  0.00  0.00    +0.000 Cl
ATOM     19  C   UNL     1       3.263   3.934  19.903  0.00  0.00    +0.000 A 
ATOM     20  C   UNL     1       4.134   3.444  18.923  0.00  0.00    +0.000 A 
ENDBRANCH  13  14
ENDBRANCH   5  13
TORSDOF 3
ENDMDL
MODEL 8
REMARK VINA RESULT:      -6.9      2.486      3.375
REMARK  Name = 
REMARK  4 active torsions:
REMARK  status: ('A' for Active; 'I' for Inactive)
REMARK    1  A    between atoms: C_1  and  C_2
REMARK    2  A    between atoms: N_5  and  C_6
REMARK    3  A    between atoms: C_6  and  C_7
REMARK    4  A    between atoms: C_15  and  C_16
REMARK                            x       y       z     vdW  Elec       q    Type
REMARK                         _______ _______ _______ _____ _____    ______ ____
ROOT
ATOM      1  C   UNL     1       9.006   5.927  12.668  0.00  0.00    +0.000 C 
ATOM      2  C   UNL     1       7.784   5.171  13.088  0.00  0.00    +0.000 A 
ATOM      3  N   UNL     1       7.345   5.339  14.335  0.00  0.00    +0.000 NA
ATOM      4  C   UNL     1       6.244   4.672  14.660  0.00  0.00    +0.000 A 
ATOM      5  N   UNL     1       5.740   4.926  15.918  0.00  0.00    +0.000 N 
ATOM      6  N   UNL     1       5.597   3.863  13.831  0.00  0.00    +0.000 NA
ATOM      7  C   UNL     1       6.097   3.758  12.593  0.00  0.00    +0.000 A 
ATOM      8  N   UNL     1       7.201   4.394  12.176  0.00  0.00    +0.000 NA
ATOM      9  H   UNL     1       6.445   5.402  16.466  0.00  0.00    +0.000 HD
ENDROOT
BRANCH   7  10
ATOM     10  C   UNL     1       5.358   2.889  11.591  0.00  0.00    +0.000 C 
ATOM     11  F   UNL     1       5.608   1.554  11.739  0.00  0.00    +0.000 F 
ATOM     12  F   UNL     1       3.999   3.021  11.656  0.00  0.00    +0.000 F 
ENDBRANCH   7  10
BRANCH   5  13
ATOM     13  C   UNL     1       5.043   3.853  16.593  0.00  0.00    +0.000 C 
BRANCH  13  14
ATOM     14  C   UNL     1       4.128   4.449  17.642  0.00  0.00    +0.000 A 
ATOM     15  C   UNL     1       3.680   3.648  18.708  0.00  0.00    +0.000 A 
ATOM     16  C   UNL     1       2.855   4.174  19.702  0.00  0.00    +0.000 A 
ATOM     17  C   UNL     1       2.474   5.511  19.642  0.00  0.00    +0.000 A 
ATOM     18 CL   UNL     1       1.462   6.166  20.870  0.00  0.00    +0.000 Cl
ATOM     19  C   UNL     1       2.908   6.322  18.595  0.00  0.00    +0.000 A 
ATOM     20  C   UNL     1       3.733   5.794  17.596  0.00  0.00    +0.000 A 
ENDBRANCH  13  14
ENDBRANCH   5  13
TORSDOF 3
ENDMDL
MODEL 9
REMARK VINA RESULT:      -6.9      5.287      6.742
REMARK  Name = 
REMARK  4 active torsions:
REMARK  status: ('A' for Active; 'I' for Inactive)
REMARK    1  A    between atoms: C_1  and  C_2
REMARK    2  A    between atoms: N_5  and  C_6
REMARK    3  A    between atoms: C_6  and  C_7
REMARK    4  A    between atoms: C_15  and  C_16
REMARK                            x       y       z     vdW  Elec       q    Type
REMARK                         _______ _______ _______ _____ _____    ______ ____
ROOT
ATOM      1  C   UNL     1       1.799   2.484  21.873  0.00  0.00    +0.000 C 
ATOM      2  C   UNL     1       1.963   3.530  20.815  0.00  0.00    +0.000 A 
ATOM      3  N   UNL     1       1.975   4.807  21.196  0.00  0.00    +0.000 NA
ATOM      4  C   UNL     1       2.149   5.702  20.231  0.00  0.00    +0.000 A 
ATOM      5  N   UNL     1       2.259   7.013  20.643  0.00  0.00    +0.000 N 
ATOM      6  N   UNL     1       2.290   5.390  18.949  0.00  0.00    +0.000 NA
ATOM      7  C   UNL     1       2.277   4.084  18.651  0.00  0.00    +0.000 A 
ATOM      8  N   UNL     1       2.109   3.112  19.558  0.00  0.00    +0.000 NA
ATOM      9  H   UNL     1       1.942   7.085  21.602  0.00  0.00    +0.000 HD
ENDROOT
BRANCH   7  10
ATOM     10  C   UNL     1       2.493   3.676  17.205  0.00  0.00    +0.000 C 
ATOM     11  F   UNL     1       3.717   4.035  16.714  0.00  0.00    +0.000 F 
ATOM     12  F   UNL     1       2.391   2.329  16.998  0.00  0.00    +0.000 F 
ENDBRANCH   7  10
BRANCH   5  13
ATOM     13  C   UNL     1       1.779   8.043  19.748  0.00  0.00    +0.000 C 
BRANCH  13  14
ATOM     14  C   UNL     1       0.943   9.027  20.538  0.00  0.00    +0.000 A 
ATOM     15  C   UNL     1       0.684   8.782  21.898  0.00  0.00    +0.000 A 
ATOM     16  C   UNL     1      -0.063   9.682  22.659  0.00  0.00    +0.000 A 
ATOM     17  C   UNL     1      -0.554  10.841  22.066  0.00  0.00    +0.000 A 
ATOM     18 CL   UNL     1      -1.470  11.957  23.002  0.00  0.00    +0.000 Cl
ATOM     19  C   UNL     1      -0.307  11.104  20.720  0.00  0.00    +0.000 A 
ATOM     20  C   UNL     1       0.440  10.200  19.956  0.00  0.00    +0.000 A 
ENDBRANCH  13  14
ENDBRANCH   5  13
TORSDOF 3
ENDMDL
