MODEL 1
REMARK VINA RESULT:      -6.8      0.000      0.000
REMARK  Name = 
REMARK  4 active torsions:
REMARK  status: ('A' for Active; 'I' for Inactive)
REMARK    1  A    between atoms: C_1  and  C_2
REMARK    2  A    between atoms: C_2  and  C_4
REMARK    3  A    between atoms: C_4  and  C_6
REMARK    4  A    between atoms: C_6  and  C_7
REMARK                            x       y       z     vdW  Elec       q    Type
REMARK                         _______ _______ _______ _____ _____    ______ ____
ROOT
ATOM      1  C   UNL     1       4.227   3.612  17.651  0.00  0.00    +0.000 A 
ATOM      2  C   UNL     1       4.871   3.676  18.872  0.00  0.00    +0.000 A 
ATOM      3  N   UNL     1       6.146   4.115  18.661  0.00  0.00    +0.000 N 
ATOM      4  C   UNL     1       6.348   4.370  17.325  0.00  0.00    +0.000 A 
ATOM      5  C   UNL     1       7.497   4.803  16.656  0.00  0.00    +0.000 A 
ATOM      6  C   UNL     1       7.413   4.979  15.270  0.00  0.00    +0.000 A 
ATOM      7  C   UNL     1       6.225   4.731  14.587  0.00  0.00    +0.000 A 
ATOM      8  C   UNL     1       5.088   4.285  15.272  0.00  0.00    +0.000 A 
ATOM      9  C   UNL     1       5.148   4.094  16.668  0.00  0.00    +0.000 A 
ATOM     10  H   UNL     1       6.856   4.210  19.375  0.00  0.00    +0.000 HD
ENDROOT
BRANCH   1  11
ATOM     11  C   UNL     1       2.860   3.054  17.412  0.00  0.00    +0.000 C 
BRANCH  11  12
ATOM     12  C   UNL     1       1.828   3.755  18.298  0.00  0.00    +0.000 C 
ATOM     13  F   UNL     1       0.811   4.223  17.516  0.00  0.00    +0.000 F 
BRANCH  12  15
ATOM     14  C   UNL     1       1.056   3.514  20.682  0.00  0.00    +0.000 C 
ATOM     15  C   UNL     1       1.239   2.817  19.346  0.00  0.00    +0.000 C 
ATOM     16  F   UNL     1       0.023   2.370  18.926  0.00  0.00    +0.000 F 
ENDBRANCH  12  15
ENDBRANCH  11  12
ENDBRANCH   1  11
TORSDOF 3
ENDMDL
MODEL 2
REMARK VINA RESULT:      -6.8      0.988      1.000
REMARK  Name = 
REMARK  4 active torsions:
REMARK  status: ('A' for Active; 'I' for Inactive)
REMARK    1  A    between atoms: C_1  and  C_2
REMARK    2  A    between atoms: C_2  and  C_4
REMARK    3  A    between atoms: C_4  and  C_6
REMARK    4  A    between atoms: C_6  and  C_7
REMARK                            x       y       z     vdW  Elec       q    Type
REMARK                         _______ _______ _______ _____ _____    ______ ____
ROOT
ATOM      1  C   UNL     1       4.177   3.701  18.242  0.00  0.00    +0.000 A 
ATOM      2  C   UNL     1       4.932   3.858  19.388  0.00  0.00    +0.000 A 
ATOM      3  N   UNL     1       6.187   4.252  19.024  0.00  0.00    +0.000 N 
ATOM      4  C   UNL     1       6.267   4.387  17.657  0.00  0.00    +0.000 A 
ATOM      5  C   UNL     1       7.353   4.737  16.851  0.00  0.00    +0.000 A 
ATOM      6  C   UNL     1       7.144   4.794  15.468  0.00  0.00    +0.000 A 
ATOM      7  C   UNL     1       5.894   4.512  14.921  0.00  0.00    +0.000 A 
ATOM      8  C   UNL     1       4.821   4.148  15.744  0.00  0.00    +0.000 A 
ATOM      9  C   UNL     1       5.008   4.078  17.140  0.00  0.00    +0.000 A 
ATOM     10  H   UNL     1       6.961   4.395  19.659  0.00  0.00    +0.000 HD
ENDROOT
BRANCH   1  11
ATOM     11  C   UNL     1       2.787   3.151  18.179  0.00  0.00    +0.000 C 
BRANCH  11  12
ATOM     12  C   UNL     1       1.767   4.215  18.588  0.00  0.00    +0.000 C 
ATOM     13  F   UNL     1       0.918   4.447  17.543  0.00  0.00    +0.000 F 
BRANCH  12  15
ATOM     14  C   UNL     1       1.569   2.601  20.510  0.00  0.00    +0.000 C 
ATOM     15  C   UNL     1       0.939   3.783  19.794  0.00  0.00    +0.000 C 
ATOM     16  F   UNL     1       0.845   4.816  20.677  0.00  0.00    +0.000 F 
ENDBRANCH  12  15
ENDBRANCH  11  12
ENDBRANCH   1  11
TORSDOF 3
ENDMDL
MODEL 3
REMARK VINA RESULT:      -6.7      1.474      1.621
REMARK  Name = 
REMARK  4 active torsions:
REMARK  status: ('A' for Active; 'I' for Inactive)
REMARK    1  A    between atoms: C_1  and  C_2
REMARK    2  A    between atoms: C_2  and  C_4
REMARK    3  A    between atoms: C_4  and  C_6
REMARK    4  A    between atoms: C_6  and  C_7
REMARK                            x       y       z     vdW  Elec       q    Type
REMARK                         _______ _______ _______ _____ _____    ______ ____
ROOT
ATOM      1  C   UNL     1       3.418   4.779  18.322  0.00  0.00    +0.000 A 
ATOM      2  C   UNL     1       3.892   5.287  19.516  0.00  0.00    +0.000 A 
ATOM      3  N   UNL     1       5.251   5.378  19.433  0.00  0.00    +0.000 N 
ATOM      4  C   UNL     1       5.682   4.967  18.194  0.00  0.00    +0.000 A 
ATOM      5  C   UNL     1       6.979   4.866  17.681  0.00  0.00    +0.000 A 
ATOM      6  C   UNL     1       7.122   4.407  16.367  0.00  0.00    +0.000 A 
ATOM      7  C   UNL     1       6.010   4.066  15.601  0.00  0.00    +0.000 A 
ATOM      8  C   UNL     1       4.719   4.161  16.137  0.00  0.00    +0.000 A 
ATOM      9  C   UNL     1       4.548   4.615  17.460  0.00  0.00    +0.000 A 
ATOM     10  H   UNL     1       5.862   5.674  20.182  0.00  0.00    +0.000 HD
ENDROOT
BRANCH   1  11
ATOM     11  C   UNL     1       2.000   4.394  18.037  0.00  0.00    +0.000 C 
BRANCH  11  12
ATOM     12  C   UNL     1       1.673   3.037  18.664  0.00  0.00    +0.000 C 
ATOM     13  F   UNL     1       2.838   2.372  18.923  0.00  0.00    +0.000 F 
BRANCH  12  15
ATOM     14  C   UNL     1       1.664   2.591  21.142  0.00  0.00    +0.000 C 
ATOM     15  C   UNL     1       0.899   3.181  19.970  0.00  0.00    +0.000 C 
ATOM     16  F   UNL     1       0.676   4.500  20.226  0.00  0.00    +0.000 F 
ENDBRANCH  12  15
ENDBRANCH  11  12
ENDBRANCH   1  11
TORSDOF 3
ENDMDL
MODEL 4
REMARK VINA RESULT:      -6.7      2.010      2.184
REMARK  Name = 
REMARK  4 active torsions:
REMARK  status: ('A' for Active; 'I' for Inactive)
REMARK    1  A    between atoms: C_1  and  C_2
REMARK    2  A    between atoms: C_2  and  C_4
REMARK    3  A    between atoms: C_4  and  C_6
REMARK    4  A    between atoms: C_6  and  C_7
REMARK                            x       y       z     vdW  Elec       q    Type
REMARK                         _______ _______ _______ _____ _____    ______ ____
ROOT
ATOM      1  C   UNL     1       3.741   4.509  18.855  0.00  0.00    +0.000 A 
ATOM      2  C   UNL     1       4.368   3.380  19.346  0.00  0.00    +0.000 A 
ATOM      3  N   UNL     1       5.687   3.437  18.998  0.00  0.00    +0.000 N 
ATOM      4  C   UNL     1       5.949   4.598  18.310  0.00  0.00    +0.000 A 
ATOM      5  C   UNL     1       7.141   5.058  17.743  0.00  0.00    +0.000 A 
ATOM      6  C   UNL     1       7.115   6.294  17.089  0.00  0.00    +0.000 A 
ATOM      7  C   UNL     1       5.940   7.039  17.012  0.00  0.00    +0.000 A 
ATOM      8  C   UNL     1       4.751   6.556  17.574  0.00  0.00    +0.000 A 
ATOM      9  C   UNL     1       4.750   5.310  18.233  0.00  0.00    +0.000 A 
ATOM     10  H   UNL     1       6.371   2.717  19.187  0.00  0.00    +0.000 HD
ENDROOT
BRANCH   1  11
ATOM     11  C   UNL     1       2.270   4.780  18.896  0.00  0.00    +0.000 C 
BRANCH  11  12
ATOM     12  C   UNL     1       1.708   4.499  20.291  0.00  0.00    +0.000 C 
ATOM     13  F   UNL     1       0.971   5.574  20.701  0.00  0.00    +0.000 F 
BRANCH  12  15
ATOM     14  C   UNL     1       0.725   2.615  18.940  0.00  0.00    +0.000 C 
ATOM     15  C   UNL     1       0.812   3.264  20.310  0.00  0.00    +0.000 C 
ATOM     16  F   UNL     1       1.315   2.350  21.185  0.00  0.00    +0.000 F 
ENDBRANCH  12  15
ENDBRANCH  11  12
ENDBRANCH   1  11
TORSDOF 3
ENDMDL
MODEL 5
REMARK VINA RESULT:      -6.6      2.704      5.520
REMARK  Name = 
REMARK  4 active torsions:
REMARK  status: ('A' for Active; 'I' for Inactive)
REMARK    1  A    between atoms: C_1  and  C_2
REMARK    2  A    between atoms: C_2  and  C_4
REMARK    3  A    between atoms: C_4  and  C_6
REMARK    4  A    between atoms: C_6  and  C_7
REMARK                            x       y       z     vdW  Elec       q    Type
REMARK                         _______ _______ _______ _____ _____    ______ ____
ROOT
ATOM      1  C   UNL     1       4.045   5.021  18.097  0.00  0.00    +0.000 A 
ATOM      2  C   UNL     1       4.307   5.857  19.165  0.00  0.00    +0.000 A 
ATOM      3  N   UNL     1       3.389   5.603  20.143  0.00  0.00    +0.000 N 
ATOM      4  C   UNL     1       2.542   4.593  19.751  0.00  0.00    +0.000 A 
ATOM      5  C   UNL     1       1.447   4.030  20.414  0.00  0.00    +0.000 A 
ATOM      6  C   UNL     1       0.755   3.001  19.766  0.00  0.00    +0.000 A 
ATOM      7  C   UNL     1       1.149   2.556  18.506  0.00  0.00    +0.000 A 
ATOM      8  C   UNL     1       2.240   3.141  17.851  0.00  0.00    +0.000 A 
ATOM      9  C   UNL     1       2.950   4.184  18.481  0.00  0.00    +0.000 A 
ATOM     10  H   UNL     1       3.315   6.104  21.018  0.00  0.00    +0.000 HD
ENDROOT
BRANCH   1  11
ATOM     11  C   UNL     1       4.727   5.063  16.766  0.00  0.00    +0.000 C 
BRANCH  11  12
ATOM     12  C   UNL     1       5.861   4.037  16.708  0.00  0.00    +0.000 C 
ATOM     13  F   UNL     1       5.786   3.353  15.528  0.00  0.00    +0.000 F 
BRANCH  12  15
ATOM     14  C   UNL     1       7.129   6.209  16.819  0.00  0.00    +0.000 C 
ATOM     15  C   UNL     1       7.234   4.694  16.799  0.00  0.00    +0.000 C 
ATOM     16  F   UNL     1       7.856   4.294  17.943  0.00  0.00    +0.000 F 
ENDBRANCH  12  15
ENDBRANCH  11  12
ENDBRANCH   1  11
TORSDOF 3
ENDMDL
MODEL 6
REMARK VINA RESULT:      -6.6      1.269      1.392
REMARK  Name = 
REMARK  4 active torsions:
REMARK  status: ('A' for Active; 'I' for Inactive)
REMARK    1  A    between atoms: C_1  and  C_2
REMARK    2  A    between atoms: C_2  and  C_4
REMARK    3  A    between atoms: C_4  and  C_6
REMARK    4  A    between atoms: C_6  and  C_7
REMARK                            x       y       z     vdW  Elec       q    Type
REMARK                         _______ _______ _______ _____ _____    ______ ____
ROOT
ATOM      1  C   UNL     1       3.946   4.951  18.251  0.00  0.00    +0.000 A 
ATOM      2  C   UNL     1       4.597   4.384  19.330  0.00  0.00    +0.000 A 
ATOM      3  N   UNL     1       5.879   4.102  18.955  0.00  0.00    +0.000 N 
ATOM      4  C   UNL     1       6.096   4.500  17.657  0.00  0.00    +0.000 A 
ATOM      5  C   UNL     1       7.238   4.384  16.859  0.00  0.00    +0.000 A 
ATOM      6  C   UNL     1       7.171   4.881  15.553  0.00  0.00    +0.000 A 
ATOM      7  C   UNL     1       6.006   5.472  15.071  0.00  0.00    +0.000 A 
ATOM      8  C   UNL     1       4.866   5.566  15.879  0.00  0.00    +0.000 A 
ATOM      9  C   UNL     1       4.906   5.068  17.197  0.00  0.00    +0.000 A 
ATOM     10  H   UNL     1       6.567   3.639  19.533  0.00  0.00    +0.000 HD
ENDROOT
BRANCH   1  11
ATOM     11  C   UNL     1       2.488   5.286  18.187  0.00  0.00    +0.000 C 
BRANCH  11  12
ATOM     12  C   UNL     1       1.677   4.076  17.719  0.00  0.00    +0.000 C 
ATOM     13  F   UNL     1       2.501   3.216  17.051  0.00  0.00    +0.000 F 
BRANCH  12  15
ATOM     14  C   UNL     1       1.761   2.021  19.172  0.00  0.00    +0.000 C 
ATOM     15  C   UNL     1       1.040   3.327  18.885  0.00  0.00    +0.000 C 
ATOM     16  F   UNL     1       1.092   4.099  20.006  0.00  0.00    +0.000 F 
ENDBRANCH  12  15
ENDBRANCH  11  12
ENDBRANCH   1  11
TORSDOF 3
ENDMDL
MODEL 7
REMARK VINA RESULT:      -6.6      1.539      1.612
REMARK  Name = 
REMARK  4 active torsions:
REMARK  status: ('A' for Active; 'I' for Inactive)
REMARK    1  A    between atoms: C_1  and  C_2
REMARK    2  A    between atoms: C_2  and  C_4
REMARK    3  A    between atoms: C_4  and  C_6
REMARK    4  A    between atoms: C_6  and  C_7
REMARK                            x       y       z     vdW  Elec       q    Type
REMARK                         _______ _______ _______ _____ _____    ______ ____
ROOT
ATOM      1  C   UNL     1       4.232   4.116  17.997  0.00  0.00    +0.000 A 
ATOM      2  C   UNL     1       4.752   3.364  19.033  0.00  0.00    +0.000 A 
ATOM      3  N   UNL     1       5.962   3.893  19.379  0.00  0.00    +0.000 N 
ATOM      4  C   UNL     1       6.238   4.999  18.610  0.00  0.00    +0.000 A 
ATOM      5  C   UNL     1       7.363   5.829  18.599  0.00  0.00    +0.000 A 
ATOM      6  C   UNL     1       7.373   6.896  17.694  0.00  0.00    +0.000 A 
ATOM      7  C   UNL     1       6.297   7.120  16.838  0.00  0.00    +0.000 A 
ATOM      8  C   UNL     1       5.184   6.270  16.854  0.00  0.00    +0.000 A 
ATOM      9  C   UNL     1       5.152   5.184  17.753  0.00  0.00    +0.000 A 
ATOM     10  H   UNL     1       6.586   3.512  20.078  0.00  0.00    +0.000 HD
ENDROOT
BRANCH   1  11
ATOM     11  C   UNL     1       2.987   3.802  17.228  0.00  0.00    +0.000 C 
BRANCH  11  12
ATOM     12  C   UNL     1       1.745   4.223  18.017  0.00  0.00    +0.000 C 
ATOM     13  F   UNL     1       0.727   4.483  17.144  0.00  0.00    +0.000 F 
BRANCH  12  15
ATOM     14  C   UNL     1       0.891   3.720  20.331  0.00  0.00    +0.000 C 
ATOM     15  C   UNL     1       1.286   3.138  18.985  0.00  0.00    +0.000 C 
ATOM     16  F   UNL     1       0.206   2.491  18.466  0.00  0.00    +0.000 F 
ENDBRANCH  12  15
ENDBRANCH  11  12
ENDBRANCH   1  11
TORSDOF 3
ENDMDL
MODEL 8
REMARK VINA RESULT:      -6.5      1.502      1.651
REMARK  Name = 
REMARK  4 active torsions:
REMARK  status: ('A' for Active; 'I' for Inactive)
REMARK    1  A    between atoms: C_1  and  C_2
REMARK    2  A    between atoms: C_2  and  C_4
REMARK    3  A    between atoms: C_4  and  C_6
REMARK    4  A    between atoms: C_6  and  C_7
REMARK                            x       y       z     vdW  Elec       q    Type
REMARK                         _______ _______ _______ _____ _____    ______ ____
ROOT
ATOM      1  C   UNL     1       4.028   4.941  18.468  0.00  0.00    +0.000 A 
ATOM      2  C   UNL     1       4.856   5.107  19.561  0.00  0.00    +0.000 A 
ATOM      3  N   UNL     1       6.149   4.987  19.139  0.00  0.00    +0.000 N 
ATOM      4  C   UNL     1       6.191   4.772  17.781  0.00  0.00    +0.000 A 
ATOM      5  C   UNL     1       7.285   4.565  16.937  0.00  0.00    +0.000 A 
ATOM      6  C   UNL     1       7.027   4.367  15.576  0.00  0.00    +0.000 A 
ATOM      7  C   UNL     1       5.723   4.380  15.085  0.00  0.00    +0.000 A 
ATOM      8  C   UNL     1       4.638   4.576  15.948  0.00  0.00    +0.000 A 
ATOM      9  C   UNL     1       4.872   4.771  17.325  0.00  0.00    +0.000 A 
ATOM     10  H   UNL     1       6.963   5.017  19.738  0.00  0.00    +0.000 HD
ENDROOT
BRANCH   1  11
ATOM     11  C   UNL     1       2.533   4.863  18.507  0.00  0.00    +0.000 C 
BRANCH  11  12
ATOM     12  C   UNL     1       2.045   4.597  19.933  0.00  0.00    +0.000 C 
ATOM     13  F   UNL     1       1.637   5.774  20.493  0.00  0.00    +0.000 F 
BRANCH  12  15
ATOM     14  C   UNL     1       1.001   2.563  18.879  0.00  0.00    +0.000 C 
ATOM     15  C   UNL     1       0.877   3.617  19.965  0.00  0.00    +0.000 C 
ATOM     16  F   UNL     1       0.844   2.986  21.172  0.00  0.00    +0.000 F 
ENDBRANCH  12  15
ENDBRANCH  11  12
ENDBRANCH   1  11
TORSDOF 3
ENDMDL
MODEL 9
REMARK VINA RESULT:      -6.5      1.969      2.211
REMARK  Name = 
REMARK  4 active torsions:
REMARK  status: ('A' for Active; 'I' for Inactive)
REMARK    1  A    between atoms: C_1  and  C_2
REMARK    2  A    between atoms: C_2  and  C_4
REMARK    3  A    between atoms: C_4  and  C_6
REMARK    4  A    between atoms: C_6  and  C_7
REMARK                            x       y       z     vdW  Elec       q    Type
REMARK                         _______ _______ _______ _____ _____    ______ ____
ROOT
ATOM      1  C   UNL     1       2.738   4.808  17.772  0.00  0.00    +0.000 A 
ATOM      2  C   UNL     1       2.482   6.069  18.275  0.00  0.00    +0.000 A 
ATOM      3  N   UNL     1       3.572   6.855  18.036  0.00  0.00    +0.000 N 
ATOM      4  C   UNL     1       4.533   6.143  17.357  0.00  0.00    +0.000 A 
ATOM      5  C   UNL     1       5.808   6.531  16.934  0.00  0.00    +0.000 A 
ATOM      6  C   UNL     1       6.584   5.584  16.258  0.00  0.00    +0.000 A 
ATOM      7  C   UNL     1       6.098   4.301  16.015  0.00  0.00    +0.000 A 
ATOM      8  C   UNL     1       4.824   3.926  16.459  0.00  0.00    +0.000 A 
ATOM      9  C   UNL     1       4.024   4.860  17.148  0.00  0.00    +0.000 A 
ATOM     10  H   UNL     1       3.677   7.813  18.339  0.00  0.00    +0.000 HD
ENDROOT
BRANCH   1  11
ATOM     11  C   UNL     1       1.864   3.604  17.940  0.00  0.00    +0.000 C 
BRANCH  11  12
ATOM     12  C   UNL     1       2.254   2.826  19.199  0.00  0.00    +0.000 C 
ATOM     13  F   UNL     1       3.407   3.351  19.710  0.00  0.00    +0.000 F 
BRANCH  12  15
ATOM     14  C   UNL     1       1.771   2.866  21.669  0.00  0.00    +0.000 C 
ATOM     15  C   UNL     1       1.174   2.896  20.274  0.00  0.00    +0.000 C 
ATOM     16  F   UNL     1       0.467   4.052  20.136  0.00  0.00    +0.000 F 
ENDBRANCH  12  15
ENDBRANCH  11  12
ENDBRANCH   1  11
TORSDOF 3
ENDMDL
