MODEL 1
REMARK VINA RESULT:      -7.8      0.000      0.000
REMARK  Name = 
REMARK  16 active torsions:
REMARK  status: ('A' for Active; 'I' for Inactive)
REMARK    1  A    between atoms: C_1  and  O_2
REMARK    2  A    between atoms: O_2  and  C_3
REMARK    3  A    between atoms: C_6  and  C_7
REMARK    4  A    between atoms: C_9  and  C_10
REMARK    5  A    between atoms: C_13  and  O_14
REMARK    6  A    between atoms: O_14  and  C_15
REMARK    7  A    between atoms: C_16  and  O_17
REMARK    8  A    between atoms: O_17  and  C_18
REMARK    9  A    between atoms: C_19  and  O_20
REMARK   10  A    between atoms: O_20  and  C_21
REMARK   11  A    between atoms: C_22  and  C_23
REMARK   12  A    between atoms: C_26  and  C_27
REMARK   13  A    between atoms: C_28  and  O_29
REMARK   14  A    between atoms: O_29  and  C_30
REMARK   15  A    between atoms: C_31  and  O_32
REMARK   16  A    between atoms: O_32  and  C_33
REMARK                            x       y       z     vdW  Elec       q    Type
REMARK                         _______ _______ _______ _____ _____    ______ ____
ROOT
ATOM      1  C   UNL     1       4.620   4.249  19.274  0.00  0.00    +0.000 C 
ATOM      2  N   UNL     1       3.848   5.396  19.746  0.00  0.00    +0.000 NA
ATOM      3  C   UNL     1       2.547   5.655  19.102  0.00  0.00    +0.000 C 
ATOM      4  C   UNL     1       1.636   4.406  19.008  0.00  0.00    +0.000 C 
ATOM      5  C   UNL     1       0.669   4.144  20.162  0.00  0.00    +0.000 C 
ATOM      6  C   UNL     1       2.422   3.125  18.767  0.00  0.00    +0.000 C 
ATOM      7  O   UNL     1       1.893   2.182  18.168  0.00  0.00    +0.000 OA
ATOM      8  C   UNL     1       3.812   2.948  19.353  0.00  0.00    +0.000 C 
ATOM      9  C   UNL     1       3.738   2.394  20.777  0.00  0.00    +0.000 C 
ATOM     10  H   UNL     1       4.432   6.230  19.639  0.00  0.00    +0.000 HD
ENDROOT
BRANCH   1  14
ATOM     11  C   UNL     1       6.572   4.971  15.443  0.00  0.00    +0.000 A 
ATOM     12  C   UNL     1       5.574   4.003  15.575  0.00  0.00    +0.000 A 
ATOM     13  C   UNL     1       4.941   3.793  16.792  0.00  0.00    +0.000 A 
ATOM     14  C   UNL     1       5.327   4.499  17.940  0.00  0.00    +0.000 A 
ATOM     15  C   UNL     1       6.396   5.428  17.829  0.00  0.00    +0.000 A 
ATOM     16  C   UNL     1       7.023   5.671  16.577  0.00  0.00    +0.000 A 
BRANCH  11  18
ATOM     17  C   UNL     1       6.795   4.312  13.187  0.00  0.00    +0.000 C 
ATOM     18  O   UNL     1       7.106   5.252  14.210  0.00  0.00    +0.000 OA
ENDBRANCH  11  18
BRANCH  15  19
ATOM     19  O   UNL     1       6.694   6.107  18.993  0.00  0.00    +0.000 OA
ATOM     20  C   UNL     1       7.798   5.636  19.762  0.00  0.00    +0.000 C 
ENDBRANCH  15  19
BRANCH  16  21
ATOM     21  O   UNL     1       7.962   6.671  16.556  0.00  0.00    +0.000 OA
ATOM     22  C   UNL     1       7.641   7.933  17.124  0.00  0.00    +0.000 C 
ENDBRANCH  16  21
ENDBRANCH   1  14
BRANCH   3  23
ATOM     23  C   UNL     1       1.886   6.879  19.775  0.00  0.00    +0.000 A 
ATOM     24  C   UNL     1       1.502   6.776  21.120  0.00  0.00    +0.000 A 
ATOM     25  C   UNL     1       1.051   7.872  21.844  0.00  0.00    +0.000 A 
ATOM     26  C   UNL     1       0.940   9.121  21.241  0.00  0.00    +0.000 A 
ATOM     27  C   UNL     1       1.254   9.261  19.870  0.00  0.00    +0.000 A 
ATOM     28  C   UNL     1       1.691   8.122  19.125  0.00  0.00    +0.000 A 
BRANCH  26  29
ATOM     29  O   UNL     1       0.616  10.238  21.972  0.00  0.00    +0.000 OA
ATOM     30  C   UNL     1      -0.343  10.051  23.008  0.00  0.00    +0.000 C 
ENDBRANCH  26  29
BRANCH  27  31
ATOM     31  O   UNL     1       1.271  10.469  19.211  0.00  0.00    +0.000 OA
ATOM     32  C   UNL     1       0.042  10.955  18.672  0.00  0.00    +0.000 C 
ENDBRANCH  27  31
BRANCH  28  33
ATOM     33  O   UNL     1       1.974   8.133  17.775  0.00  0.00    +0.000 OA
ATOM     34  C   UNL     1       3.358   8.188  17.418  0.00  0.00    +0.000 C 
ENDBRANCH  28  33
ENDBRANCH   3  23
TORSDOF 8
ENDMDL
MODEL 2
REMARK VINA RESULT:      -6.5      4.404      8.018
REMARK  Name = 
REMARK  16 active torsions:
REMARK  status: ('A' for Active; 'I' for Inactive)
REMARK    1  A    between atoms: C_1  and  O_2
REMARK    2  A    between atoms: O_2  and  C_3
REMARK    3  A    between atoms: C_6  and  C_7
REMARK    4  A    between atoms: C_9  and  C_10
REMARK    5  A    between atoms: C_13  and  O_14
REMARK    6  A    between atoms: O_14  and  C_15
REMARK    7  A    between atoms: C_16  and  O_17
REMARK    8  A    between atoms: O_17  and  C_18
REMARK    9  A    between atoms: C_19  and  O_20
REMARK   10  A    between atoms: O_20  and  C_21
REMARK   11  A    between atoms: C_22  and  C_23
REMARK   12  A    between atoms: C_26  and  C_27
REMARK   13  A    between atoms: C_28  and  O_29
REMARK   14  A    between atoms: O_29  and  C_30
REMARK   15  A    between atoms: C_31  and  O_32
REMARK   16  A    between atoms: O_32  and  C_33
REMARK                            x       y       z     vdW  Elec       q    Type
REMARK                         _______ _______ _______ _____ _____    ______ ____
ROOT
ATOM      1  C   UNL     1       0.601  10.995  20.311  0.00  0.00    +0.000 C 
ATOM      2  N   UNL     1       1.509  12.140  20.324  0.00  0.00    +0.000 NA
ATOM      3  C   UNL     1       1.682  12.888  19.065  0.00  0.00    +0.000 C 
ATOM      4  C   UNL     1       0.349  13.277  18.380  0.00  0.00    +0.000 C 
ATOM      5  C   UNL     1      -0.268  14.627  18.743  0.00  0.00    +0.000 C 
ATOM      6  C   UNL     1      -0.730  12.217  18.555  0.00  0.00    +0.000 C 
ATOM      7  O   UNL     1      -1.614  12.093  17.700  0.00  0.00    +0.000 OA
ATOM      8  C   UNL     1      -0.799  11.385  19.823  0.00  0.00    +0.000 C 
ATOM      9  C   UNL     1      -1.614  12.100  20.902  0.00  0.00    +0.000 C 
ATOM     10  H   UNL     1       2.428  11.806  20.629  0.00  0.00    +0.000 HD
ENDROOT
BRANCH   1  14
ATOM     11  C   UNL     1       2.362   7.491  18.405  0.00  0.00    +0.000 A 
ATOM     12  C   UNL     1       2.090   8.651  17.676  0.00  0.00    +0.000 A 
ATOM     13  C   UNL     1       1.550   9.770  18.294  0.00  0.00    +0.000 A 
ATOM     14  C   UNL     1       1.201   9.751  19.651  0.00  0.00    +0.000 A 
ATOM     15  C   UNL     1       1.401   8.548  20.379  0.00  0.00    +0.000 A 
ATOM     16  C   UNL     1       1.986   7.411  19.759  0.00  0.00    +0.000 A 
BRANCH  11  18
ATOM     17  C   UNL     1       4.394   6.628  17.571  0.00  0.00    +0.000 C 
ATOM     18  O   UNL     1       3.005   6.434  17.812  0.00  0.00    +0.000 OA
ENDBRANCH  11  18
BRANCH  15  19
ATOM     19  O   UNL     1       1.065   8.619  21.716  0.00  0.00    +0.000 OA
ATOM     20  C   UNL     1      -0.300   8.399  22.060  0.00  0.00    +0.000 C 
ENDBRANCH  15  19
BRANCH  16  21
ATOM     21  O   UNL     1       2.244   6.341  20.580  0.00  0.00    +0.000 OA
ATOM     22  C   UNL     1       1.434   5.178  20.477  0.00  0.00    +0.000 C 
ENDBRANCH  16  21
ENDBRANCH   1  14
BRANCH   3  23
ATOM     23  C   UNL     1       2.644  14.072  19.310  0.00  0.00    +0.000 A 
ATOM     24  C   UNL     1       3.437  14.521  18.244  0.00  0.00    +0.000 A 
ATOM     25  C   UNL     1       4.206  15.674  18.331  0.00  0.00    +0.000 A 
ATOM     26  C   UNL     1       4.235  16.417  19.507  0.00  0.00    +0.000 A 
ATOM     27  C   UNL     1       3.503  15.971  20.630  0.00  0.00    +0.000 A 
ATOM     28  C   UNL     1       2.736  14.767  20.541  0.00  0.00    +0.000 A 
BRANCH  26  29
ATOM     29  O   UNL     1       4.889  17.624  19.570  0.00  0.00    +0.000 OA
ATOM     30  C   UNL     1       6.296  17.562  19.782  0.00  0.00    +0.000 C 
ENDBRANCH  26  29
BRANCH  27  31
ATOM     31  O   UNL     1       3.390  16.686  21.801  0.00  0.00    +0.000 OA
ATOM     32  C   UNL     1       4.347  16.440  22.830  0.00  0.00    +0.000 C 
ENDBRANCH  27  31
BRANCH  28  33
ATOM     33  O   UNL     1       2.028  14.212  21.586  0.00  0.00    +0.000 OA
ATOM     34  C   UNL     1       0.898  14.956  22.050  0.00  0.00    +0.000 C 
ENDBRANCH  28  33
ENDBRANCH   3  23
TORSDOF 8
ENDMDL
MODEL 3
REMARK VINA RESULT:      -6.4      4.523      7.904
REMARK  Name = 
REMARK  16 active torsions:
REMARK  status: ('A' for Active; 'I' for Inactive)
REMARK    1  A    between atoms: C_1  and  O_2
REMARK    2  A    between atoms: O_2  and  C_3
REMARK    3  A    between atoms: C_6  and  C_7
REMARK    4  A    between atoms: C_9  and  C_10
REMARK    5  A    between atoms: C_13  and  O_14
REMARK    6  A    between atoms: O_14  and  C_15
REMARK    7  A    between atoms: C_16  and  O_17
REMARK    8  A    between atoms: O_17  and  C_18
REMARK    9  A    between atoms: C_19  and  O_20
REMARK   10  A    between atoms: O_20  and  C_21
REMARK   11  A    between atoms: C_22  and  C_23
REMARK   12  A    between atoms: C_26  and  C_27
REMARK   13  A    between atoms: C_28  and  O_29
REMARK   14  A    between atoms: O_29  and  C_30
REMARK   15  A    between atoms: C_31  and  O_32
REMARK   16  A    between atoms: O_32  and  C_33
REMARK                            x       y       z     vdW  Elec       q    Type
REMARK                         _______ _______ _______ _____ _____    ______ ____
ROOT
ATOM      1  C   UNL     1       0.464  11.089  20.460  0.00  0.00    +0.000 C 
ATOM      2  N   UNL     1       1.430  12.129  20.807  0.00  0.00    +0.000 NA
ATOM      3  C   UNL     1       1.903  13.011  19.723  0.00  0.00    +0.000 C 
ATOM      4  C   UNL     1       0.763  13.612  18.865  0.00  0.00    +0.000 C 
ATOM      5  C   UNL     1       0.183  14.959  19.296  0.00  0.00    +0.000 C 
ATOM      6  C   UNL     1      -0.402  12.649  18.680  0.00  0.00    +0.000 C 
ATOM      7  O   UNL     1      -1.106  12.721  17.666  0.00  0.00    +0.000 OA
ATOM      8  C   UNL     1      -0.780  11.672  19.780  0.00  0.00    +0.000 C 
ATOM      9  C   UNL     1      -1.740  12.321  20.779  0.00  0.00    +0.000 C 
ATOM     10  H   UNL     1       2.244  11.671  21.227  0.00  0.00    +0.000 HD
ENDROOT
BRANCH   1  14
ATOM     11  C   UNL     1       2.306   7.707  18.416  0.00  0.00    +0.000 A 
ATOM     12  C   UNL     1       1.963   8.870  17.724  0.00  0.00    +0.000 A 
ATOM     13  C   UNL     1       1.398   9.951  18.385  0.00  0.00    +0.000 A 
ATOM     14  C   UNL     1       1.093   9.887  19.751  0.00  0.00    +0.000 A 
ATOM     15  C   UNL     1       1.366   8.677  20.444  0.00  0.00    +0.000 A 
ATOM     16  C   UNL     1       1.977   7.579  19.778  0.00  0.00    +0.000 A 
BRANCH  11  18
ATOM     17  C   UNL     1       4.366   6.907  17.587  0.00  0.00    +0.000 C 
ATOM     18  O   UNL     1       2.972   6.692  17.777  0.00  0.00    +0.000 OA
ENDBRANCH  11  18
BRANCH  15  19
ATOM     19  O   UNL     1       1.070   8.703  21.791  0.00  0.00    +0.000 OA
ATOM     20  C   UNL     1      -0.282   8.459  22.170  0.00  0.00    +0.000 C 
ENDBRANCH  15  19
BRANCH  16  21
ATOM     21  O   UNL     1       2.305   6.504  20.564  0.00  0.00    +0.000 OA
ATOM     22  C   UNL     1       1.550   5.306  20.449  0.00  0.00    +0.000 C 
ENDBRANCH  16  21
ENDBRANCH   1  14
BRANCH   3  23
ATOM     23  C   UNL     1       2.878  14.055  20.311  0.00  0.00    +0.000 A 
ATOM     24  C   UNL     1       2.739  14.413  21.661  0.00  0.00    +0.000 A 
ATOM     25  C   UNL     1       3.668  15.217  22.309  0.00  0.00    +0.000 A 
ATOM     26  C   UNL     1       4.767  15.723  21.623  0.00  0.00    +0.000 A 
ATOM     27  C   UNL     1       4.916  15.443  20.246  0.00  0.00    +0.000 A 
ATOM     28  C   UNL     1       3.941  14.637  19.579  0.00  0.00    +0.000 A 
BRANCH  26  29
ATOM     29  O   UNL     1       5.757  16.414  22.276  0.00  0.00    +0.000 OA
ATOM     30  C   UNL     1       6.406  15.723  23.339  0.00  0.00    +0.000 C 
ENDBRANCH  26  29
BRANCH  27  31
ATOM     31  O   UNL     1       6.016  15.813  19.506  0.00  0.00    +0.000 OA
ATOM     32  C   UNL     1       7.128  14.920  19.467  0.00  0.00    +0.000 C 
ENDBRANCH  27  31
BRANCH  28  33
ATOM     33  O   UNL     1       3.959  14.344  18.232  0.00  0.00    +0.000 OA
ATOM     34  C   UNL     1       3.617  15.414  17.346  0.00  0.00    +0.000 C 
ENDBRANCH  28  33
ENDBRANCH   3  23
TORSDOF 8
ENDMDL
MODEL 4
REMARK VINA RESULT:      -6.1      6.516     11.293
REMARK  Name = 
REMARK  16 active torsions:
REMARK  status: ('A' for Active; 'I' for Inactive)
REMARK    1  A    between atoms: C_1  and  O_2
REMARK    2  A    between atoms: O_2  and  C_3
REMARK    3  A    between atoms: C_6  and  C_7
REMARK    4  A    between atoms: C_9  and  C_10
REMARK    5  A    between atoms: C_13  and  O_14
REMARK    6  A    between atoms: O_14  and  C_15
REMARK    7  A    between atoms: C_16  and  O_17
REMARK    8  A    between atoms: O_17  and  C_18
REMARK    9  A    between atoms: C_19  and  O_20
REMARK   10  A    between atoms: O_20  and  C_21
REMARK   11  A    between atoms: C_22  and  C_23
REMARK   12  A    between atoms: C_26  and  C_27
REMARK   13  A    between atoms: C_28  and  O_29
REMARK   14  A    between atoms: O_29  and  C_30
REMARK   15  A    between atoms: C_31  and  O_32
REMARK   16  A    between atoms: O_32  and  C_33
REMARK                            x       y       z     vdW  Elec       q    Type
REMARK                         _______ _______ _______ _____ _____    ______ ____
ROOT
ATOM      1  C   UNL     1      -2.316  14.060  23.165  0.00  0.00    +0.000 C 
ATOM      2  N   UNL     1      -3.259  14.643  22.213  0.00  0.00    +0.000 NA
ATOM      3  C   UNL     1      -4.449  13.847  21.857  0.00  0.00    +0.000 C 
ATOM      4  C   UNL     1      -5.212  13.282  23.080  0.00  0.00    +0.000 C 
ATOM      5  C   UNL     1      -6.335  14.134  23.673  0.00  0.00    +0.000 C 
ATOM      6  C   UNL     1      -4.283  12.891  24.220  0.00  0.00    +0.000 C 
ATOM      7  O   UNL     1      -4.613  11.992  25.003  0.00  0.00    +0.000 OA
ATOM      8  C   UNL     1      -3.004  13.668  24.478  0.00  0.00    +0.000 C 
ATOM      9  C   UNL     1      -3.270  14.874  25.380  0.00  0.00    +0.000 C 
ATOM     10  H   UNL     1      -2.745  14.853  21.353  0.00  0.00    +0.000 HD
ENDROOT
BRANCH   1  14
ATOM     11  C   UNL     1       0.189  10.957  21.404  0.00  0.00    +0.000 A 
ATOM     12  C   UNL     1      -0.676  10.674  22.463  0.00  0.00    +0.000 A 
ATOM     13  C   UNL     1      -1.487  11.661  23.004  0.00  0.00    +0.000 A 
ATOM     14  C   UNL     1      -1.417  12.985  22.550  0.00  0.00    +0.000 A 
ATOM     15  C   UNL     1      -0.481  13.296  21.527  0.00  0.00    +0.000 A 
ATOM     16  C   UNL     1       0.326  12.281  20.947  0.00  0.00    +0.000 A 
BRANCH  11  18
ATOM     17  C   UNL     1       0.771   8.670  21.410  0.00  0.00    +0.000 C 
ATOM     18  O   UNL     1       0.897   9.949  20.799  0.00  0.00    +0.000 OA
ENDBRANCH  11  18
BRANCH  15  19
ATOM     19  O   UNL     1      -0.496  14.612  21.111  0.00  0.00    +0.000 OA
ATOM     20  C   UNL     1       0.532  15.467  21.605  0.00  0.00    +0.000 C 
ENDBRANCH  15  19
BRANCH  16  21
ATOM     21  O   UNL     1       1.109  12.665  19.887  0.00  0.00    +0.000 OA
ATOM     22  C   UNL     1       0.560  12.641  18.577  0.00  0.00    +0.000 C 
ENDBRANCH  16  21
ENDBRANCH   1  14
BRANCH   3  23
ATOM     23  C   UNL     1      -5.325  14.659  20.877  0.00  0.00    +0.000 A 
ATOM     24  C   UNL     1      -5.253  16.059  20.920  0.00  0.00    +0.000 A 
ATOM     25  C   UNL     1      -5.879  16.859  19.973  0.00  0.00    +0.000 A 
ATOM     26  C   UNL     1      -6.632  16.288  18.951  0.00  0.00    +0.000 A 
ATOM     27  C   UNL     1      -6.787  14.884  18.903  0.00  0.00    +0.000 A 
ATOM     28  C   UNL     1      -6.162  14.069  19.898  0.00  0.00    +0.000 A 
BRANCH  26  29
ATOM     29  O   UNL     1      -7.153  17.055  17.938  0.00  0.00    +0.000 OA
ATOM     30  C   UNL     1      -6.354  18.153  17.510  0.00  0.00    +0.000 C 
ENDBRANCH  26  29
BRANCH  27  31
ATOM     31  O   UNL     1      -7.427  14.222  17.880  0.00  0.00    +0.000 OA
ATOM     32  C   UNL     1      -6.728  14.060  16.647  0.00  0.00    +0.000 C 
ENDBRANCH  27  31
BRANCH  28  33
ATOM     33  O   UNL     1      -6.288  12.699  19.978  0.00  0.00    +0.000 OA
ATOM     34  C   UNL     1      -5.359  11.931  19.206  0.00  0.00    +0.000 C 
ENDBRANCH  28  33
ENDBRANCH   3  23
TORSDOF 8
ENDMDL
MODEL 5
REMARK VINA RESULT:      -6.0      3.821     10.436
REMARK  Name = 
REMARK  16 active torsions:
REMARK  status: ('A' for Active; 'I' for Inactive)
REMARK    1  A    between atoms: C_1  and  O_2
REMARK    2  A    between atoms: O_2  and  C_3
REMARK    3  A    between atoms: C_6  and  C_7
REMARK    4  A    between atoms: C_9  and  C_10
REMARK    5  A    between atoms: C_13  and  O_14
REMARK    6  A    between atoms: O_14  and  C_15
REMARK    7  A    between atoms: C_16  and  O_17
REMARK    8  A    between atoms: O_17  and  C_18
REMARK    9  A    between atoms: C_19  and  O_20
REMARK   10  A    between atoms: O_20  and  C_21
REMARK   11  A    between atoms: C_22  and  C_23
REMARK   12  A    between atoms: C_26  and  C_27
REMARK   13  A    between atoms: C_28  and  O_29
REMARK   14  A    between atoms: O_29  and  C_30
REMARK   15  A    between atoms: C_31  and  O_32
REMARK   16  A    between atoms: O_32  and  C_33
REMARK                            x       y       z     vdW  Elec       q    Type
REMARK                         _______ _______ _______ _____ _____    ______ ____
ROOT
ATOM      1  C   UNL     1      -0.017  12.800  21.461  0.00  0.00    +0.000 C 
ATOM      2  N   UNL     1       0.496  11.535  20.943  0.00  0.00    +0.000 NA
ATOM      3  C   UNL     1       0.432  11.317  19.486  0.00  0.00    +0.000 C 
ATOM      4  C   UNL     1       0.991  12.496  18.653  0.00  0.00    +0.000 C 
ATOM      5  C   UNL     1       2.475  12.466  18.285  0.00  0.00    +0.000 C 
ATOM      6  C   UNL     1       0.704  13.850  19.287  0.00  0.00    +0.000 C 
ATOM      7  O   UNL     1       0.593  14.853  18.572  0.00  0.00    +0.000 OA
ATOM      8  C   UNL     1       0.662  14.004  20.797  0.00  0.00    +0.000 C 
ATOM      9  C   UNL     1       2.060  14.267  21.358  0.00  0.00    +0.000 C 
ATOM     10  H   UNL     1      -0.017  10.777  21.404  0.00  0.00    +0.000 HD
ENDROOT
BRANCH   1  14
ATOM     11  C   UNL     1      -4.374  12.906  21.592  0.00  0.00    +0.000 A 
ATOM     12  C   UNL     1      -3.693  12.608  20.409  0.00  0.00    +0.000 A 
ATOM     13  C   UNL     1      -2.306  12.554  20.381  0.00  0.00    +0.000 A 
ATOM     14  C   UNL     1      -1.545  12.860  21.517  0.00  0.00    +0.000 A 
ATOM     15  C   UNL     1      -2.231  13.242  22.701  0.00  0.00    +0.000 A 
ATOM     16  C   UNL     1      -3.651  13.265  22.745  0.00  0.00    +0.000 A 
BRANCH  11  18
ATOM     17  C   UNL     1      -6.411  13.274  20.458  0.00  0.00    +0.000 C 
ATOM     18  O   UNL     1      -5.743  12.839  21.638  0.00  0.00    +0.000 OA
ENDBRANCH  11  18
BRANCH  15  19
ATOM     19  O   UNL     1      -1.415  13.495  23.785  0.00  0.00    +0.000 OA
ATOM     20  C   UNL     1      -1.205  14.858  24.143  0.00  0.00    +0.000 C 
ENDBRANCH  15  19
BRANCH  16  21
ATOM     21  O   UNL     1      -4.213  13.532  23.968  0.00  0.00    +0.000 OA
ATOM     22  C   UNL     1      -4.555  12.450  24.823  0.00  0.00    +0.000 C 
ENDBRANCH  16  21
ENDBRANCH   1  14
BRANCH   3  23
ATOM     23  C   UNL     1       1.058   9.945  19.152  0.00  0.00    +0.000 A 
ATOM     24  C   UNL     1       1.547   9.731  17.855  0.00  0.00    +0.000 A 
ATOM     25  C   UNL     1       2.267   8.592  17.517  0.00  0.00    +0.000 A 
ATOM     26  C   UNL     1       2.505   7.599  18.462  0.00  0.00    +0.000 A 
ATOM     27  C   UNL     1       1.979   7.740  19.766  0.00  0.00    +0.000 A 
ATOM     28  C   UNL     1       1.215   8.903  20.098  0.00  0.00    +0.000 A 
BRANCH  26  29
ATOM     29  O   UNL     1       3.319   6.529  18.180  0.00  0.00    +0.000 OA
ATOM     30  C   UNL     1       4.472   6.810  17.394  0.00  0.00    +0.000 C 
ENDBRANCH  26  29
BRANCH  27  31
ATOM     31  O   UNL     1       2.243   6.864  20.794  0.00  0.00    +0.000 OA
ATOM     32  C   UNL     1       1.654   5.566  20.736  0.00  0.00    +0.000 C 
ENDBRANCH  27  31
BRANCH  28  33
ATOM     33  O   UNL     1       0.613   9.119  21.319  0.00  0.00    +0.000 OA
ATOM     34  C   UNL     1      -0.593   8.391  21.569  0.00  0.00    +0.000 C 
ENDBRANCH  28  33
ENDBRANCH   3  23
TORSDOF 8
ENDMDL
MODEL 6
REMARK VINA RESULT:      -6.0      7.189     11.655
REMARK  Name = 
REMARK  16 active torsions:
REMARK  status: ('A' for Active; 'I' for Inactive)
REMARK    1  A    between atoms: C_1  and  O_2
REMARK    2  A    between atoms: O_2  and  C_3
REMARK    3  A    between atoms: C_6  and  C_7
REMARK    4  A    between atoms: C_9  and  C_10
REMARK    5  A    between atoms: C_13  and  O_14
REMARK    6  A    between atoms: O_14  and  C_15
REMARK    7  A    between atoms: C_16  and  O_17
REMARK    8  A    between atoms: O_17  and  C_18
REMARK    9  A    between atoms: C_19  and  O_20
REMARK   10  A    between atoms: O_20  and  C_21
REMARK   11  A    between atoms: C_22  and  C_23
REMARK   12  A    between atoms: C_26  and  C_27
REMARK   13  A    between atoms: C_28  and  O_29
REMARK   14  A    between atoms: O_29  and  C_30
REMARK   15  A    between atoms: C_31  and  O_32
REMARK   16  A    between atoms: O_32  and  C_33
REMARK                            x       y       z     vdW  Elec       q    Type
REMARK                         _______ _______ _______ _____ _____    ______ ____
ROOT
ATOM      1  C   UNL     1      -1.881  11.908  22.574  0.00  0.00    +0.000 C 
ATOM      2  N   UNL     1      -2.506  11.750  21.263  0.00  0.00    +0.000 NA
ATOM      3  C   UNL     1      -1.766  12.250  20.088  0.00  0.00    +0.000 C 
ATOM      4  C   UNL     1      -0.291  11.781  20.033  0.00  0.00    +0.000 C 
ATOM      5  C   UNL     1       0.013  10.480  19.290  0.00  0.00    +0.000 C 
ATOM      6  C   UNL     1       0.344  11.680  21.413  0.00  0.00    +0.000 C 
ATOM      7  O   UNL     1       1.563  11.839  21.542  0.00  0.00    +0.000 OA
ATOM      8  C   UNL     1      -0.486  11.275  22.619  0.00  0.00    +0.000 C 
ATOM      9  C   UNL     1      -0.540   9.753  22.757  0.00  0.00    +0.000 C 
ATOM     10  H   UNL     1      -3.416  12.217  21.292  0.00  0.00    +0.000 HD
ENDROOT
BRANCH   1  14
ATOM     11  C   UNL     1      -2.105  15.995  24.076  0.00  0.00    +0.000 A 
ATOM     12  C   UNL     1      -0.895  15.449  23.643  0.00  0.00    +0.000 A 
ATOM     13  C   UNL     1      -0.835  14.155  23.145  0.00  0.00    +0.000 A 
ATOM     14  C   UNL     1      -1.971  13.334  23.121  0.00  0.00    +0.000 A 
ATOM     15  C   UNL     1      -3.188  13.857  23.635  0.00  0.00    +0.000 A 
ATOM     16  C   UNL     1      -3.261  15.193  24.114  0.00  0.00    +0.000 A 
BRANCH  11  18
ATOM     17  C   UNL     1      -1.790  17.578  25.798  0.00  0.00    +0.000 C 
ATOM     18  O   UNL     1      -2.175  17.312  24.454  0.00  0.00    +0.000 OA
ENDBRANCH  11  18
BRANCH  15  19
ATOM     19  O   UNL     1      -4.267  13.002  23.546  0.00  0.00    +0.000 OA
ATOM     20  C   UNL     1      -4.673  12.334  24.738  0.00  0.00    +0.000 C 
ENDBRANCH  15  19
BRANCH  16  21
ATOM     21  O   UNL     1      -4.508  15.637  24.477  0.00  0.00    +0.000 OA
ATOM     22  C   UNL     1      -5.333  16.257  23.500  0.00  0.00    +0.000 C 
ENDBRANCH  16  21
ENDBRANCH   1  14
BRANCH   3  23
ATOM     23  C   UNL     1      -2.581  11.947  18.812  0.00  0.00    +0.000 A 
ATOM     24  C   UNL     1      -1.887  11.667  17.626  0.00  0.00    +0.000 A 
ATOM     25  C   UNL     1      -2.534  11.229  16.478  0.00  0.00    +0.000 A 
ATOM     26  C   UNL     1      -3.917  11.079  16.460  0.00  0.00    +0.000 A 
ATOM     27  C   UNL     1      -4.668  11.410  17.611  0.00  0.00    +0.000 A 
ATOM     28  C   UNL     1      -3.996  11.887  18.780  0.00  0.00    +0.000 A 
BRANCH  26  29
ATOM     29  O   UNL     1      -4.559  10.530  15.377  0.00  0.00    +0.000 OA
ATOM     30  C   UNL     1      -3.726  10.124  14.295  0.00  0.00    +0.000 C 
ENDBRANCH  26  29
BRANCH  27  31
ATOM     31  O   UNL     1      -6.023  11.202  17.723  0.00  0.00    +0.000 OA
ATOM     32  C   UNL     1      -6.896  12.280  17.386  0.00  0.00    +0.000 C 
ENDBRANCH  27  31
BRANCH  28  33
ATOM     33  O   UNL     1      -4.630  12.287  19.936  0.00  0.00    +0.000 OA
ATOM     34  C   UNL     1      -5.026  13.660  20.000  0.00  0.00    +0.000 C 
ENDBRANCH  28  33
ENDBRANCH   3  23
TORSDOF 8
ENDMDL
MODEL 7
REMARK VINA RESULT:      -6.0      4.838     11.167
REMARK  Name = 
REMARK  16 active torsions:
REMARK  status: ('A' for Active; 'I' for Inactive)
REMARK    1  A    between atoms: C_1  and  O_2
REMARK    2  A    between atoms: O_2  and  C_3
REMARK    3  A    between atoms: C_6  and  C_7
REMARK    4  A    between atoms: C_9  and  C_10
REMARK    5  A    between atoms: C_13  and  O_14
REMARK    6  A    between atoms: O_14  and  C_15
REMARK    7  A    between atoms: C_16  and  O_17
REMARK    8  A    between atoms: O_17  and  C_18
REMARK    9  A    between atoms: C_19  and  O_20
REMARK   10  A    between atoms: O_20  and  C_21
REMARK   11  A    between atoms: C_22  and  C_23
REMARK   12  A    between atoms: C_26  and  C_27
REMARK   13  A    between atoms: C_28  and  O_29
REMARK   14  A    between atoms: O_29  and  C_30
REMARK   15  A    between atoms: C_31  and  O_32
REMARK   16  A    between atoms: O_32  and  C_33
REMARK                            x       y       z     vdW  Elec       q    Type
REMARK                         _______ _______ _______ _____ _____    ______ ____
ROOT
ATOM      1  C   UNL     1      -2.495  12.863  22.241  0.00  0.00    +0.000 C 
ATOM      2  N   UNL     1      -1.564  11.772  21.965  0.00  0.00    +0.000 NA
ATOM      3  C   UNL     1      -0.836  11.803  20.682  0.00  0.00    +0.000 C 
ATOM      4  C   UNL     1      -0.163  13.164  20.379  0.00  0.00    +0.000 C 
ATOM      5  C   UNL     1       1.277  13.365  20.852  0.00  0.00    +0.000 C 
ATOM      6  C   UNL     1      -0.980  14.346  20.880  0.00  0.00    +0.000 C 
ATOM      7  O   UNL     1      -0.897  15.439  20.306  0.00  0.00    +0.000 OA
ATOM      8  C   UNL     1      -1.811  14.232  22.145  0.00  0.00    +0.000 C 
ATOM      9  C   UNL     1      -0.970  14.551  23.382  0.00  0.00    +0.000 C 
ATOM     10  H   UNL     1      -2.088  10.893  22.016  0.00  0.00    +0.000 HD
ENDROOT
BRANCH   1  14
ATOM     11  C   UNL     1      -6.246  12.447  20.059  0.00  0.00    +0.000 A 
ATOM     12  C   UNL     1      -5.015  12.311  19.413  0.00  0.00    +0.000 A 
ATOM     13  C   UNL     1      -3.825  12.423  20.118  0.00  0.00    +0.000 A 
ATOM     14  C   UNL     1      -3.819  12.739  21.483  0.00  0.00    +0.000 A 
ATOM     15  C   UNL     1      -5.066  12.958  22.128  0.00  0.00    +0.000 A 
ATOM     16  C   UNL     1      -6.288  12.811  21.418  0.00  0.00    +0.000 A 
BRANCH  11  18
ATOM     17  C   UNL     1      -7.521  12.873  18.118  0.00  0.00    +0.000 C 
ATOM     18  O   UNL     1      -7.415  12.217  19.377  0.00  0.00    +0.000 OA
ENDBRANCH  11  18
BRANCH  15  19
ATOM     19  O   UNL     1      -4.979  13.231  23.478  0.00  0.00    +0.000 OA
ATOM     20  C   UNL     1      -5.106  14.592  23.880  0.00  0.00    +0.000 C 
ENDBRANCH  15  19
BRANCH  16  21
ATOM     21  O   UNL     1      -7.436  12.927  22.160  0.00  0.00    +0.000 OA
ATOM     22  C   UNL     1      -7.914  11.796  22.877  0.00  0.00    +0.000 C 
ENDBRANCH  16  21
ENDBRANCH   1  14
BRANCH   3  23
ATOM     23  C   UNL     1       0.116  10.589  20.612  0.00  0.00    +0.000 A 
ATOM     24  C   UNL     1       0.530   9.994  21.814  0.00  0.00    +0.000 A 
ATOM     25  C   UNL     1       1.251   8.808  21.839  0.00  0.00    +0.000 A 
ATOM     26  C   UNL     1       1.616   8.177  20.654  0.00  0.00    +0.000 A 
ATOM     27  C   UNL     1       1.278   8.771  19.417  0.00  0.00    +0.000 A 
ATOM     28  C   UNL     1       0.559  10.007  19.400  0.00  0.00    +0.000 A 
BRANCH  26  29
ATOM     29  O   UNL     1       2.219   6.942  20.662  0.00  0.00    +0.000 OA
ATOM     30  C   UNL     1       1.344   5.819  20.709  0.00  0.00    +0.000 C 
ENDBRANCH  26  29
BRANCH  27  31
ATOM     31  O   UNL     1       1.506   8.176  18.197  0.00  0.00    +0.000 OA
ATOM     32  C   UNL     1       2.809   8.293  17.629  0.00  0.00    +0.000 C 
ENDBRANCH  27  31
BRANCH  28  33
ATOM     33  O   UNL     1       0.224  10.699  18.256  0.00  0.00    +0.000 OA
ATOM     34  C   UNL     1      -1.012  10.335  17.634  0.00  0.00    +0.000 C 
ENDBRANCH  28  33
ENDBRANCH   3  23
TORSDOF 8
ENDMDL
MODEL 8
REMARK VINA RESULT:      -6.0      6.072     12.330
REMARK  Name = 
REMARK  16 active torsions:
REMARK  status: ('A' for Active; 'I' for Inactive)
REMARK    1  A    between atoms: C_1  and  O_2
REMARK    2  A    between atoms: O_2  and  C_3
REMARK    3  A    between atoms: C_6  and  C_7
REMARK    4  A    between atoms: C_9  and  C_10
REMARK    5  A    between atoms: C_13  and  O_14
REMARK    6  A    between atoms: O_14  and  C_15
REMARK    7  A    between atoms: C_16  and  O_17
REMARK    8  A    between atoms: O_17  and  C_18
REMARK    9  A    between atoms: C_19  and  O_20
REMARK   10  A    between atoms: O_20  and  C_21
REMARK   11  A    between atoms: C_22  and  C_23
REMARK   12  A    between atoms: C_26  and  C_27
REMARK   13  A    between atoms: C_28  and  O_29
REMARK   14  A    between atoms: O_29  and  C_30
REMARK   15  A    between atoms: C_31  and  O_32
REMARK   16  A    between atoms: O_32  and  C_33
REMARK                            x       y       z     vdW  Elec       q    Type
REMARK                         _______ _______ _______ _____ _____    ______ ____
ROOT
ATOM      1  C   UNL     1      -4.637  13.038  21.833  0.00  0.00    +0.000 C 
ATOM      2  N   UNL     1      -3.409  12.557  21.205  0.00  0.00    +0.000 NA
ATOM      3  C   UNL     1      -2.311  13.527  21.021  0.00  0.00    +0.000 C 
ATOM      4  C   UNL     1      -1.973  14.337  22.296  0.00  0.00    +0.000 C 
ATOM      5  C   UNL     1      -0.908  13.771  23.236  0.00  0.00    +0.000 C 
ATOM      6  C   UNL     1      -3.204  14.651  23.134  0.00  0.00    +0.000 C 
ATOM      7  O   UNL     1      -3.225  15.666  23.841  0.00  0.00    +0.000 OA
ATOM      8  C   UNL     1      -4.365  13.675  23.201  0.00  0.00    +0.000 C 
ATOM      9  C   UNL     1      -4.138  12.630  24.295  0.00  0.00    +0.000 C 
ATOM     10  H   UNL     1      -3.656  12.174  20.288  0.00  0.00    +0.000 HD
ENDROOT
BRANCH   1  14
ATOM     11  C   UNL     1      -7.097  15.430  19.143  0.00  0.00    +0.000 A 
ATOM     12  C   UNL     1      -6.457  16.006  20.242  0.00  0.00    +0.000 A 
ATOM     13  C   UNL     1      -5.658  15.243  21.081  0.00  0.00    +0.000 A 
ATOM     14  C   UNL     1      -5.519  13.862  20.892  0.00  0.00    +0.000 A 
ATOM     15  C   UNL     1      -6.232  13.256  19.822  0.00  0.00    +0.000 A 
ATOM     16  C   UNL     1      -7.024  14.039  18.940  0.00  0.00    +0.000 A 
BRANCH  11  18
ATOM     17  C   UNL     1      -6.984  16.883  17.286  0.00  0.00    +0.000 C 
ATOM     18  O   UNL     1      -7.786  16.214  18.253  0.00  0.00    +0.000 OA
ENDBRANCH  11  18
BRANCH  15  19
ATOM     19  O   UNL     1      -6.017  11.900  19.680  0.00  0.00    +0.000 OA
ATOM     20  C   UNL     1      -7.046  11.023  20.132  0.00  0.00    +0.000 C 
ENDBRANCH  15  19
BRANCH  16  21
ATOM     21  O   UNL     1      -7.573  13.375  17.872  0.00  0.00    +0.000 OA
ATOM     22  C   UNL     1      -6.793  13.186  16.699  0.00  0.00    +0.000 C 
ENDBRANCH  16  21
ENDBRANCH   1  14
BRANCH   3  23
ATOM     23  C   UNL     1      -1.104  12.806  20.382  0.00  0.00    +0.000 A 
ATOM     24  C   UNL     1      -1.086  11.403  20.383  0.00  0.00    +0.000 A 
ATOM     25  C   UNL     1      -0.124  10.678  19.692  0.00  0.00    +0.000 A 
ATOM     26  C   UNL     1       0.884  11.330  18.989  0.00  0.00    +0.000 A 
ATOM     27  C   UNL     1       0.946  12.742  19.011  0.00  0.00    +0.000 A 
ATOM     28  C   UNL     1      -0.032  13.481  19.748  0.00  0.00    +0.000 A 
BRANCH  26  29
ATOM     29  O   UNL     1       1.767  10.634  18.200  0.00  0.00    +0.000 OA
ATOM     30  C   UNL     1       1.464   9.259  17.986  0.00  0.00    +0.000 C 
ENDBRANCH  26  29
BRANCH  27  31
ATOM     31  O   UNL     1       1.841  13.478  18.270  0.00  0.00    +0.000 OA
ATOM     32  C   UNL     1       3.085  13.825  18.876  0.00  0.00    +0.000 C 
ENDBRANCH  27  31
BRANCH  28  33
ATOM     33  O   UNL     1      -0.038  14.853  19.880  0.00  0.00    +0.000 OA
ATOM     34  C   UNL     1      -0.417  15.600  18.721  0.00  0.00    +0.000 C 
ENDBRANCH  28  33
ENDBRANCH   3  23
TORSDOF 8
ENDMDL
MODEL 9
REMARK VINA RESULT:      -6.0      6.098     11.086
REMARK  Name = 
REMARK  16 active torsions:
REMARK  status: ('A' for Active; 'I' for Inactive)
REMARK    1  A    between atoms: C_1  and  O_2
REMARK    2  A    between atoms: O_2  and  C_3
REMARK    3  A    between atoms: C_6  and  C_7
REMARK    4  A    between atoms: C_9  and  C_10
REMARK    5  A    between atoms: C_13  and  O_14
REMARK    6  A    between atoms: O_14  and  C_15
REMARK    7  A    between atoms: C_16  and  O_17
REMARK    8  A    between atoms: O_17  and  C_18
REMARK    9  A    between atoms: C_19  and  O_20
REMARK   10  A    between atoms: O_20  and  C_21
REMARK   11  A    between atoms: C_22  and  C_23
REMARK   12  A    between atoms: C_26  and  C_27
REMARK   13  A    between atoms: C_28  and  O_29
REMARK   14  A    between atoms: O_29  and  C_30
REMARK   15  A    between atoms: C_31  and  O_32
REMARK   16  A    between atoms: O_32  and  C_33
REMARK                            x       y       z     vdW  Elec       q    Type
REMARK                         _______ _______ _______ _____ _____    ______ ____
ROOT
ATOM      1  C   UNL     1      -1.197  16.207  21.206  0.00  0.00    +0.000 C 
ATOM      2  N   UNL     1      -1.323  14.939  20.491  0.00  0.00    +0.000 NA
ATOM      3  C   UNL     1      -0.641  13.762  21.064  0.00  0.00    +0.000 C 
ATOM      4  C   UNL     1      -0.920  13.551  22.572  0.00  0.00    +0.000 C 
ATOM      5  C   UNL     1      -2.108  12.670  22.958  0.00  0.00    +0.000 C 
ATOM      6  C   UNL     1      -1.055  14.863  23.332  0.00  0.00    +0.000 C 
ATOM      7  O   UNL     1      -0.760  14.912  24.532  0.00  0.00    +0.000 OA
ATOM      8  C   UNL     1      -1.656  16.087  22.663  0.00  0.00    +0.000 C 
ATOM      9  C   UNL     1      -3.180  16.088  22.796  0.00  0.00    +0.000 C 
ATOM     10  H   UNL     1      -0.973  15.081  19.539  0.00  0.00    +0.000 HD
ENDROOT
BRANCH   1  14
ATOM     11  C   UNL     1       2.691  18.105  20.668  0.00  0.00    +0.000 A 
ATOM     12  C   UNL     1       2.139  17.935  21.939  0.00  0.00    +0.000 A 
ATOM     13  C   UNL     1       0.911  17.310  22.105  0.00  0.00    +0.000 A 
ATOM     14  C   UNL     1       0.158  16.889  21.001  0.00  0.00    +0.000 A 
ATOM     15  C   UNL     1       0.678  17.131  19.701  0.00  0.00    +0.000 A 
ATOM     16  C   UNL     1       1.950  17.740  19.528  0.00  0.00    +0.000 A 
BRANCH  11  18
ATOM     17  C   UNL     1       4.917  18.124  21.454  0.00  0.00    +0.000 C 
ATOM     18  O   UNL     1       3.957  18.615  20.525  0.00  0.00    +0.000 OA
ENDBRANCH  11  18
BRANCH  15  19
ATOM     19  O   UNL     1      -0.105  16.658  18.668  0.00  0.00    +0.000 OA
ATOM     20  C   UNL     1      -0.860  17.613  17.927  0.00  0.00    +0.000 C 
ENDBRANCH  15  19
BRANCH  16  21
ATOM     21  O   UNL     1       2.411  17.819  18.238  0.00  0.00    +0.000 OA
ATOM     22  C   UNL     1       3.130  16.722  17.691  0.00  0.00    +0.000 C 
ENDBRANCH  16  21
ENDBRANCH   1  14
BRANCH   3  23
ATOM     23  C   UNL     1      -0.935  12.530  20.180  0.00  0.00    +0.000 A 
ATOM     24  C   UNL     1      -2.137  12.496  19.459  0.00  0.00    +0.000 A 
ATOM     25  C   UNL     1      -2.407  11.508  18.521  0.00  0.00    +0.000 A 
ATOM     26  C   UNL     1      -1.490  10.488  18.284  0.00  0.00    +0.000 A 
ATOM     27  C   UNL     1      -0.292  10.443  19.032  0.00  0.00    +0.000 A 
ATOM     28  C   UNL     1      -0.034  11.449  20.016  0.00  0.00    +0.000 A 
BRANCH  26  29
ATOM     29  O   UNL     1      -1.684   9.577  17.276  0.00  0.00    +0.000 OA
ATOM     30  C   UNL     1      -2.747   9.862  16.371  0.00  0.00    +0.000 C 
ENDBRANCH  26  29
BRANCH  27  31
ATOM     31  O   UNL     1       0.717   9.536  18.803  0.00  0.00    +0.000 OA
ATOM     32  C   UNL     1       1.748   9.899  17.886  0.00  0.00    +0.000 C 
ENDBRANCH  27  31
BRANCH  28  33
ATOM     33  O   UNL     1       1.074  11.474  20.836  0.00  0.00    +0.000 OA
ATOM     34  C   UNL     1       2.091  12.420  20.498  0.00  0.00    +0.000 C 
ENDBRANCH  28  33
ENDBRANCH   3  23
TORSDOF 8
ENDMDL
