MODEL 1
REMARK VINA RESULT:      -7.3      0.000      0.000
REMARK  Name = 
REMARK  8 active torsions:
REMARK  status: ('A' for Active; 'I' for Inactive)
REMARK    1  A    between atoms: C_1  and  C_2
REMARK    2  A    between atoms: C_5  and  S_6
REMARK    3  A    between atoms: S_6  and  C_7
REMARK    4  A    between atoms: C_7  and  C_8
REMARK    5  A    between atoms: C_8  and  N_9
REMARK    6  A    between atoms: C_10  and  C_12
REMARK    7  A    between atoms: C_15  and  N_16
REMARK    8  A    between atoms: C_19  and  C_20
REMARK                            x       y       z     vdW  Elec       q    Type
REMARK                         _______ _______ _______ _____ _____    ______ ____
ROOT
ATOM      1  N   UNL     1       1.532   7.965  21.434  0.00  0.00    +0.000 N 
ATOM      2  C   UNL     1       1.900   7.749  20.127  0.00  0.00    +0.000 C 
ATOM      3  O   UNL     1       1.953   8.634  19.280  0.00  0.00    +0.000 OA
ATOM      4  H   UNL     1       1.235   7.177  21.997  0.00  0.00    +0.000 HD
ENDROOT
BRANCH   2   5
ATOM      5  C   UNL     1       2.218   6.341  19.757  0.00  0.00    +0.000 A 
ATOM      6  C   UNL     1       2.893   6.021  18.573  0.00  0.00    +0.000 A 
ATOM      7  C   UNL     1       3.124   4.680  18.245  0.00  0.00    +0.000 A 
ATOM      8  C   UNL     1       2.682   3.666  19.113  0.00  0.00    +0.000 A 
ATOM      9  C   UNL     1       2.029   3.962  20.319  0.00  0.00    +0.000 A 
ATOM     10  C   UNL     1       1.609   2.942  21.341  0.00  0.00    +0.000 C 
ATOM     11  C   UNL     1       1.783   5.315  20.614  0.00  0.00    +0.000 A 
BRANCH   8  12
ATOM     12  N   UNL     1       2.916   2.294  18.693  0.00  0.00    +0.000 N 
ATOM     13  O   UNL     1       3.951   1.748  19.099  0.00  0.00    +0.000 OA
ATOM     14  O   UNL     1       2.087   1.783  17.928  0.00  0.00    +0.000 OA
ENDBRANCH   8  12
ENDBRANCH   2   5
BRANCH   1  15
ATOM     15  C   UNL     1       1.159   9.285  21.920  0.00  0.00    +0.000 C 
BRANCH  15  16
ATOM     16  C   UNL     1      -0.284   9.670  21.574  0.00  0.00    +0.000 C 
BRANCH  16  17
ATOM     17  S   UNL     1      -0.310  11.367  20.881  0.00  0.00    +0.000 S 
BRANCH  17  22
ATOM     18  C   UNL     1      -3.523  10.315  15.801  0.00  0.00    +0.000 C 
ATOM     19  C   UNL     1      -2.722  10.627  17.030  0.00  0.00    +0.000 A 
ATOM     20  C   UNL     1      -1.502   9.989  17.271  0.00  0.00    +0.000 A 
ATOM     21  C   UNL     1      -0.781  10.263  18.435  0.00  0.00    +0.000 A 
ATOM     22  C   UNL     1      -1.258  11.180  19.380  0.00  0.00    +0.000 A 
ATOM     23  C   UNL     1      -2.475  11.821  19.136  0.00  0.00    +0.000 A 
ATOM     24  C   UNL     1      -3.199  11.548  17.969  0.00  0.00    +0.000 A 
ENDBRANCH  17  22
ENDBRANCH  16  17
ENDBRANCH  15  16
ENDBRANCH   1  15
TORSDOF 6
ENDMDL
MODEL 2
REMARK VINA RESULT:      -7.2      4.439      6.838
REMARK  Name = 
REMARK  8 active torsions:
REMARK  status: ('A' for Active; 'I' for Inactive)
REMARK    1  A    between atoms: C_1  and  C_2
REMARK    2  A    between atoms: C_5  and  S_6
REMARK    3  A    between atoms: S_6  and  C_7
REMARK    4  A    between atoms: C_7  and  C_8
REMARK    5  A    between atoms: C_8  and  N_9
REMARK    6  A    between atoms: C_10  and  C_12
REMARK    7  A    between atoms: C_15  and  N_16
REMARK    8  A    between atoms: C_19  and  C_20
REMARK                            x       y       z     vdW  Elec       q    Type
REMARK                         _______ _______ _______ _____ _____    ______ ____
ROOT
ATOM      1  N   UNL     1       4.728   2.945  18.631  0.00  0.00    +0.000 N 
ATOM      2  C   UNL     1       5.272   4.187  18.403  0.00  0.00    +0.000 C 
ATOM      3  O   UNL     1       5.215   5.112  19.205  0.00  0.00    +0.000 OA
ATOM      4  H   UNL     1       4.556   2.332  17.843  0.00  0.00    +0.000 HD
ENDROOT
BRANCH   2   5
ATOM      5  C   UNL     1       5.933   4.383  17.081  0.00  0.00    +0.000 A 
ATOM      6  C   UNL     1       7.209   4.947  16.969  0.00  0.00    +0.000 A 
ATOM      7  C   UNL     1       7.767   5.158  15.703  0.00  0.00    +0.000 A 
ATOM      8  C   UNL     1       7.043   4.792  14.554  0.00  0.00    +0.000 A 
ATOM      9  C   UNL     1       5.773   4.200  14.641  0.00  0.00    +0.000 A 
ATOM     10  C   UNL     1       4.977   3.699  13.468  0.00  0.00    +0.000 C 
ATOM     11  C   UNL     1       5.221   4.024  15.924  0.00  0.00    +0.000 A 
BRANCH   8  12
ATOM     12  N   UNL     1       7.661   5.077  13.269  0.00  0.00    +0.000 N 
ATOM     13  O   UNL     1       8.539   5.950  13.247  0.00  0.00    +0.000 OA
ATOM     14  O   UNL     1       7.239   4.456  12.285  0.00  0.00    +0.000 OA
ENDBRANCH   8  12
ENDBRANCH   2   5
BRANCH   1  15
ATOM     15  C   UNL     1       4.021   2.629  19.863  0.00  0.00    +0.000 C 
BRANCH  15  16
ATOM     16  C   UNL     1       2.659   1.966  19.624  0.00  0.00    +0.000 C 
BRANCH  16  17
ATOM     17  S   UNL     1       1.333   3.050  20.280  0.00  0.00    +0.000 S 
BRANCH  17  22
ATOM     18  C   UNL     1       2.504   8.524  17.853  0.00  0.00    +0.000 C 
ATOM     19  C   UNL     1       2.270   7.177  18.468  0.00  0.00    +0.000 A 
ATOM     20  C   UNL     1       2.048   6.052  17.668  0.00  0.00    +0.000 A 
ATOM     21  C   UNL     1       1.799   4.809  18.252  0.00  0.00    +0.000 A 
ATOM     22  C   UNL     1       1.771   4.659  19.644  0.00  0.00    +0.000 A 
ATOM     23  C   UNL     1       1.998   5.782  20.444  0.00  0.00    +0.000 A 
ATOM     24  C   UNL     1       2.249   7.030  19.859  0.00  0.00    +0.000 A 
ENDBRANCH  17  22
ENDBRANCH  16  17
ENDBRANCH  15  16
ENDBRANCH   1  15
TORSDOF 6
ENDMDL
MODEL 3
REMARK VINA RESULT:      -7.1      1.534      2.167
REMARK  Name = 
REMARK  8 active torsions:
REMARK  status: ('A' for Active; 'I' for Inactive)
REMARK    1  A    between atoms: C_1  and  C_2
REMARK    2  A    between atoms: C_5  and  S_6
REMARK    3  A    between atoms: S_6  and  C_7
REMARK    4  A    between atoms: C_7  and  C_8
REMARK    5  A    between atoms: C_8  and  N_9
REMARK    6  A    between atoms: C_10  and  C_12
REMARK    7  A    between atoms: C_15  and  N_16
REMARK    8  A    between atoms: C_19  and  C_20
REMARK                            x       y       z     vdW  Elec       q    Type
REMARK                         _______ _______ _______ _____ _____    ______ ____
ROOT
ATOM      1  N   UNL     1       1.362   9.269  19.779  0.00  0.00    +0.000 N 
ATOM      2  C   UNL     1       1.866   8.810  18.586  0.00  0.00    +0.000 C 
ATOM      3  O   UNL     1       1.733   9.399  17.519  0.00  0.00    +0.000 OA
ATOM      4  H   UNL     1       1.254   8.620  20.549  0.00  0.00    +0.000 HD
ENDROOT
BRANCH   2   5
ATOM      5  C   UNL     1       2.585   7.505  18.634  0.00  0.00    +0.000 A 
ATOM      6  C   UNL     1       3.569   7.167  17.699  0.00  0.00    +0.000 A 
ATOM      7  C   UNL     1       4.179   5.909  17.755  0.00  0.00    +0.000 A 
ATOM      8  C   UNL     1       3.803   4.998  18.757  0.00  0.00    +0.000 A 
ATOM      9  C   UNL     1       2.838   5.323  19.724  0.00  0.00    +0.000 A 
ATOM     10  C   UNL     1       2.447   4.441  20.878  0.00  0.00    +0.000 C 
ATOM     11  C   UNL     1       2.218   6.582  19.630  0.00  0.00    +0.000 A 
BRANCH   8  12
ATOM     12  N   UNL     1       4.444   3.693  18.734  0.00  0.00    +0.000 N 
ATOM     13  O   UNL     1       5.444   3.543  19.450  0.00  0.00    +0.000 OA
ATOM     14  O   UNL     1       3.971   2.839  17.972  0.00  0.00    +0.000 OA
ENDBRANCH   8  12
ENDBRANCH   2   5
BRANCH   1  15
ATOM     15  C   UNL     1       0.608  10.510  19.869  0.00  0.00    +0.000 C 
BRANCH  15  16
ATOM     16  C   UNL     1      -0.893  10.289  20.099  0.00  0.00    +0.000 C 
BRANCH  16  17
ATOM     17  S   UNL     1      -1.828  11.708  19.410  0.00  0.00    +0.000 S 
BRANCH  17  22
ATOM     18  C   UNL     1      -4.032   9.921  14.008  0.00  0.00    +0.000 C 
ATOM     19  C   UNL     1      -3.503  10.308  15.357  0.00  0.00    +0.000 A 
ATOM     20  C   UNL     1      -4.169  11.250  16.145  0.00  0.00    +0.000 A 
ATOM     21  C   UNL     1      -3.649  11.628  17.385  0.00  0.00    +0.000 A 
ATOM     22  C   UNL     1      -2.457  11.071  17.866  0.00  0.00    +0.000 A 
ATOM     23  C   UNL     1      -1.794  10.125  17.081  0.00  0.00    +0.000 A 
ATOM     24  C   UNL     1      -2.315   9.746  15.837  0.00  0.00    +0.000 A 
ENDBRANCH  17  22
ENDBRANCH  16  17
ENDBRANCH  15  16
ENDBRANCH   1  15
TORSDOF 6
ENDMDL
MODEL 4
REMARK VINA RESULT:      -7.1      1.598      1.994
REMARK  Name = 
REMARK  8 active torsions:
REMARK  status: ('A' for Active; 'I' for Inactive)
REMARK    1  A    between atoms: C_1  and  C_2
REMARK    2  A    between atoms: C_5  and  S_6
REMARK    3  A    between atoms: S_6  and  C_7
REMARK    4  A    between atoms: C_7  and  C_8
REMARK    5  A    between atoms: C_8  and  N_9
REMARK    6  A    between atoms: C_10  and  C_12
REMARK    7  A    between atoms: C_15  and  N_16
REMARK    8  A    between atoms: C_19  and  C_20
REMARK                            x       y       z     vdW  Elec       q    Type
REMARK                         _______ _______ _______ _____ _____    ______ ____
ROOT
ATOM      1  N   UNL     1       2.219   8.196  18.238  0.00  0.00    +0.000 N 
ATOM      2  C   UNL     1       2.168   7.583  19.468  0.00  0.00    +0.000 C 
ATOM      3  O   UNL     1       1.734   8.123  20.479  0.00  0.00    +0.000 OA
ATOM      4  H   UNL     1       2.834   7.819  17.527  0.00  0.00    +0.000 HD
ENDROOT
BRANCH   2   5
ATOM      5  C   UNL     1       2.706   6.195  19.534  0.00  0.00    +0.000 A 
ATOM      6  C   UNL     1       3.802   5.788  18.764  0.00  0.00    +0.000 A 
ATOM      7  C   UNL     1       4.239   4.460  18.822  0.00  0.00    +0.000 A 
ATOM      8  C   UNL     1       3.577   3.548  19.663  0.00  0.00    +0.000 A 
ATOM      9  C   UNL     1       2.495   3.937  20.466  0.00  0.00    +0.000 A 
ATOM     10  C   UNL     1       1.795   3.047  21.456  0.00  0.00    +0.000 C 
ATOM     11  C   UNL     1       2.055   5.270  20.369  0.00  0.00    +0.000 A 
BRANCH   8  12
ATOM     12  N   UNL     1       4.054   2.174  19.646  0.00  0.00    +0.000 N 
ATOM     13  O   UNL     1       4.959   1.881  20.439  0.00  0.00    +0.000 OA
ATOM     14  O   UNL     1       3.551   1.407  18.814  0.00  0.00    +0.000 OA
ENDBRANCH   8  12
ENDBRANCH   2   5
BRANCH   1  15
ATOM     15  C   UNL     1       1.762   9.563  18.040  0.00  0.00    +0.000 C 
BRANCH  15  16
ATOM     16  C   UNL     1       0.235   9.703  18.092  0.00  0.00    +0.000 C 
BRANCH  16  17
ATOM     17  S   UNL     1      -0.201  11.341  18.789  0.00  0.00    +0.000 S 
BRANCH  17  22
ATOM     18  C   UNL     1      -6.254  11.190  18.030  0.00  0.00    +0.000 C 
ATOM     19  C   UNL     1      -4.767  11.282  18.198  0.00  0.00    +0.000 A 
ATOM     20  C   UNL     1      -3.906  10.559  17.368  0.00  0.00    +0.000 A 
ATOM     21  C   UNL     1      -2.523  10.626  17.556  0.00  0.00    +0.000 A 
ATOM     22  C   UNL     1      -1.971  11.418  18.570  0.00  0.00    +0.000 A 
ATOM     23  C   UNL     1      -2.832  12.145  19.396  0.00  0.00    +0.000 A 
ATOM     24  C   UNL     1      -4.218  12.079  19.209  0.00  0.00    +0.000 A 
ENDBRANCH  17  22
ENDBRANCH  16  17
ENDBRANCH  15  16
ENDBRANCH   1  15
TORSDOF 6
ENDMDL
MODEL 5
REMARK VINA RESULT:      -7.1      3.612      7.756
REMARK  Name = 
REMARK  8 active torsions:
REMARK  status: ('A' for Active; 'I' for Inactive)
REMARK    1  A    between atoms: C_1  and  C_2
REMARK    2  A    between atoms: C_5  and  S_6
REMARK    3  A    between atoms: S_6  and  C_7
REMARK    4  A    between atoms: C_7  and  C_8
REMARK    5  A    between atoms: C_8  and  N_9
REMARK    6  A    between atoms: C_10  and  C_12
REMARK    7  A    between atoms: C_15  and  N_16
REMARK    8  A    between atoms: C_19  and  C_20
REMARK                            x       y       z     vdW  Elec       q    Type
REMARK                         _______ _______ _______ _____ _____    ______ ____
ROOT
ATOM      1  N   UNL     1       4.088   7.157  17.679  0.00  0.00    +0.000 N 
ATOM      2  C   UNL     1       3.278   7.042  18.784  0.00  0.00    +0.000 C 
ATOM      3  O   UNL     1       3.395   6.157  19.624  0.00  0.00    +0.000 OA
ATOM      4  H   UNL     1       3.772   7.714  16.895  0.00  0.00    +0.000 HD
ENDROOT
BRANCH   2   5
ATOM      5  C   UNL     1       2.192   8.054  18.911  0.00  0.00    +0.000 A 
ATOM      6  C   UNL     1       1.803   8.862  17.837  0.00  0.00    +0.000 A 
ATOM      7  C   UNL     1       0.812   9.834  18.020  0.00  0.00    +0.000 A 
ATOM      8  C   UNL     1       0.211   9.984  19.281  0.00  0.00    +0.000 A 
ATOM      9  C   UNL     1       0.563   9.168  20.368  0.00  0.00    +0.000 A 
ATOM     10  C   UNL     1      -0.095   9.204  21.719  0.00  0.00    +0.000 C 
ATOM     11  C   UNL     1       1.581   8.217  20.167  0.00  0.00    +0.000 A 
BRANCH   8  12
ATOM     12  N   UNL     1      -0.781  11.039  19.416  0.00  0.00    +0.000 N 
ATOM     13  O   UNL     1      -1.912  10.811  18.966  0.00  0.00    +0.000 OA
ATOM     14  O   UNL     1      -0.414  12.103  19.933  0.00  0.00    +0.000 OA
ENDBRANCH   8  12
ENDBRANCH   2   5
BRANCH   1  15
ATOM     15  C   UNL     1       5.164   6.214  17.412  0.00  0.00    +0.000 C 
BRANCH  15  16
ATOM     16  C   UNL     1       5.043   5.533  16.043  0.00  0.00    +0.000 C 
BRANCH  16  17
ATOM     17  S   UNL     1       5.117   3.714  16.261  0.00  0.00    +0.000 S 
BRANCH  17  22
ATOM     18  C   UNL     1       1.038   2.846  20.715  0.00  0.00    +0.000 C 
ATOM     19  C   UNL     1       2.018   3.015  19.592  0.00  0.00    +0.000 A 
ATOM     20  C   UNL     1       3.376   2.742  19.778  0.00  0.00    +0.000 A 
ATOM     21  C   UNL     1       4.284   2.935  18.734  0.00  0.00    +0.000 A 
ATOM     22  C   UNL     1       3.857   3.398  17.484  0.00  0.00    +0.000 A 
ATOM     23  C   UNL     1       2.499   3.666  17.296  0.00  0.00    +0.000 A 
ATOM     24  C   UNL     1       1.587   3.473  18.342  0.00  0.00    +0.000 A 
ENDBRANCH  17  22
ENDBRANCH  16  17
ENDBRANCH  15  16
ENDBRANCH   1  15
TORSDOF 6
ENDMDL
MODEL 6
REMARK VINA RESULT:      -7.1      3.720      7.936
REMARK  Name = 
REMARK  8 active torsions:
REMARK  status: ('A' for Active; 'I' for Inactive)
REMARK    1  A    between atoms: C_1  and  C_2
REMARK    2  A    between atoms: C_5  and  S_6
REMARK    3  A    between atoms: S_6  and  C_7
REMARK    4  A    between atoms: C_7  and  C_8
REMARK    5  A    between atoms: C_8  and  N_9
REMARK    6  A    between atoms: C_10  and  C_12
REMARK    7  A    between atoms: C_15  and  N_16
REMARK    8  A    between atoms: C_19  and  C_20
REMARK                            x       y       z     vdW  Elec       q    Type
REMARK                         _______ _______ _______ _____ _____    ______ ____
ROOT
ATOM      1  N   UNL     1       2.405   4.740  18.972  0.00  0.00    +0.000 N 
ATOM      2  C   UNL     1       2.286   5.600  20.038  0.00  0.00    +0.000 C 
ATOM      3  O   UNL     1       2.433   5.259  21.206  0.00  0.00    +0.000 OA
ATOM      4  H   UNL     1       2.000   5.004  18.082  0.00  0.00    +0.000 HD
ENDROOT
BRANCH   2   5
ATOM      5  C   UNL     1       1.932   7.010  19.710  0.00  0.00    +0.000 A 
ATOM      6  C   UNL     1       2.198   7.567  18.454  0.00  0.00    +0.000 A 
ATOM      7  C   UNL     1       1.893   8.911  18.211  0.00  0.00    +0.000 A 
ATOM      8  C   UNL     1       1.313   9.688  19.230  0.00  0.00    +0.000 A 
ATOM      9  C   UNL     1       1.010   9.145  20.488  0.00  0.00    +0.000 A 
ATOM     10  C   UNL     1       0.309   9.882  21.595  0.00  0.00    +0.000 C 
ATOM     11  C   UNL     1       1.352   7.800  20.719  0.00  0.00    +0.000 A 
BRANCH   8  12
ATOM     12  N   UNL     1       1.059  11.087  18.926  0.00  0.00    +0.000 N 
ATOM     13  O   UNL     1      -0.031  11.363  18.407  0.00  0.00    +0.000 OA
ATOM     14  O   UNL     1       1.964  11.896  19.170  0.00  0.00    +0.000 OA
ENDBRANCH   8  12
ENDBRANCH   2   5
BRANCH   1  15
ATOM     15  C   UNL     1       2.710   3.329  19.151  0.00  0.00    +0.000 C 
BRANCH  15  16
ATOM     16  C   UNL     1       4.148   2.968  18.761  0.00  0.00    +0.000 C 
BRANCH  16  17
ATOM     17  S   UNL     1       4.470   3.524  17.044  0.00  0.00    +0.000 S 
BRANCH  17  22
ATOM     18  C   UNL     1       8.101   8.345  17.939  0.00  0.00    +0.000 C 
ATOM     19  C   UNL     1       7.247   7.140  17.681  0.00  0.00    +0.000 A 
ATOM     20  C   UNL     1       6.022   7.258  17.018  0.00  0.00    +0.000 A 
ATOM     21  C   UNL     1       5.220   6.133  16.814  0.00  0.00    +0.000 A 
ATOM     22  C   UNL     1       5.623   4.869  17.260  0.00  0.00    +0.000 A 
ATOM     23  C   UNL     1       6.850   4.750  17.918  0.00  0.00    +0.000 A 
ATOM     24  C   UNL     1       7.656   5.877  18.123  0.00  0.00    +0.000 A 
ENDBRANCH  17  22
ENDBRANCH  16  17
ENDBRANCH  15  16
ENDBRANCH   1  15
TORSDOF 6
ENDMDL
MODEL 7
REMARK VINA RESULT:      -7.0      6.706      9.807
REMARK  Name = 
REMARK  8 active torsions:
REMARK  status: ('A' for Active; 'I' for Inactive)
REMARK    1  A    between atoms: C_1  and  C_2
REMARK    2  A    between atoms: C_5  and  S_6
REMARK    3  A    between atoms: S_6  and  C_7
REMARK    4  A    between atoms: C_7  and  C_8
REMARK    5  A    between atoms: C_8  and  N_9
REMARK    6  A    between atoms: C_10  and  C_12
REMARK    7  A    between atoms: C_15  and  N_16
REMARK    8  A    between atoms: C_19  and  C_20
REMARK                            x       y       z     vdW  Elec       q    Type
REMARK                         _______ _______ _______ _____ _____    ______ ____
ROOT
ATOM      1  N   UNL     1       7.397   7.964  17.143  0.00  0.00    +0.000 N 
ATOM      2  C   UNL     1       8.217   8.304  18.193  0.00  0.00    +0.000 C 
ATOM      3  O   UNL     1       8.647   7.497  19.009  0.00  0.00    +0.000 OA
ATOM      4  H   UNL     1       6.855   8.689  16.689  0.00  0.00    +0.000 HD
ENDROOT
BRANCH   2   5
ATOM      5  C   UNL     1       8.553   9.750  18.324  0.00  0.00    +0.000 A 
ATOM      6  C   UNL     1       8.041  10.711  17.445  0.00  0.00    +0.000 A 
ATOM      7  C   UNL     1       8.427  12.050  17.578  0.00  0.00    +0.000 A 
ATOM      8  C   UNL     1       9.321  12.418  18.599  0.00  0.00    +0.000 A 
ATOM      9  C   UNL     1       9.826  11.478  19.510  0.00  0.00    +0.000 A 
ATOM     10  C   UNL     1      10.711  11.805  20.681  0.00  0.00    +0.000 C 
ATOM     11  C   UNL     1       9.447  10.133  19.339  0.00  0.00    +0.000 A 
BRANCH   8  12
ATOM     12  N   UNL     1       9.714  13.817  18.656  0.00  0.00    +0.000 N 
ATOM     13  O   UNL     1      10.736  14.141  18.036  0.00  0.00    +0.000 OA
ATOM     14  O   UNL     1       9.023  14.575  19.350  0.00  0.00    +0.000 OA
ENDBRANCH   8  12
ENDBRANCH   2   5
BRANCH   1  15
ATOM     15  C   UNL     1       6.959   6.595  16.920  0.00  0.00    +0.000 C 
BRANCH  15  16
ATOM     16  C   UNL     1       5.576   6.298  17.512  0.00  0.00    +0.000 C 
BRANCH  16  17
ATOM     17  S   UNL     1       4.906   4.768  16.757  0.00  0.00    +0.000 S 
BRANCH  17  22
ATOM     18  C   UNL     1       1.299   2.805  21.270  0.00  0.00    +0.000 C 
ATOM     19  C   UNL     1       2.154   3.257  20.124  0.00  0.00    +0.000 A 
ATOM     20  C   UNL     1       3.479   2.830  20.006  0.00  0.00    +0.000 A 
ATOM     21  C   UNL     1       4.276   3.284  18.952  0.00  0.00    +0.000 A 
ATOM     22  C   UNL     1       3.768   4.167  17.993  0.00  0.00    +0.000 A 
ATOM     23  C   UNL     1       2.441   4.590  18.107  0.00  0.00    +0.000 A 
ATOM     24  C   UNL     1       1.641   4.136  19.163  0.00  0.00    +0.000 A 
ENDBRANCH  17  22
ENDBRANCH  16  17
ENDBRANCH  15  16
ENDBRANCH   1  15
TORSDOF 6
ENDMDL
MODEL 8
REMARK VINA RESULT:      -7.0      1.340      1.956
REMARK  Name = 
REMARK  8 active torsions:
REMARK  status: ('A' for Active; 'I' for Inactive)
REMARK    1  A    between atoms: C_1  and  C_2
REMARK    2  A    between atoms: C_5  and  S_6
REMARK    3  A    between atoms: S_6  and  C_7
REMARK    4  A    between atoms: C_7  and  C_8
REMARK    5  A    between atoms: C_8  and  N_9
REMARK    6  A    between atoms: C_10  and  C_12
REMARK    7  A    between atoms: C_15  and  N_16
REMARK    8  A    between atoms: C_19  and  C_20
REMARK                            x       y       z     vdW  Elec       q    Type
REMARK                         _______ _______ _______ _____ _____    ______ ____
ROOT
ATOM      1  N   UNL     1       0.449   9.263  20.325  0.00  0.00    +0.000 N 
ATOM      2  C   UNL     1       1.326   8.437  20.986  0.00  0.00    +0.000 C 
ATOM      3  O   UNL     1       1.740   8.652  22.119  0.00  0.00    +0.000 OA
ATOM      4  H   UNL     1       0.371   9.192  19.317  0.00  0.00    +0.000 HD
ENDROOT
BRANCH   2   5
ATOM      5  C   UNL     1       1.794   7.238  20.234  0.00  0.00    +0.000 A 
ATOM      6  C   UNL     1       2.566   7.348  19.072  0.00  0.00    +0.000 A 
ATOM      7  C   UNL     1       2.939   6.194  18.373  0.00  0.00    +0.000 A 
ATOM      8  C   UNL     1       2.540   4.933  18.850  0.00  0.00    +0.000 A 
ATOM      9  C   UNL     1       1.790   4.795  20.028  0.00  0.00    +0.000 A 
ATOM     10  C   UNL     1       1.404   3.482  20.652  0.00  0.00    +0.000 C 
ATOM     11  C   UNL     1       1.403   5.970  20.698  0.00  0.00    +0.000 A 
BRANCH   8  12
ATOM     12  N   UNL     1       2.925   3.778  18.055  0.00  0.00    +0.000 N 
ATOM     13  O   UNL     1       4.015   3.251  18.315  0.00  0.00    +0.000 OA
ATOM     14  O   UNL     1       2.155   3.429  17.150  0.00  0.00    +0.000 OA
ENDBRANCH   8  12
ENDBRANCH   2   5
BRANCH   1  15
ATOM     15  C   UNL     1      -0.058  10.487  20.927  0.00  0.00    +0.000 C 
BRANCH  15  16
ATOM     16  C   UNL     1      -0.300  11.607  19.907  0.00  0.00    +0.000 C 
BRANCH  16  17
ATOM     17  S   UNL     1      -2.095  11.972  19.821  0.00  0.00    +0.000 S 
BRANCH  17  22
ATOM     18  C   UNL     1      -3.809   9.983  14.313  0.00  0.00    +0.000 C 
ATOM     19  C   UNL     1      -3.399  10.420  15.688  0.00  0.00    +0.000 A 
ATOM     20  C   UNL     1      -4.167  11.339  16.407  0.00  0.00    +0.000 A 
ATOM     21  C   UNL     1      -3.758  11.763  17.673  0.00  0.00    +0.000 A 
ATOM     22  C   UNL     1      -2.578  11.278  18.250  0.00  0.00    +0.000 A 
ATOM     23  C   UNL     1      -1.812  10.355  17.533  0.00  0.00    +0.000 A 
ATOM     24  C   UNL     1      -2.222   9.928  16.263  0.00  0.00    +0.000 A 
ENDBRANCH  17  22
ENDBRANCH  16  17
ENDBRANCH  15  16
ENDBRANCH   1  15
TORSDOF 6
ENDMDL
MODEL 9
REMARK VINA RESULT:      -7.0      3.702      7.840
REMARK  Name = 
REMARK  8 active torsions:
REMARK  status: ('A' for Active; 'I' for Inactive)
REMARK    1  A    between atoms: C_1  and  C_2
REMARK    2  A    between atoms: C_5  and  S_6
REMARK    3  A    between atoms: S_6  and  C_7
REMARK    4  A    between atoms: C_7  and  C_8
REMARK    5  A    between atoms: C_8  and  N_9
REMARK    6  A    between atoms: C_10  and  C_12
REMARK    7  A    between atoms: C_15  and  N_16
REMARK    8  A    between atoms: C_19  and  C_20
REMARK                            x       y       z     vdW  Elec       q    Type
REMARK                         _______ _______ _______ _____ _____    ______ ____
ROOT
ATOM      1  N   UNL     1       2.317   4.606  18.740  0.00  0.00    +0.000 N 
ATOM      2  C   UNL     1       2.451   5.519  19.759  0.00  0.00    +0.000 C 
ATOM      3  O   UNL     1       2.847   5.230  20.883  0.00  0.00    +0.000 OA
ATOM      4  H   UNL     1       1.730   4.837  17.948  0.00  0.00    +0.000 HD
ENDROOT
BRANCH   2   5
ATOM      5  C   UNL     1       2.055   6.920  19.444  0.00  0.00    +0.000 A 
ATOM      6  C   UNL     1       2.211   7.463  18.163  0.00  0.00    +0.000 A 
ATOM      7  C   UNL     1       1.871   8.800  17.928  0.00  0.00    +0.000 A 
ATOM      8  C   UNL     1       1.368   9.585  18.981  0.00  0.00    +0.000 A 
ATOM      9  C   UNL     1       1.176   9.056  20.267  0.00  0.00    +0.000 A 
ATOM     10  C   UNL     1       0.560   9.801  21.419  0.00  0.00    +0.000 C 
ATOM     11  C   UNL     1       1.551   7.718  20.486  0.00  0.00    +0.000 A 
BRANCH   8  12
ATOM     12  N   UNL     1       1.075  10.977  18.681  0.00  0.00    +0.000 N 
ATOM     13  O   UNL     1       2.026  11.769  18.694  0.00  0.00    +0.000 OA
ATOM     14  O   UNL     1      -0.109  11.277  18.474  0.00  0.00    +0.000 OA
ENDBRANCH   8  12
ENDBRANCH   2   5
BRANCH   1  15
ATOM     15  C   UNL     1       2.633   3.197  18.922  0.00  0.00    +0.000 C 
BRANCH  15  16
ATOM     16  C   UNL     1       4.071   2.844  18.524  0.00  0.00    +0.000 C 
BRANCH  16  17
ATOM     17  S   UNL     1       4.433   3.545  16.869  0.00  0.00    +0.000 S 
BRANCH  17  22
ATOM     18  C   UNL     1       8.215   8.187  18.045  0.00  0.00    +0.000 C 
ATOM     19  C   UNL     1       7.245   7.072  17.788  0.00  0.00    +0.000 A 
ATOM     20  C   UNL     1       7.456   5.800  18.327  0.00  0.00    +0.000 A 
ATOM     21  C   UNL     1       6.564   4.761  18.053  0.00  0.00    +0.000 A 
ATOM     22  C   UNL     1       5.442   4.969  17.242  0.00  0.00    +0.000 A 
ATOM     23  C   UNL     1       5.228   6.242  16.708  0.00  0.00    +0.000 A 
ATOM     24  C   UNL     1       6.122   7.285  16.982  0.00  0.00    +0.000 A 
ENDBRANCH  17  22
ENDBRANCH  16  17
ENDBRANCH  15  16
ENDBRANCH   1  15
TORSDOF 6
ENDMDL
