MODEL 1
REMARK VINA RESULT:      -8.8      0.000      0.000
REMARK  Name = 
REMARK  7 active torsions:
REMARK  status: ('A' for Active; 'I' for Inactive)
REMARK    1  A    between atoms: C_1  and  C_2
REMARK    2  A    between atoms: C_2  and  N_3
REMARK    3  A    between atoms: C_10  and  N_11
REMARK    4  A    between atoms: N_11  and  C_12
REMARK    5  A    between atoms: C_14  and  C_15
REMARK    6  A    between atoms: C_17  and  C_18
REMARK    7  A    between atoms: C_25  and  C_26
REMARK                            x       y       z     vdW  Elec       q    Type
REMARK                         _______ _______ _______ _____ _____    ______ ____
ROOT
ATOM      1  C   UNL     1       2.141   7.728  19.778  0.00  0.00    +0.000 A 
ATOM      2  C   UNL     1       1.300   8.468  20.615  0.00  0.00    +0.000 A 
ATOM      3  C   UNL     1       0.568   9.538  20.118  0.00  0.00    +0.000 A 
ATOM      4  N   UNL     1       0.695   9.928  18.826  0.00  0.00    +0.000 NA
ATOM      5  C   UNL     1       1.539   9.229  18.032  0.00  0.00    +0.000 A 
ATOM      6  C   UNL     1       2.283   8.130  18.447  0.00  0.00    +0.000 A 
ATOM      7  C   UNL     1       3.178   7.404  17.490  0.00  0.00    +0.000 C 
ENDROOT
BRANCH   3   8
ATOM      8  C   UNL     1      -0.337  10.339  20.966  0.00  0.00    +0.000 A 
ATOM      9  C   UNL     1      -1.103  11.382  20.411  0.00  0.00    +0.000 A 
ATOM     10  C   UNL     1      -1.918  12.206  21.204  0.00  0.00    +0.000 A 
ATOM     11  C   UNL     1      -2.707  13.321  20.583  0.00  0.00    +0.000 C 
ATOM     12  C   UNL     1      -1.969  11.997  22.584  0.00  0.00    +0.000 A 
ATOM     13  C   UNL     1      -1.254  10.948  23.154  0.00  0.00    +0.000 A 
ATOM     14  C   UNL     1      -0.463  10.128  22.349  0.00  0.00    +0.000 A 
ATOM     15  F   UNL     1       0.177   9.113  22.951  0.00  0.00    +0.000 F 
ENDBRANCH   3   8
BRANCH   1  16
ATOM     16  N   UNL     1       2.847   6.594  20.256  0.00  0.00    +0.000 N 
ATOM     17  H   UNL     1       3.344   6.831  21.102  0.00  0.00    +0.000 HD
BRANCH  16  25
ATOM     18  N   UNL     1       4.678   4.093  19.459  0.00  0.00    +0.000 N 
ATOM     19  N   UNL     1       5.117   2.822  19.295  0.00  0.00    +0.000 NA
ATOM     20  C   UNL     1       4.023   2.085  19.490  0.00  0.00    +0.000 A 
ATOM     21  C   UNL     1       2.897   2.869  19.793  0.00  0.00    +0.000 A 
ATOM     22  N   UNL     1       1.622   2.491  20.043  0.00  0.00    +0.000 NA
ATOM     23  C   UNL     1       0.780   3.507  20.289  0.00  0.00    +0.000 A 
ATOM     24  C   UNL     1       1.140   4.842  20.335  0.00  0.00    +0.000 A 
ATOM     25  C   UNL     1       2.475   5.241  20.140  0.00  0.00    +0.000 A 
ATOM     26  C   UNL     1       3.349   4.190  19.807  0.00  0.00    +0.000 A 
BRANCH  18  28
ATOM     27  C   UNL     1       6.611   4.791  18.078  0.00  0.00    +0.000 C 
ATOM     28  C   UNL     1       5.619   5.158  19.168  0.00  0.00    +0.000 C 
ENDBRANCH  18  28
ENDBRANCH  16  25
ENDBRANCH   1  16
TORSDOF 4
ENDMDL
MODEL 2
REMARK VINA RESULT:      -8.5      2.284      4.804
REMARK  Name = 
REMARK  7 active torsions:
REMARK  status: ('A' for Active; 'I' for Inactive)
REMARK    1  A    between atoms: C_1  and  C_2
REMARK    2  A    between atoms: C_2  and  N_3
REMARK    3  A    between atoms: C_10  and  N_11
REMARK    4  A    between atoms: N_11  and  C_12
REMARK    5  A    between atoms: C_14  and  C_15
REMARK    6  A    between atoms: C_17  and  C_18
REMARK    7  A    between atoms: C_25  and  C_26
REMARK                            x       y       z     vdW  Elec       q    Type
REMARK                         _______ _______ _______ _____ _____    ______ ____
ROOT
ATOM      1  C   UNL     1       3.831   4.860  19.878  0.00  0.00    +0.000 A 
ATOM      2  C   UNL     1       3.381   6.175  19.714  0.00  0.00    +0.000 A 
ATOM      3  C   UNL     1       2.123   6.555  20.162  0.00  0.00    +0.000 A 
ATOM      4  N   UNL     1       1.277   5.650  20.713  0.00  0.00    +0.000 NA
ATOM      5  C   UNL     1       1.707   4.372  20.833  0.00  0.00    +0.000 A 
ATOM      6  C   UNL     1       2.961   3.921  20.438  0.00  0.00    +0.000 A 
ATOM      7  C   UNL     1       3.357   2.489  20.629  0.00  0.00    +0.000 C 
ENDROOT
BRANCH   3   8
ATOM      8  C   UNL     1       1.615   7.933  20.016  0.00  0.00    +0.000 A 
ATOM      9  C   UNL     1       1.016   8.594  21.105  0.00  0.00    +0.000 A 
ATOM     10  C   UNL     1       0.460   9.879  20.979  0.00  0.00    +0.000 A 
ATOM     11  C   UNL     1      -0.187  10.547  22.155  0.00  0.00    +0.000 C 
ATOM     12  C   UNL     1       0.492  10.520  19.738  0.00  0.00    +0.000 A 
ATOM     13  C   UNL     1       1.113   9.907  18.655  0.00  0.00    +0.000 A 
ATOM     14  C   UNL     1       1.675   8.639  18.803  0.00  0.00    +0.000 A 
ATOM     15  F   UNL     1       2.289   8.112  17.731  0.00  0.00    +0.000 F 
ENDBRANCH   3   8
BRANCH   1  16
ATOM     16  N   UNL     1       5.137   4.473  19.483  0.00  0.00    +0.000 N 
ATOM     17  H   UNL     1       5.244   3.474  19.584  0.00  0.00    +0.000 HD
BRANCH  16  25
ATOM     18  N   UNL     1       5.027   4.039  16.313  0.00  0.00    +0.000 N 
ATOM     19  N   UNL     1       5.214   4.220  14.984  0.00  0.00    +0.000 NA
ATOM     20  C   UNL     1       6.192   5.124  14.927  0.00  0.00    +0.000 A 
ATOM     21  C   UNL     1       6.618   5.533  16.201  0.00  0.00    +0.000 A 
ATOM     22  N   UNL     1       7.584   6.417  16.548  0.00  0.00    +0.000 NA
ATOM     23  C   UNL     1       7.746   6.570  17.871  0.00  0.00    +0.000 A 
ATOM     24  C   UNL     1       6.992   5.935  18.842  0.00  0.00    +0.000 A 
ATOM     25  C   UNL     1       5.944   5.063  18.491  0.00  0.00    +0.000 A 
ATOM     26  C   UNL     1       5.817   4.839  17.108  0.00  0.00    +0.000 A 
BRANCH  18  28
ATOM     27  C   UNL     1       2.685   3.492  16.904  0.00  0.00    +0.000 C 
ATOM     28  C   UNL     1       4.106   2.991  16.713  0.00  0.00    +0.000 C 
ENDBRANCH  18  28
ENDBRANCH  16  25
ENDBRANCH   1  16
TORSDOF 4
ENDMDL
MODEL 3
REMARK VINA RESULT:      -8.5      1.098      1.147
REMARK  Name = 
REMARK  7 active torsions:
REMARK  status: ('A' for Active; 'I' for Inactive)
REMARK    1  A    between atoms: C_1  and  C_2
REMARK    2  A    between atoms: C_2  and  N_3
REMARK    3  A    between atoms: C_10  and  N_11
REMARK    4  A    between atoms: N_11  and  C_12
REMARK    5  A    between atoms: C_14  and  C_15
REMARK    6  A    between atoms: C_17  and  C_18
REMARK    7  A    between atoms: C_25  and  C_26
REMARK                            x       y       z     vdW  Elec       q    Type
REMARK                         _______ _______ _______ _____ _____    ______ ____
ROOT
ATOM      1  C   UNL     1       2.443   7.430  19.491  0.00  0.00    +0.000 A 
ATOM      2  C   UNL     1       1.717   8.148  20.446  0.00  0.00    +0.000 A 
ATOM      3  C   UNL     1       1.054   9.318  20.100  0.00  0.00    +0.000 A 
ATOM      4  N   UNL     1       1.142   9.823  18.845  0.00  0.00    +0.000 NA
ATOM      5  C   UNL     1       1.876   9.141  17.937  0.00  0.00    +0.000 A 
ATOM      6  C   UNL     1       2.545   7.950  18.197  0.00  0.00    +0.000 A 
ATOM      7  C   UNL     1       3.318   7.252  17.121  0.00  0.00    +0.000 C 
ENDROOT
BRANCH   3   8
ATOM      8  C   UNL     1       0.270  10.101  21.076  0.00  0.00    +0.000 A 
ATOM      9  C   UNL     1       0.262  11.507  21.024  0.00  0.00    +0.000 A 
ATOM     10  C   UNL     1      -0.416  12.281  21.981  0.00  0.00    +0.000 A 
ATOM     11  C   UNL     1      -0.389  13.779  21.908  0.00  0.00    +0.000 C 
ATOM     12  C   UNL     1      -1.095  11.643  23.022  0.00  0.00    +0.000 A 
ATOM     13  C   UNL     1      -1.137  10.254  23.075  0.00  0.00    +0.000 A 
ATOM     14  C   UNL     1      -0.474   9.501  22.106  0.00  0.00    +0.000 A 
ATOM     15  F   UNL     1      -0.577   8.165  22.191  0.00  0.00    +0.000 F 
ENDBRANCH   3   8
BRANCH   1  16
ATOM     16  N   UNL     1       3.073   6.201  19.814  0.00  0.00    +0.000 N 
ATOM     17  H   UNL     1       3.776   6.351  20.523  0.00  0.00    +0.000 HD
BRANCH  16  25
ATOM     18  N   UNL     1       4.112   3.577  18.303  0.00  0.00    +0.000 N 
ATOM     19  N   UNL     1       4.278   2.281  17.944  0.00  0.00    +0.000 NA
ATOM     20  C   UNL     1       3.243   1.664  18.514  0.00  0.00    +0.000 A 
ATOM     21  C   UNL     1       2.430   2.546  19.245  0.00  0.00    +0.000 A 
ATOM     22  N   UNL     1       1.298   2.300  19.946  0.00  0.00    +0.000 NA
ATOM     23  C   UNL     1       0.757   3.384  20.525  0.00  0.00    +0.000 A 
ATOM     24  C   UNL     1       1.291   4.660  20.475  0.00  0.00    +0.000 A 
ATOM     25  C   UNL     1       2.501   4.914  19.803  0.00  0.00    +0.000 A 
ATOM     26  C   UNL     1       3.034   3.800  19.130  0.00  0.00    +0.000 A 
BRANCH  18  28
ATOM     27  C   UNL     1       5.270   4.297  16.236  0.00  0.00    +0.000 C 
ATOM     28  C   UNL     1       5.017   4.545  17.713  0.00  0.00    +0.000 C 
ENDBRANCH  18  28
ENDBRANCH  16  25
ENDBRANCH   1  16
TORSDOF 4
ENDMDL
MODEL 4
REMARK VINA RESULT:      -8.2      1.308      1.724
REMARK  Name = 
REMARK  7 active torsions:
REMARK  status: ('A' for Active; 'I' for Inactive)
REMARK    1  A    between atoms: C_1  and  C_2
REMARK    2  A    between atoms: C_2  and  N_3
REMARK    3  A    between atoms: C_10  and  N_11
REMARK    4  A    between atoms: N_11  and  C_12
REMARK    5  A    between atoms: C_14  and  C_15
REMARK    6  A    between atoms: C_17  and  C_18
REMARK    7  A    between atoms: C_25  and  C_26
REMARK                            x       y       z     vdW  Elec       q    Type
REMARK                         _______ _______ _______ _____ _____    ______ ____
ROOT
ATOM      1  C   UNL     1       2.208   7.728  19.530  0.00  0.00    +0.000 A 
ATOM      2  C   UNL     1       1.256   8.613  20.046  0.00  0.00    +0.000 A 
ATOM      3  C   UNL     1       0.721   9.620  19.253  0.00  0.00    +0.000 A 
ATOM      4  N   UNL     1       1.150   9.807  17.981  0.00  0.00    +0.000 NA
ATOM      5  C   UNL     1       2.098   8.969  17.502  0.00  0.00    +0.000 A 
ATOM      6  C   UNL     1       2.661   7.921  18.222  0.00  0.00    +0.000 A 
ATOM      7  C   UNL     1       3.692   7.030  17.601  0.00  0.00    +0.000 C 
ENDROOT
BRANCH   3   8
ATOM      8  C   UNL     1      -0.292  10.569  19.757  0.00  0.00    +0.000 A 
ATOM      9  C   UNL     1      -0.185  11.107  21.054  0.00  0.00    +0.000 A 
ATOM     10  C   UNL     1      -1.170  11.956  21.588  0.00  0.00    +0.000 A 
ATOM     11  C   UNL     1      -1.035  12.498  22.980  0.00  0.00    +0.000 C 
ATOM     12  C   UNL     1      -2.293  12.271  20.819  0.00  0.00    +0.000 A 
ATOM     13  C   UNL     1      -2.405  11.785  19.521  0.00  0.00    +0.000 A 
ATOM     14  C   UNL     1      -1.409  10.959  19.000  0.00  0.00    +0.000 A 
ATOM     15  F   UNL     1      -1.556  10.547  17.730  0.00  0.00    +0.000 F 
ENDBRANCH   3   8
BRANCH   1  16
ATOM     16  N   UNL     1       2.717   6.657  20.307  0.00  0.00    +0.000 N 
ATOM     17  H   UNL     1       2.918   6.977  21.244  0.00  0.00    +0.000 HD
BRANCH  16  25
ATOM     18  N   UNL     1       4.660   4.208  19.615  0.00  0.00    +0.000 N 
ATOM     19  N   UNL     1       5.147   2.951  19.487  0.00  0.00    +0.000 NA
ATOM     20  C   UNL     1       4.072   2.180  19.654  0.00  0.00    +0.000 A 
ATOM     21  C   UNL     1       2.910   2.929  19.903  0.00  0.00    +0.000 A 
ATOM     22  N   UNL     1       1.640   2.511  20.112  0.00  0.00    +0.000 NA
ATOM     23  C   UNL     1       0.755   3.502  20.312  0.00  0.00    +0.000 A 
ATOM     24  C   UNL     1       1.068   4.849  20.351  0.00  0.00    +0.000 A 
ATOM     25  C   UNL     1       2.396   5.290  20.199  0.00  0.00    +0.000 A 
ATOM     26  C   UNL     1       3.317   4.265  19.914  0.00  0.00    +0.000 A 
BRANCH  18  28
ATOM     27  C   UNL     1       6.687   4.917  18.383  0.00  0.00    +0.000 C 
ATOM     28  C   UNL     1       5.574   5.301  19.343  0.00  0.00    +0.000 C 
ENDBRANCH  18  28
ENDBRANCH  16  25
ENDBRANCH   1  16
TORSDOF 4
ENDMDL
MODEL 5
REMARK VINA RESULT:      -8.0      4.167      9.074
REMARK  Name = 
REMARK  7 active torsions:
REMARK  status: ('A' for Active; 'I' for Inactive)
REMARK    1  A    between atoms: C_1  and  C_2
REMARK    2  A    between atoms: C_2  and  N_3
REMARK    3  A    between atoms: C_10  and  N_11
REMARK    4  A    between atoms: N_11  and  C_12
REMARK    5  A    between atoms: C_14  and  C_15
REMARK    6  A    between atoms: C_17  and  C_18
REMARK    7  A    between atoms: C_25  and  C_26
REMARK                            x       y       z     vdW  Elec       q    Type
REMARK                         _______ _______ _______ _____ _____    ______ ____
ROOT
ATOM      1  C   UNL     1       5.066   5.114  17.512  0.00  0.00    +0.000 A 
ATOM      2  C   UNL     1       5.082   4.916  16.128  0.00  0.00    +0.000 A 
ATOM      3  C   UNL     1       6.270   4.633  15.466  0.00  0.00    +0.000 A 
ATOM      4  N   UNL     1       7.449   4.601  16.134  0.00  0.00    +0.000 NA
ATOM      5  C   UNL     1       7.428   4.831  17.467  0.00  0.00    +0.000 A 
ATOM      6  C   UNL     1       6.279   5.091  18.206  0.00  0.00    +0.000 A 
ATOM      7  C   UNL     1       6.351   5.313  19.685  0.00  0.00    +0.000 C 
ENDROOT
BRANCH   3   8
ATOM      8  C   UNL     1       6.328   4.409  14.008  0.00  0.00    +0.000 A 
ATOM      9  C   UNL     1       5.292   3.721  13.348  0.00  0.00    +0.000 A 
ATOM     10  C   UNL     1       5.352   3.430  11.975  0.00  0.00    +0.000 A 
ATOM     11  C   UNL     1       4.240   2.678  11.306  0.00  0.00    +0.000 C 
ATOM     12  C   UNL     1       6.472   3.824  11.239  0.00  0.00    +0.000 A 
ATOM     13  C   UNL     1       7.492   4.540  11.857  0.00  0.00    +0.000 A 
ATOM     14  C   UNL     1       7.408   4.836  13.217  0.00  0.00    +0.000 A 
ATOM     15  F   UNL     1       8.407   5.558  13.751  0.00  0.00    +0.000 F 
ENDBRANCH   3   8
BRANCH   1  16
ATOM     16  N   UNL     1       3.853   5.341  18.211  0.00  0.00    +0.000 N 
ATOM     17  H   UNL     1       3.778   4.699  18.987  0.00  0.00    +0.000 HD
BRANCH  16  25
ATOM     18  N   UNL     1       1.897   6.218  20.589  0.00  0.00    +0.000 N 
ATOM     19  N   UNL     1       1.156   6.980  21.428  0.00  0.00    +0.000 NA
ATOM     20  C   UNL     1       1.083   8.155  20.801  0.00  0.00    +0.000 A 
ATOM     21  C   UNL     1       1.783   8.156  19.583  0.00  0.00    +0.000 A 
ATOM     22  N   UNL     1       1.931   9.146  18.672  0.00  0.00    +0.000 NA
ATOM     23  C   UNL     1       2.663   8.807  17.599  0.00  0.00    +0.000 A 
ATOM     24  C   UNL     1       3.270   7.578  17.408  0.00  0.00    +0.000 A 
ATOM     25  C   UNL     1       3.176   6.564  18.380  0.00  0.00    +0.000 A 
ATOM     26  C   UNL     1       2.348   6.885  19.472  0.00  0.00    +0.000 A 
BRANCH  18  28
ATOM     27  C   UNL     1       0.999   3.935  20.259  0.00  0.00    +0.000 C 
ATOM     28  C   UNL     1       2.042   4.815  20.927  0.00  0.00    +0.000 C 
ENDBRANCH  18  28
ENDBRANCH  16  25
ENDBRANCH   1  16
TORSDOF 4
ENDMDL
MODEL 6
REMARK VINA RESULT:      -8.0      0.922      1.096
REMARK  Name = 
REMARK  7 active torsions:
REMARK  status: ('A' for Active; 'I' for Inactive)
REMARK    1  A    between atoms: C_1  and  C_2
REMARK    2  A    between atoms: C_2  and  N_3
REMARK    3  A    between atoms: C_10  and  N_11
REMARK    4  A    between atoms: N_11  and  C_12
REMARK    5  A    between atoms: C_14  and  C_15
REMARK    6  A    between atoms: C_17  and  C_18
REMARK    7  A    between atoms: C_25  and  C_26
REMARK                            x       y       z     vdW  Elec       q    Type
REMARK                         _______ _______ _______ _____ _____    ______ ____
ROOT
ATOM      1  C   UNL     1       2.264   7.687  19.504  0.00  0.00    +0.000 A 
ATOM      2  C   UNL     1       1.327   8.565  20.057  0.00  0.00    +0.000 A 
ATOM      3  C   UNL     1       0.773   9.584  19.292  0.00  0.00    +0.000 A 
ATOM      4  N   UNL     1       1.170   9.789  18.013  0.00  0.00    +0.000 NA
ATOM      5  C   UNL     1       2.105   8.957  17.498  0.00  0.00    +0.000 A 
ATOM      6  C   UNL     1       2.685   7.898  18.188  0.00  0.00    +0.000 A 
ATOM      7  C   UNL     1       3.699   7.016  17.529  0.00  0.00    +0.000 C 
ENDROOT
BRANCH   3   8
ATOM      8  C   UNL     1      -0.226  10.526  19.836  0.00  0.00    +0.000 A 
ATOM      9  C   UNL     1      -1.424  10.779  19.140  0.00  0.00    +0.000 A 
ATOM     10  C   UNL     1      -2.361  11.722  19.595  0.00  0.00    +0.000 A 
ATOM     11  C   UNL     1      -3.619  11.981  18.821  0.00  0.00    +0.000 C 
ATOM     12  C   UNL     1      -2.098  12.439  20.765  0.00  0.00    +0.000 A 
ATOM     13  C   UNL     1      -0.941  12.181  21.493  0.00  0.00    +0.000 A 
ATOM     14  C   UNL     1      -0.031  11.229  21.036  0.00  0.00    +0.000 A 
ATOM     15  F   UNL     1       1.051  11.000  21.798  0.00  0.00    +0.000 F 
ENDBRANCH   3   8
BRANCH   1  16
ATOM     16  N   UNL     1       2.791   6.604  20.253  0.00  0.00    +0.000 N 
ATOM     17  H   UNL     1       3.032   6.914  21.182  0.00  0.00    +0.000 HD
BRANCH  16  25
ATOM     18  N   UNL     1       4.705   4.120  19.608  0.00  0.00    +0.000 N 
ATOM     19  N   UNL     1       5.174   2.855  19.496  0.00  0.00    +0.000 NA
ATOM     20  C   UNL     1       4.084   2.102  19.649  0.00  0.00    +0.000 A 
ATOM     21  C   UNL     1       2.931   2.871  19.874  0.00  0.00    +0.000 A 
ATOM     22  N   UNL     1       1.650   2.475  20.064  0.00  0.00    +0.000 NA
ATOM     23  C   UNL     1       0.779   3.480  20.243  0.00  0.00    +0.000 A 
ATOM     24  C   UNL     1       1.113   4.822  20.279  0.00  0.00    +0.000 A 
ATOM     25  C   UNL     1       2.450   5.241  20.147  0.00  0.00    +0.000 A 
ATOM     26  C   UNL     1       3.359   4.200  19.884  0.00  0.00    +0.000 A 
BRANCH  18  28
ATOM     27  C   UNL     1       6.582   4.895  18.191  0.00  0.00    +0.000 C 
ATOM     28  C   UNL     1       5.642   5.196  19.345  0.00  0.00    +0.000 C 
ENDBRANCH  18  28
ENDBRANCH  16  25
ENDBRANCH   1  16
TORSDOF 4
ENDMDL
MODEL 7
REMARK VINA RESULT:      -8.0      2.818      8.901
REMARK  Name = 
REMARK  7 active torsions:
REMARK  status: ('A' for Active; 'I' for Inactive)
REMARK    1  A    between atoms: C_1  and  C_2
REMARK    2  A    between atoms: C_2  and  N_3
REMARK    3  A    between atoms: C_10  and  N_11
REMARK    4  A    between atoms: N_11  and  C_12
REMARK    5  A    between atoms: C_14  and  C_15
REMARK    6  A    between atoms: C_17  and  C_18
REMARK    7  A    between atoms: C_25  and  C_26
REMARK                            x       y       z     vdW  Elec       q    Type
REMARK                         _______ _______ _______ _____ _____    ______ ____
ROOT
ATOM      1  C   UNL     1       1.239   9.383  18.925  0.00  0.00    +0.000 A 
ATOM      2  C   UNL     1       1.996   8.441  18.220  0.00  0.00    +0.000 A 
ATOM      3  C   UNL     1       2.415   7.266  18.831  0.00  0.00    +0.000 A 
ATOM      4  N   UNL     1       2.152   7.031  20.140  0.00  0.00    +0.000 NA
ATOM      5  C   UNL     1       1.451   7.964  20.824  0.00  0.00    +0.000 A 
ATOM      6  C   UNL     1       0.972   9.149  20.278  0.00  0.00    +0.000 A 
ATOM      7  C   UNL     1       0.186  10.116  21.108  0.00  0.00    +0.000 C 
ENDROOT
BRANCH   3   8
ATOM      8  C   UNL     1       3.207   6.245  18.119  0.00  0.00    +0.000 A 
ATOM      9  C   UNL     1       4.511   6.532  17.674  0.00  0.00    +0.000 A 
ATOM     10  C   UNL     1       5.263   5.606  16.932  0.00  0.00    +0.000 A 
ATOM     11  C   UNL     1       6.643   5.951  16.456  0.00  0.00    +0.000 C 
ATOM     12  C   UNL     1       4.703   4.365  16.616  0.00  0.00    +0.000 A 
ATOM     13  C   UNL     1       3.432   4.039  17.078  0.00  0.00    +0.000 A 
ATOM     14  C   UNL     1       2.707   4.964  17.828  0.00  0.00    +0.000 A 
ATOM     15  F   UNL     1       1.499   4.581  18.273  0.00  0.00    +0.000 F 
ENDBRANCH   3   8
BRANCH   1  16
ATOM     16  N   UNL     1       0.750  10.557  18.297  0.00  0.00    +0.000 N 
ATOM     17  H   UNL     1      -0.244  10.477  18.146  0.00  0.00    +0.000 HD
BRANCH  16  25
ATOM     18  N   UNL     1      -0.851  13.153  19.270  0.00  0.00    +0.000 N 
ATOM     19  N   UNL     1      -1.123  14.395  19.735  0.00  0.00    +0.000 NA
ATOM     20  C   UNL     1       0.041  15.036  19.615  0.00  0.00    +0.000 A 
ATOM     21  C   UNL     1       1.054  14.212  19.096  0.00  0.00    +0.000 A 
ATOM     22  N   UNL     1       2.348  14.500  18.824  0.00  0.00    +0.000 NA
ATOM     23  C   UNL     1       3.051  13.474  18.319  0.00  0.00    +0.000 A 
ATOM     24  C   UNL     1       2.555  12.200  18.110  0.00  0.00    +0.000 A 
ATOM     25  C   UNL     1       1.228  11.873  18.449  0.00  0.00    +0.000 A 
ATOM     26  C   UNL     1       0.464  12.961  18.908  0.00  0.00    +0.000 A 
BRANCH  18  28
ATOM     27  C   UNL     1      -3.116  12.565  20.079  0.00  0.00    +0.000 C 
ATOM     28  C   UNL     1      -1.969  12.238  19.138  0.00  0.00    +0.000 C 
ENDBRANCH  18  28
ENDBRANCH  16  25
ENDBRANCH   1  16
TORSDOF 4
ENDMDL
MODEL 8
REMARK VINA RESULT:      -7.9      2.921      8.933
REMARK  Name = 
REMARK  7 active torsions:
REMARK  status: ('A' for Active; 'I' for Inactive)
REMARK    1  A    between atoms: C_1  and  C_2
REMARK    2  A    between atoms: C_2  and  N_3
REMARK    3  A    between atoms: C_10  and  N_11
REMARK    4  A    between atoms: N_11  and  C_12
REMARK    5  A    between atoms: C_14  and  C_15
REMARK    6  A    between atoms: C_17  and  C_18
REMARK    7  A    between atoms: C_25  and  C_26
REMARK                            x       y       z     vdW  Elec       q    Type
REMARK                         _______ _______ _______ _____ _____    ______ ____
ROOT
ATOM      1  C   UNL     1       1.131   9.499  19.038  0.00  0.00    +0.000 A 
ATOM      2  C   UNL     1       1.802   8.518  18.302  0.00  0.00    +0.000 A 
ATOM      3  C   UNL     1       2.224   7.341  18.907  0.00  0.00    +0.000 A 
ATOM      4  N   UNL     1       2.049   7.141  20.236  0.00  0.00    +0.000 NA
ATOM      5  C   UNL     1       1.431   8.112  20.948  0.00  0.00    +0.000 A 
ATOM      6  C   UNL     1       0.955   9.303  20.411  0.00  0.00    +0.000 A 
ATOM      7  C   UNL     1       0.264  10.313  21.274  0.00  0.00    +0.000 C 
ENDROOT
BRANCH   3   8
ATOM      8  C   UNL     1       2.927   6.278  18.163  0.00  0.00    +0.000 A 
ATOM      9  C   UNL     1       2.408   4.970  18.123  0.00  0.00    +0.000 A 
ATOM     10  C   UNL     1       3.089   3.920  17.483  0.00  0.00    +0.000 A 
ATOM     11  C   UNL     1       2.518   2.534  17.475  0.00  0.00    +0.000 C 
ATOM     12  C   UNL     1       4.322   4.174  16.877  0.00  0.00    +0.000 A 
ATOM     13  C   UNL     1       4.839   5.465  16.867  0.00  0.00    +0.000 A 
ATOM     14  C   UNL     1       4.140   6.498  17.491  0.00  0.00    +0.000 A 
ATOM     15  F   UNL     1       4.673   7.728  17.421  0.00  0.00    +0.000 F 
ENDBRANCH   3   8
BRANCH   1  16
ATOM     16  N   UNL     1       0.639  10.677  18.420  0.00  0.00    +0.000 N 
ATOM     17  H   UNL     1      -0.365  10.622  18.326  0.00  0.00    +0.000 HD
BRANCH  16  25
ATOM     18  N   UNL     1      -0.845  13.334  19.416  0.00  0.00    +0.000 N 
ATOM     19  N   UNL     1      -1.062  14.591  19.869  0.00  0.00    +0.000 NA
ATOM     20  C   UNL     1       0.112  15.197  19.684  0.00  0.00    +0.000 A 
ATOM     21  C   UNL     1       1.077  14.337  19.136  0.00  0.00    +0.000 A 
ATOM     22  N   UNL     1       2.365  14.584  18.800  0.00  0.00    +0.000 NA
ATOM     23  C   UNL     1       3.016  13.530  18.283  0.00  0.00    +0.000 A 
ATOM     24  C   UNL     1       2.477  12.266  18.121  0.00  0.00    +0.000 A 
ATOM     25  C   UNL     1       1.159  11.982  18.525  0.00  0.00    +0.000 A 
ATOM     26  C   UNL     1       0.446  13.099  18.998  0.00  0.00    +0.000 A 
BRANCH  18  28
ATOM     27  C   UNL     1      -3.005  12.710  20.453  0.00  0.00    +0.000 C 
ATOM     28  C   UNL     1      -1.993  12.449  19.351  0.00  0.00    +0.000 C 
ENDBRANCH  18  28
ENDBRANCH  16  25
ENDBRANCH   1  16
TORSDOF 4
ENDMDL
MODEL 9
REMARK VINA RESULT:      -7.8      2.811      8.510
REMARK  Name = 
REMARK  7 active torsions:
REMARK  status: ('A' for Active; 'I' for Inactive)
REMARK    1  A    between atoms: C_1  and  C_2
REMARK    2  A    between atoms: C_2  and  N_3
REMARK    3  A    between atoms: C_10  and  N_11
REMARK    4  A    between atoms: N_11  and  C_12
REMARK    5  A    between atoms: C_14  and  C_15
REMARK    6  A    between atoms: C_17  and  C_18
REMARK    7  A    between atoms: C_25  and  C_26
REMARK                            x       y       z     vdW  Elec       q    Type
REMARK                         _______ _______ _______ _____ _____    ______ ____
ROOT
ATOM      1  C   UNL     1       0.098  10.215  20.102  0.00  0.00    +0.000 A 
ATOM      2  C   UNL     1       0.786   9.204  19.422  0.00  0.00    +0.000 A 
ATOM      3  C   UNL     1       1.489   8.231  20.120  0.00  0.00    +0.000 A 
ATOM      4  N   UNL     1       1.575   8.270  21.472  0.00  0.00    +0.000 NA
ATOM      5  C   UNL     1       0.938   9.273  22.120  0.00  0.00    +0.000 A 
ATOM      6  C   UNL     1       0.191  10.266  21.496  0.00  0.00    +0.000 A 
ATOM      7  C   UNL     1      -0.499  11.326  22.297  0.00  0.00    +0.000 C 
ENDROOT
BRANCH   3   8
ATOM      8  C   UNL     1       2.220   7.143  19.441  0.00  0.00    +0.000 A 
ATOM      9  C   UNL     1       3.128   7.430  18.404  0.00  0.00    +0.000 A 
ATOM     10  C   UNL     1       3.785   6.414  17.690  0.00  0.00    +0.000 A 
ATOM     11  C   UNL     1       4.733   6.753  16.579  0.00  0.00    +0.000 C 
ATOM     12  C   UNL     1       3.527   5.078  18.008  0.00  0.00    +0.000 A 
ATOM     13  C   UNL     1       2.664   4.766  19.053  0.00  0.00    +0.000 A 
ATOM     14  C   UNL     1       2.035   5.788  19.763  0.00  0.00    +0.000 A 
ATOM     15  F   UNL     1       1.239   5.427  20.782  0.00  0.00    +0.000 F 
ENDBRANCH   3   8
BRANCH   1  16
ATOM     16  N   UNL     1      -0.675  11.178  19.406  0.00  0.00    +0.000 N 
ATOM     17  H   UNL     1      -0.121  12.003  19.231  0.00  0.00    +0.000 HD
BRANCH  16  25
ATOM     18  N   UNL     1      -3.689  12.256  19.455  0.00  0.00    +0.000 N 
ATOM     19  N   UNL     1      -4.941  12.591  19.061  0.00  0.00    +0.000 NA
ATOM     20  C   UNL     1      -5.081  11.959  17.895  0.00  0.00    +0.000 A 
ATOM     21  C   UNL     1      -3.929  11.240  17.535  0.00  0.00    +0.000 A 
ATOM     22  N   UNL     1      -3.694  10.475  16.443  0.00  0.00    +0.000 NA
ATOM     23  C   UNL     1      -2.475   9.912  16.412  0.00  0.00    +0.000 A 
ATOM     24  C   UNL     1      -1.492  10.097  17.367  0.00  0.00    +0.000 A 
ATOM     25  C   UNL     1      -1.704  10.941  18.473  0.00  0.00    +0.000 A 
ATOM     26  C   UNL     1      -3.003  11.474  18.553  0.00  0.00    +0.000 A 
BRANCH  18  28
ATOM     27  C   UNL     1      -4.435  12.756  21.763  0.00  0.00    +0.000 C 
ATOM     28  C   UNL     1      -3.279  12.682  20.780  0.00  0.00    +0.000 C 
ENDBRANCH  18  28
ENDBRANCH  16  25
ENDBRANCH   1  16
TORSDOF 4
ENDMDL
