MODEL 1
REMARK VINA RESULT:      -7.7      0.000      0.000
REMARK  Name = 
REMARK  6 active torsions:
REMARK  status: ('A' for Active; 'I' for Inactive)
REMARK    1  A    between atoms: C_2  and  C_18
REMARK    2  A    between atoms: N_3  and  C_4
REMARK    3  A    between atoms: C_6  and  C_7
REMARK    4  A    between atoms: C_10  and  C_11
REMARK    5  A    between atoms: C_11  and  O_12
REMARK    6  A    between atoms: N_13  and  C_14
REMARK                            x       y       z     vdW  Elec       q    Type
REMARK                         _______ _______ _______ _____ _____    ______ ____
ROOT
ATOM      1  C   UNL     1       2.185   8.745  18.664  0.00  0.00    +0.000 C 
ATOM      2  C   UNL     1       2.212   7.592  19.692  0.00  0.00    +0.000 C 
ATOM      3  C   UNL     1       2.314   6.579  18.519  0.00  0.00    +0.000 C 
ATOM      4  C   UNL     1       2.861   7.769  17.675  0.00  0.00    +0.000 C 
ENDROOT
BRANCH   3   5
ATOM      5  C   UNL     1       3.318   5.444  18.740  0.00  0.00    +0.000 A 
ATOM      6  N   UNL     1       4.430   5.345  18.037  0.00  0.00    +0.000 NA
ATOM      7  N   UNL     1       5.063   4.176  18.376  0.00  0.00    +0.000 NA
ATOM      8  C   UNL     1       4.347   3.572  19.302  0.00  0.00    +0.000 A 
ATOM      9  N   UNL     1       3.264   4.371  19.606  0.00  0.00    +0.000 N 
BRANCH   9  10
ATOM     10  C   UNL     1       2.313   4.072  20.658  0.00  0.00    +0.000 C 
ATOM     11  C   UNL     1       0.823   3.949  20.414  0.00  0.00    +0.000 C 
ATOM     12  C   UNL     1       1.610   2.741  20.798  0.00  0.00    +0.000 C 
ENDBRANCH   9  10
BRANCH   8  13
ATOM     13  C   UNL     1       4.592   2.206  19.838  0.00  0.00    +0.000 C 
BRANCH  13  14
ATOM     14  O   UNL     1       4.321   1.243  18.826  0.00  0.00    +0.000 OA
ATOM     15  H   UNL     1       4.612   1.631  17.984  0.00  0.00    +0.000 HD
ENDBRANCH  13  14
ENDBRANCH   8  13
ENDBRANCH   3   5
BRANCH   1  18
ATOM     16  O   UNL     1       0.108  10.018  20.205  0.00  0.00    +0.000 OA
ATOM     17  C   UNL     1      -0.064   9.845  18.998  0.00  0.00    +0.000 C 
ATOM     18  N   UNL     1       0.857   9.212  18.193  0.00  0.00    +0.000 N 
ATOM     19  H   UNL     1       0.672   9.220  17.194  0.00  0.00    +0.000 HD
BRANCH  17  20
ATOM     20  C   UNL     1      -1.296  10.398  18.349  0.00  0.00    +0.000 A 
ATOM     21  C   UNL     1      -1.668   9.813  17.120  0.00  0.00    +0.000 A 
ATOM     22  C   UNL     1      -2.804  10.255  16.432  0.00  0.00    +0.000 A 
ATOM     23  C   UNL     1      -3.559  11.290  16.957  0.00  0.00    +0.000 A 
ATOM     24  F   UNL     1      -4.643  11.722  16.299  0.00  0.00    +0.000 F 
ATOM     25  C   UNL     1      -3.207  11.891  18.159  0.00  0.00    +0.000 A 
ATOM     26  C   UNL     1      -2.075  11.451  18.859  0.00  0.00    +0.000 A 
ATOM     27 CL   UNL     1      -1.703  12.300  20.319  0.00  0.00    +0.000 Cl
ENDBRANCH  17  20
ENDBRANCH   1  18
TORSDOF 6
ENDMDL
MODEL 2
REMARK VINA RESULT:      -7.4      1.201      1.322
REMARK  Name = 
REMARK  6 active torsions:
REMARK  status: ('A' for Active; 'I' for Inactive)
REMARK    1  A    between atoms: C_2  and  C_18
REMARK    2  A    between atoms: N_3  and  C_4
REMARK    3  A    between atoms: C_6  and  C_7
REMARK    4  A    between atoms: C_10  and  C_11
REMARK    5  A    between atoms: C_11  and  O_12
REMARK    6  A    between atoms: N_13  and  C_14
REMARK                            x       y       z     vdW  Elec       q    Type
REMARK                         _______ _______ _______ _____ _____    ______ ____
ROOT
ATOM      1  C   UNL     1       2.300   8.124  19.400  0.00  0.00    +0.000 C 
ATOM      2  C   UNL     1       2.250   6.710  20.018  0.00  0.00    +0.000 C 
ATOM      3  C   UNL     1       2.072   6.116  18.594  0.00  0.00    +0.000 C 
ATOM      4  C   UNL     1       2.710   7.440  18.076  0.00  0.00    +0.000 C 
ENDROOT
BRANCH   3   5
ATOM      5  C   UNL     1       2.903   4.860  18.317  0.00  0.00    +0.000 A 
ATOM      6  N   UNL     1       4.051   4.909  17.668  0.00  0.00    +0.000 NA
ATOM      7  N   UNL     1       4.501   3.628  17.472  0.00  0.00    +0.000 NA
ATOM      8  C   UNL     1       3.637   2.798  18.021  0.00  0.00    +0.000 A 
ATOM      9  N   UNL     1       2.640   3.540  18.621  0.00  0.00    +0.000 N 
BRANCH   9  10
ATOM     10  C   UNL     1       1.571   2.964  19.412  0.00  0.00    +0.000 C 
ATOM     11  C   UNL     1       1.758   2.503  20.842  0.00  0.00    +0.000 C 
ATOM     12  C   UNL     1       0.894   3.685  20.555  0.00  0.00    +0.000 C 
ENDBRANCH   9  10
BRANCH   8  13
ATOM     13  C   UNL     1       3.662   1.316  17.907  0.00  0.00    +0.000 C 
BRANCH  13  14
ATOM     14  O   UNL     1       4.510   0.776  18.914  0.00  0.00    +0.000 OA
ATOM     15  H   UNL     1       3.983   0.119  19.400  0.00  0.00    +0.000 HD
ENDBRANCH  13  14
ENDBRANCH   8  13
ENDBRANCH   3   5
BRANCH   1  18
ATOM     16  O   UNL     1       1.598  10.156  17.480  0.00  0.00    +0.000 OA
ATOM     17  C   UNL     1       0.759   9.803  18.310  0.00  0.00    +0.000 C 
ATOM     18  N   UNL     1       1.020   8.868  19.288  0.00  0.00    +0.000 N 
ATOM     19  H   UNL     1       0.230   8.564  19.850  0.00  0.00    +0.000 HD
BRANCH  17  20
ATOM     20  C   UNL     1      -0.629  10.360  18.227  0.00  0.00    +0.000 A 
ATOM     21  C   UNL     1      -1.462   9.811  17.229  0.00  0.00    +0.000 A 
ATOM     22  C   UNL     1      -2.779  10.259  17.069  0.00  0.00    +0.000 A 
ATOM     23  C   UNL     1      -3.260  11.266  17.889  0.00  0.00    +0.000 A 
ATOM     24  F   UNL     1      -4.517  11.703  17.735  0.00  0.00    +0.000 F 
ATOM     25  C   UNL     1      -2.456  11.831  18.870  0.00  0.00    +0.000 A 
ATOM     26  C   UNL     1      -1.139  11.384  19.043  0.00  0.00    +0.000 A 
ATOM     27 CL   UNL     1      -0.214  12.190  20.262  0.00  0.00    +0.000 Cl
ENDBRANCH  17  20
ENDBRANCH   1  18
TORSDOF 6
ENDMDL
MODEL 3
REMARK VINA RESULT:      -7.4      1.909      2.431
REMARK  Name = 
REMARK  6 active torsions:
REMARK  status: ('A' for Active; 'I' for Inactive)
REMARK    1  A    between atoms: C_2  and  C_18
REMARK    2  A    between atoms: N_3  and  C_4
REMARK    3  A    between atoms: C_6  and  C_7
REMARK    4  A    between atoms: C_10  and  C_11
REMARK    5  A    between atoms: C_11  and  O_12
REMARK    6  A    between atoms: N_13  and  C_14
REMARK                            x       y       z     vdW  Elec       q    Type
REMARK                         _______ _______ _______ _____ _____    ______ ____
ROOT
ATOM      1  C   UNL     1       1.134   9.918  19.191  0.00  0.00    +0.000 C 
ATOM      2  C   UNL     1       1.579   8.586  19.836  0.00  0.00    +0.000 C 
ATOM      3  C   UNL     1       1.580   7.930  18.428  0.00  0.00    +0.000 C 
ATOM      4  C   UNL     1       1.721   9.377  17.868  0.00  0.00    +0.000 C 
ENDROOT
BRANCH   3   5
ATOM      5  C   UNL     1       2.779   7.021  18.147  0.00  0.00    +0.000 A 
ATOM      6  N   UNL     1       3.847   7.450  17.502  0.00  0.00    +0.000 NA
ATOM      7  N   UNL     1       4.696   6.390  17.301  0.00  0.00    +0.000 NA
ATOM      8  C   UNL     1       4.153   5.319  17.844  0.00  0.00    +0.000 A 
ATOM      9  N   UNL     1       2.967   5.686  18.444  0.00  0.00    +0.000 N 
BRANCH   9  10
ATOM     10  C   UNL     1       2.147   4.785  19.229  0.00  0.00    +0.000 C 
ATOM     11  C   UNL     1       2.631   4.129  20.506  0.00  0.00    +0.000 C 
ATOM     12  C   UNL     1       1.546   5.152  20.566  0.00  0.00    +0.000 C 
ENDBRANCH   9  10
BRANCH   8  13
ATOM     13  C   UNL     1       4.668   3.929  17.723  0.00  0.00    +0.000 C 
BRANCH  13  14
ATOM     14  O   UNL     1       5.695   3.716  18.684  0.00  0.00    +0.000 OA
ATOM     15  H   UNL     1       5.255   3.451  19.509  0.00  0.00    +0.000 HD
ENDBRANCH  13  14
ENDBRANCH   8  13
ENDBRANCH   3   5
BRANCH   1  18
ATOM     16  O   UNL     1      -0.174  12.380  18.458  0.00  0.00    +0.000 OA
ATOM     17  C   UNL     1      -0.861  11.390  18.709  0.00  0.00    +0.000 C 
ATOM     18  N   UNL     1      -0.324  10.184  19.105  0.00  0.00    +0.000 N 
ATOM     19  H   UNL     1      -0.966   9.400  19.179  0.00  0.00    +0.000 HD
BRANCH  17  20
ATOM     20  C   UNL     1      -2.346  11.464  18.521  0.00  0.00    +0.000 A 
ATOM     21  C   UNL     1      -3.063  12.182  19.501  0.00  0.00    +0.000 A 
ATOM     22  C   UNL     1      -4.455  12.314  19.417  0.00  0.00    +0.000 A 
ATOM     23  C   UNL     1      -5.134  11.713  18.369  0.00  0.00    +0.000 A 
ATOM     24  F   UNL     1      -6.466  11.830  18.289  0.00  0.00    +0.000 F 
ATOM     25  C   UNL     1      -4.452  10.989  17.400  0.00  0.00    +0.000 A 
ATOM     26  C   UNL     1      -3.058  10.858  17.471  0.00  0.00    +0.000 A 
ATOM     27 CL   UNL     1      -2.318   9.897  16.238  0.00  0.00    +0.000 Cl
ENDBRANCH  17  20
ENDBRANCH   1  18
TORSDOF 6
ENDMDL
MODEL 4
REMARK VINA RESULT:      -7.4      1.509      1.780
REMARK  Name = 
REMARK  6 active torsions:
REMARK  status: ('A' for Active; 'I' for Inactive)
REMARK    1  A    between atoms: C_2  and  C_18
REMARK    2  A    between atoms: N_3  and  C_4
REMARK    3  A    between atoms: C_6  and  C_7
REMARK    4  A    between atoms: C_10  and  C_11
REMARK    5  A    between atoms: C_11  and  O_12
REMARK    6  A    between atoms: N_13  and  C_14
REMARK                            x       y       z     vdW  Elec       q    Type
REMARK                         _______ _______ _______ _____ _____    ______ ____
ROOT
ATOM      1  C   UNL     1       1.271   9.787  19.033  0.00  0.00    +0.000 C 
ATOM      2  C   UNL     1       1.654   8.456  19.716  0.00  0.00    +0.000 C 
ATOM      3  C   UNL     1       1.732   7.785  18.317  0.00  0.00    +0.000 C 
ATOM      4  C   UNL     1       1.931   9.224  17.753  0.00  0.00    +0.000 C 
ENDROOT
BRANCH   3   5
ATOM      5  C   UNL     1       2.932   6.855  18.120  0.00  0.00    +0.000 A 
ATOM      6  N   UNL     1       4.035   7.253  17.513  0.00  0.00    +0.000 NA
ATOM      7  N   UNL     1       4.879   6.180  17.384  0.00  0.00    +0.000 NA
ATOM      8  C   UNL     1       4.299   5.130  17.932  0.00  0.00    +0.000 A 
ATOM      9  N   UNL     1       3.091   5.528  18.464  0.00  0.00    +0.000 N 
BRANCH   9  10
ATOM     10  C   UNL     1       2.225   4.659  19.236  0.00  0.00    +0.000 C 
ATOM     11  C   UNL     1       2.576   4.163  20.623  0.00  0.00    +0.000 C 
ATOM     12  C   UNL     1       1.443   5.118  20.446  0.00  0.00    +0.000 C 
ENDBRANCH   9  10
BRANCH   8  13
ATOM     13  C   UNL     1       4.802   3.732  17.876  0.00  0.00    +0.000 C 
BRANCH  13  14
ATOM     14  O   UNL     1       5.615   3.473  19.014  0.00  0.00    +0.000 OA
ATOM     15  H   UNL     1       5.115   2.863  19.583  0.00  0.00    +0.000 HD
ENDBRANCH  13  14
ENDBRANCH   8  13
ENDBRANCH   3   5
BRANCH   1  18
ATOM     16  O   UNL     1       0.017  12.345  18.595  0.00  0.00    +0.000 OA
ATOM     17  C   UNL     1      -0.683  11.332  18.613  0.00  0.00    +0.000 C 
ATOM     18  N   UNL     1      -0.175  10.074  18.854  0.00  0.00    +0.000 N 
ATOM     19  H   UNL     1      -0.814   9.293  18.736  0.00  0.00    +0.000 HD
BRANCH  17  20
ATOM     20  C   UNL     1      -2.143  11.446  18.299  0.00  0.00    +0.000 A 
ATOM     21  C   UNL     1      -2.545  10.988  17.026  0.00  0.00    +0.000 A 
ATOM     22  C   UNL     1      -3.887  11.048  16.634  0.00  0.00    +0.000 A 
ATOM     23  C   UNL     1      -4.827  11.582  17.500  0.00  0.00    +0.000 A 
ATOM     24  F   UNL     1      -6.112  11.649  17.127  0.00  0.00    +0.000 F 
ATOM     25  C   UNL     1      -4.455  12.052  18.754  0.00  0.00    +0.000 A 
ATOM     26  C   UNL     1      -3.114  11.989  19.158  0.00  0.00    +0.000 A 
ATOM     27 CL   UNL     1      -2.757  12.644  20.718  0.00  0.00    +0.000 Cl
ENDBRANCH  17  20
ENDBRANCH   1  18
TORSDOF 6
ENDMDL
MODEL 5
REMARK VINA RESULT:      -7.4      2.692      3.141
REMARK  Name = 
REMARK  6 active torsions:
REMARK  status: ('A' for Active; 'I' for Inactive)
REMARK    1  A    between atoms: C_2  and  C_18
REMARK    2  A    between atoms: N_3  and  C_4
REMARK    3  A    between atoms: C_6  and  C_7
REMARK    4  A    between atoms: C_10  and  C_11
REMARK    5  A    between atoms: C_11  and  O_12
REMARK    6  A    between atoms: N_13  and  C_14
REMARK                            x       y       z     vdW  Elec       q    Type
REMARK                         _______ _______ _______ _____ _____    ______ ____
ROOT
ATOM      1  C   UNL     1       2.287   8.358  17.772  0.00  0.00    +0.000 C 
ATOM      2  C   UNL     1       3.650   7.664  17.991  0.00  0.00    +0.000 C 
ATOM      3  C   UNL     1       2.918   6.503  18.717  0.00  0.00    +0.000 C 
ATOM      4  C   UNL     1       1.644   6.964  17.949  0.00  0.00    +0.000 C 
ENDROOT
BRANCH   3   5
ATOM      5  C   UNL     1       3.412   5.103  18.344  0.00  0.00    +0.000 A 
ATOM      6  N   UNL     1       4.429   4.915  17.525  0.00  0.00    +0.000 NA
ATOM      7  N   UNL     1       4.564   3.569  17.292  0.00  0.00    +0.000 NA
ATOM      8  C   UNL     1       3.641   2.935  17.987  0.00  0.00    +0.000 A 
ATOM      9  N   UNL     1       2.928   3.865  18.716  0.00  0.00    +0.000 N 
BRANCH   9  10
ATOM     10  C   UNL     1       1.898   3.520  19.675  0.00  0.00    +0.000 C 
ATOM     11  C   UNL     1       2.162   3.396  21.162  0.00  0.00    +0.000 C 
ATOM     12  C   UNL     1       1.303   4.506  20.654  0.00  0.00    +0.000 C 
ENDBRANCH   9  10
BRANCH   8  13
ATOM     13  C   UNL     1       3.336   1.482  17.904  0.00  0.00    +0.000 C 
BRANCH  13  14
ATOM     14  O   UNL     1       4.381   0.741  18.522  0.00  0.00    +0.000 OA
ATOM     15  H   UNL     1       3.997   0.315  19.306  0.00  0.00    +0.000 HD
ENDBRANCH  13  14
ENDBRANCH   8  13
ENDBRANCH   3   5
BRANCH   1  18
ATOM     16  O   UNL     1      -0.165   9.871  17.829  0.00  0.00    +0.000 OA
ATOM     17  C   UNL     1       0.629   9.985  18.764  0.00  0.00    +0.000 C 
ATOM     18  N   UNL     1       1.841   9.331  18.801  0.00  0.00    +0.000 N 
ATOM     19  H   UNL     1       2.371   9.402  19.665  0.00  0.00    +0.000 HD
BRANCH  17  20
ATOM     20  C   UNL     1       0.248  10.818  19.949  0.00  0.00    +0.000 A 
ATOM     21  C   UNL     1       0.385  12.215  19.798  0.00  0.00    +0.000 A 
ATOM     22  C   UNL     1       0.054  13.084  20.845  0.00  0.00    +0.000 A 
ATOM     23  C   UNL     1      -0.394  12.562  22.048  0.00  0.00    +0.000 A 
ATOM     24  F   UNL     1      -0.704  13.389  23.055  0.00  0.00    +0.000 F 
ATOM     25  C   UNL     1      -0.524  11.190  22.225  0.00  0.00    +0.000 A 
ATOM     26  C   UNL     1      -0.203  10.313  21.180  0.00  0.00    +0.000 A 
ATOM     27 CL   UNL     1      -0.359   8.626  21.526  0.00  0.00    +0.000 Cl
ENDBRANCH  17  20
ENDBRANCH   1  18
TORSDOF 6
ENDMDL
MODEL 6
REMARK VINA RESULT:      -7.3      2.488      2.979
REMARK  Name = 
REMARK  6 active torsions:
REMARK  status: ('A' for Active; 'I' for Inactive)
REMARK    1  A    between atoms: C_2  and  C_18
REMARK    2  A    between atoms: N_3  and  C_4
REMARK    3  A    between atoms: C_6  and  C_7
REMARK    4  A    between atoms: C_10  and  C_11
REMARK    5  A    between atoms: C_11  and  O_12
REMARK    6  A    between atoms: N_13  and  C_14
REMARK                            x       y       z     vdW  Elec       q    Type
REMARK                         _______ _______ _______ _____ _____    ______ ____
ROOT
ATOM      1  C   UNL     1       1.976   8.497  17.708  0.00  0.00    +0.000 C 
ATOM      2  C   UNL     1       3.383   7.879  17.858  0.00  0.00    +0.000 C 
ATOM      3  C   UNL     1       2.757   6.699  18.650  0.00  0.00    +0.000 C 
ATOM      4  C   UNL     1       1.417   7.077  17.951  0.00  0.00    +0.000 C 
ENDROOT
BRANCH   3   5
ATOM      5  C   UNL     1       3.301   5.318  18.275  0.00  0.00    +0.000 A 
ATOM      6  N   UNL     1       4.072   5.131  17.221  0.00  0.00    +0.000 NA
ATOM      7  N   UNL     1       4.304   3.786  17.077  0.00  0.00    +0.000 NA
ATOM      8  C   UNL     1       3.690   3.154  18.058  0.00  0.00    +0.000 A 
ATOM      9  N   UNL     1       3.094   4.092  18.875  0.00  0.00    +0.000 N 
BRANCH   9  10
ATOM     10  C   UNL     1       2.414   3.766  20.113  0.00  0.00    +0.000 C 
ATOM     11  C   UNL     1       1.025   4.269  20.450  0.00  0.00    +0.000 C 
ATOM     12  C   UNL     1       1.243   2.814  20.200  0.00  0.00    +0.000 C 
ENDBRANCH   9  10
BRANCH   8  13
ATOM     13  C   UNL     1       3.557   1.679  18.192  0.00  0.00    +0.000 C 
BRANCH  13  14
ATOM     14  O   UNL     1       4.560   1.189  19.073  0.00  0.00    +0.000 OA
ATOM     15  H   UNL     1       4.476   1.692  19.901  0.00  0.00    +0.000 HD
ENDBRANCH  13  14
ENDBRANCH   8  13
ENDBRANCH   3   5
BRANCH   1  18
ATOM     16  O   UNL     1      -0.547   9.880  17.886  0.00  0.00    +0.000 OA
ATOM     17  C   UNL     1       0.295  10.058  18.767  0.00  0.00    +0.000 C 
ATOM     18  N   UNL     1       1.541   9.469  18.743  0.00  0.00    +0.000 N 
ATOM     19  H   UNL     1       2.118   9.589  19.570  0.00  0.00    +0.000 HD
BRANCH  17  20
ATOM     20  C   UNL     1      -0.057  10.898  19.956  0.00  0.00    +0.000 A 
ATOM     21  C   UNL     1      -0.182  10.216  21.185  0.00  0.00    +0.000 A 
ATOM     22  C   UNL     1      -0.506  10.908  22.359  0.00  0.00    +0.000 A 
ATOM     23  C   UNL     1      -0.725  12.274  22.305  0.00  0.00    +0.000 A 
ATOM     24  F   UNL     1      -1.043  12.940  23.423  0.00  0.00    +0.000 F 
ATOM     25  C   UNL     1      -0.622  12.966  21.105  0.00  0.00    +0.000 A 
ATOM     26  C   UNL     1      -0.291  12.283  19.926  0.00  0.00    +0.000 A 
ATOM     27 CL   UNL     1      -0.235  13.235  18.483  0.00  0.00    +0.000 Cl
ENDBRANCH  17  20
ENDBRANCH   1  18
TORSDOF 6
ENDMDL
MODEL 7
REMARK VINA RESULT:      -7.3      1.744      2.018
REMARK  Name = 
REMARK  6 active torsions:
REMARK  status: ('A' for Active; 'I' for Inactive)
REMARK    1  A    between atoms: C_2  and  C_18
REMARK    2  A    between atoms: N_3  and  C_4
REMARK    3  A    between atoms: C_6  and  C_7
REMARK    4  A    between atoms: C_10  and  C_11
REMARK    5  A    between atoms: C_11  and  O_12
REMARK    6  A    between atoms: N_13  and  C_14
REMARK                            x       y       z     vdW  Elec       q    Type
REMARK                         _______ _______ _______ _____ _____    ______ ____
ROOT
ATOM      1  C   UNL     1       1.799   9.068  19.158  0.00  0.00    +0.000 C 
ATOM      2  C   UNL     1       2.165   7.608  19.506  0.00  0.00    +0.000 C 
ATOM      3  C   UNL     1       2.329   7.310  17.991  0.00  0.00    +0.000 C 
ATOM      4  C   UNL     1       2.536   8.844  17.818  0.00  0.00    +0.000 C 
ENDROOT
BRANCH   3   5
ATOM      5  C   UNL     1       3.552   6.461  17.635  0.00  0.00    +0.000 A 
ATOM      6  N   UNL     1       4.755   6.987  17.500  0.00  0.00    +0.000 NA
ATOM      7  N   UNL     1       5.617   6.010  17.070  0.00  0.00    +0.000 NA
ATOM      8  C   UNL     1       4.944   4.883  16.963  0.00  0.00    +0.000 A 
ATOM      9  N   UNL     1       3.646   5.110  17.370  0.00  0.00    +0.000 N 
BRANCH   9  10
ATOM     10  C   UNL     1       2.643   4.070  17.483  0.00  0.00    +0.000 C 
ATOM     11  C   UNL     1       2.556   3.131  18.670  0.00  0.00    +0.000 C 
ATOM     12  C   UNL     1       1.475   4.134  18.442  0.00  0.00    +0.000 C 
ENDBRANCH   9  10
BRANCH   8  13
ATOM     13  C   UNL     1       5.460   3.614  16.384  0.00  0.00    +0.000 C 
BRANCH  13  14
ATOM     14  O   UNL     1       6.404   3.908  15.361  0.00  0.00    +0.000 OA
ATOM     15  H   UNL     1       6.038   3.554  14.532  0.00  0.00    +0.000 HD
ENDBRANCH  13  14
ENDBRANCH   8  13
ENDBRANCH   3   5
BRANCH   1  18
ATOM     16  O   UNL     1       0.612  11.648  18.668  0.00  0.00    +0.000 OA
ATOM     17  C   UNL     1      -0.114  10.654  18.709  0.00  0.00    +0.000 C 
ATOM     18  N   UNL     1       0.361   9.389  18.975  0.00  0.00    +0.000 N 
ATOM     19  H   UNL     1      -0.298   8.623  18.874  0.00  0.00    +0.000 HD
BRANCH  17  20
ATOM     20  C   UNL     1      -1.572  10.801  18.394  0.00  0.00    +0.000 A 
ATOM     21  C   UNL     1      -2.069   9.989  17.352  0.00  0.00    +0.000 A 
ATOM     22  C   UNL     1      -3.417  10.047  16.980  0.00  0.00    +0.000 A 
ATOM     23  C   UNL     1      -4.266  10.927  17.632  0.00  0.00    +0.000 A 
ATOM     24  F   UNL     1      -5.556  10.991  17.275  0.00  0.00    +0.000 F 
ATOM     25  C   UNL     1      -3.798  11.745  18.652  0.00  0.00    +0.000 A 
ATOM     26  C   UNL     1      -2.451  11.689  19.037  0.00  0.00    +0.000 A 
ATOM     27 CL   UNL     1      -1.968  12.785  20.284  0.00  0.00    +0.000 Cl
ENDBRANCH  17  20
ENDBRANCH   1  18
TORSDOF 6
ENDMDL
MODEL 8
REMARK VINA RESULT:      -7.3      4.344      8.733
REMARK  Name = 
REMARK  6 active torsions:
REMARK  status: ('A' for Active; 'I' for Inactive)
REMARK    1  A    between atoms: C_2  and  C_18
REMARK    2  A    between atoms: N_3  and  C_4
REMARK    3  A    between atoms: C_6  and  C_7
REMARK    4  A    between atoms: C_10  and  C_11
REMARK    5  A    between atoms: C_11  and  O_12
REMARK    6  A    between atoms: N_13  and  C_14
REMARK                            x       y       z     vdW  Elec       q    Type
REMARK                         _______ _______ _______ _____ _____    ______ ____
ROOT
ATOM      1  C   UNL     1       1.119   7.593  21.573  0.00  0.00    +0.000 C 
ATOM      2  C   UNL     1       1.501   9.005  22.069  0.00  0.00    +0.000 C 
ATOM      3  C   UNL     1       0.461   9.608  21.087  0.00  0.00    +0.000 C 
ATOM      4  C   UNL     1      -0.222   8.209  21.113  0.00  0.00    +0.000 C 
ENDROOT
BRANCH   3   5
ATOM      5  C   UNL     1      -0.389  10.740  21.670  0.00  0.00    +0.000 A 
ATOM      6  N   UNL     1      -0.310  11.092  22.939  0.00  0.00    +0.000 NA
ATOM      7  N   UNL     1      -1.264  12.046  23.192  0.00  0.00    +0.000 NA
ATOM      8  C   UNL     1      -1.910  12.291  22.070  0.00  0.00    +0.000 A 
ATOM      9  N   UNL     1      -1.347  11.530  21.067  0.00  0.00    +0.000 N 
BRANCH   9  10
ATOM     10  C   UNL     1      -1.737  11.617  19.674  0.00  0.00    +0.000 C 
ATOM     11  C   UNL     1      -0.979  12.443  18.655  0.00  0.00    +0.000 C 
ATOM     12  C   UNL     1      -0.974  10.954  18.549  0.00  0.00    +0.000 C 
ENDBRANCH   9  10
BRANCH   8  13
ATOM     13  C   UNL     1      -3.120  13.145  21.933  0.00  0.00    +0.000 C 
BRANCH  13  14
ATOM     14  O   UNL     1      -4.259  12.437  22.407  0.00  0.00    +0.000 OA
ATOM     15  H   UNL     1      -4.934  12.493  21.710  0.00  0.00    +0.000 HD
ENDBRANCH  13  14
ENDBRANCH   8  13
ENDBRANCH   3   5
BRANCH   1  18
ATOM     16  O   UNL     1       1.915   4.851  21.178  0.00  0.00    +0.000 OA
ATOM     17  C   UNL     1       2.211   5.688  20.325  0.00  0.00    +0.000 C 
ATOM     18  N   UNL     1       1.906   7.026  20.449  0.00  0.00    +0.000 N 
ATOM     19  H   UNL     1       2.092   7.614  19.642  0.00  0.00    +0.000 HD
BRANCH  17  20
ATOM     20  C   UNL     1       2.877   5.239  19.060  0.00  0.00    +0.000 A 
ATOM     21  C   UNL     1       3.953   6.031  18.607  0.00  0.00    +0.000 A 
ATOM     22  C   UNL     1       4.645   5.697  17.437  0.00  0.00    +0.000 A 
ATOM     23  C   UNL     1       4.253   4.588  16.706  0.00  0.00    +0.000 A 
ATOM     24  F   UNL     1       4.907   4.268  15.581  0.00  0.00    +0.000 F 
ATOM     25  C   UNL     1       3.187   3.800  17.123  0.00  0.00    +0.000 A 
ATOM     26  C   UNL     1       2.493   4.122  18.298  0.00  0.00    +0.000 A 
ATOM     27 CL   UNL     1       1.156   3.101  18.698  0.00  0.00    +0.000 Cl
ENDBRANCH  17  20
ENDBRANCH   1  18
TORSDOF 6
ENDMDL
MODEL 9
REMARK VINA RESULT:      -7.2      1.866      2.392
REMARK  Name = 
REMARK  6 active torsions:
REMARK  status: ('A' for Active; 'I' for Inactive)
REMARK    1  A    between atoms: C_2  and  C_18
REMARK    2  A    between atoms: N_3  and  C_4
REMARK    3  A    between atoms: C_6  and  C_7
REMARK    4  A    between atoms: C_10  and  C_11
REMARK    5  A    between atoms: C_11  and  O_12
REMARK    6  A    between atoms: N_13  and  C_14
REMARK                            x       y       z     vdW  Elec       q    Type
REMARK                         _______ _______ _______ _____ _____    ______ ____
ROOT
ATOM      1  C   UNL     1       2.327   7.615  17.866  0.00  0.00    +0.000 C 
ATOM      2  C   UNL     1       3.631   7.336  18.647  0.00  0.00    +0.000 C 
ATOM      3  C   UNL     1       2.932   6.136  19.343  0.00  0.00    +0.000 C 
ATOM      4  C   UNL     1       1.950   6.140  18.133  0.00  0.00    +0.000 C 
ENDROOT
BRANCH   3   5
ATOM      5  C   UNL     1       3.791   4.875  19.460  0.00  0.00    +0.000 A 
ATOM      6  N   UNL     1       5.095   4.894  19.256  0.00  0.00    +0.000 NA
ATOM      7  N   UNL     1       5.569   3.608  19.316  0.00  0.00    +0.000 NA
ATOM      8  C   UNL     1       4.557   2.806  19.578  0.00  0.00    +0.000 A 
ATOM      9  N   UNL     1       3.422   3.574  19.738  0.00  0.00    +0.000 N 
BRANCH   9  10
ATOM     10  C   UNL     1       2.136   3.039  20.137  0.00  0.00    +0.000 C 
ATOM     11  C   UNL     1       1.749   2.812  21.584  0.00  0.00    +0.000 C 
ATOM     12  C   UNL     1       1.052   3.866  20.789  0.00  0.00    +0.000 C 
ENDBRANCH   9  10
BRANCH   8  13
ATOM     13  C   UNL     1       4.603   1.320  19.578  0.00  0.00    +0.000 C 
BRANCH  13  14
ATOM     14  O   UNL     1       4.204   0.832  18.302  0.00  0.00    +0.000 OA
ATOM     15  H   UNL     1       3.310   0.466  18.410  0.00  0.00    +0.000 HD
ENDBRANCH  13  14
ENDBRANCH   8  13
ENDBRANCH   3   5
BRANCH   1  18
ATOM     16  O   UNL     1       2.259  10.481  17.565  0.00  0.00    +0.000 OA
ATOM     17  C   UNL     1       1.385   9.929  18.235  0.00  0.00    +0.000 C 
ATOM     18  N   UNL     1       1.362   8.571  18.465  0.00  0.00    +0.000 N 
ATOM     19  H   UNL     1       0.540   8.201  18.934  0.00  0.00    +0.000 HD
BRANCH  17  20
ATOM     20  C   UNL     1       0.256  10.749  18.781  0.00  0.00    +0.000 A 
ATOM     21  C   UNL     1       0.558  11.562  19.894  0.00  0.00    +0.000 A 
ATOM     22  C   UNL     1      -0.425  12.369  20.479  0.00  0.00    +0.000 A 
ATOM     23  C   UNL     1      -1.713  12.352  19.969  0.00  0.00    +0.000 A 
ATOM     24  F   UNL     1      -2.660  13.116  20.530  0.00  0.00    +0.000 F 
ATOM     25  C   UNL     1      -2.039  11.549  18.883  0.00  0.00    +0.000 A 
ATOM     26  C   UNL     1      -1.059  10.744  18.285  0.00  0.00    +0.000 A 
ATOM     27 CL   UNL     1      -1.585   9.752  16.970  0.00  0.00    +0.000 Cl
ENDBRANCH  17  20
ENDBRANCH   1  18
TORSDOF 6
ENDMDL
