MODEL 1
REMARK VINA RESULT:      -8.5      0.000      0.000
REMARK  Name = 
REMARK  9 active torsions:
REMARK  status: ('A' for Active; 'I' for Inactive)
REMARK    1  A    between atoms: C_1  and  C_2
REMARK    2  A    between atoms: C_2  and  C_3
REMARK    3  A    between atoms: C_2  and  C_4
REMARK    4  A    between atoms: C_4  and  N_5
REMARK    5  A    between atoms: N_12  and  C_13
REMARK    6  A    between atoms: C_13  and  C_14
REMARK    7  A    between atoms: C_14  and  C_16
REMARK    8  A    between atoms: C_19  and  C_20
REMARK    9  A    between atoms: N_24  and  C_25
REMARK                            x       y       z     vdW  Elec       q    Type
REMARK                         _______ _______ _______ _____ _____    ______ ____
ROOT
ATOM      1  N   UNL     1       2.894   5.085  20.312  0.00  0.00    +0.000 N 
ATOM      2  C   UNL     1       2.140   6.265  20.330  0.00  0.00    +0.000 A 
ATOM      3  O   UNL     1       1.325   6.554  21.202  0.00  0.00    +0.000 OA
ATOM      4  C   UNL     1       2.422   7.129  19.232  0.00  0.00    +0.000 A 
ATOM      5  C   UNL     1       3.348   6.837  18.270  0.00  0.00    +0.000 A 
ATOM      6  N   UNL     1       3.454   7.851  17.360  0.00  0.00    +0.000 NA
ATOM      7  C   UNL     1       2.560   8.740  17.737  0.00  0.00    +0.000 A 
ATOM      8  N   UNL     1       1.905   8.344  18.873  0.00  0.00    +0.000 N 
ATOM      9  N   UNL     1       4.086   5.672  18.318  0.00  0.00    +0.000 N 
ATOM     10  C   UNL     1       3.871   4.748  19.343  0.00  0.00    +0.000 A 
ATOM     11  O   UNL     1       4.471   3.670  19.401  0.00  0.00    +0.000 OA
ENDROOT
BRANCH   9  12
ATOM     12  C   UNL     1       5.000   5.420  17.264  0.00  0.00    +0.000 A 
ATOM     13  C   UNL     1       6.291   5.968  17.307  0.00  0.00    +0.000 A 
ATOM     14  C   UNL     1       7.185   5.758  16.257  0.00  0.00    +0.000 A 
ATOM     15  C   UNL     1       6.796   4.980  15.175  0.00  0.00    +0.000 A 
ATOM     16  F   UNL     1       7.661   4.765  14.176  0.00  0.00    +0.000 F 
ATOM     17  C   UNL     1       5.522   4.425  15.112  0.00  0.00    +0.000 A 
ATOM     18  C   UNL     1       4.615   4.661  16.148  0.00  0.00    +0.000 A 
ENDBRANCH   9  12
BRANCH   1  19
ATOM     19  C   UNL     1       2.646   4.111  21.372  0.00  0.00    +0.000 C 
BRANCH  19  21
ATOM     20  C   UNL     1       1.181   2.212  22.122  0.00  0.00    +0.000 C 
ATOM     21  C   UNL     1       1.826   2.888  20.909  0.00  0.00    +0.000 C 
ATOM     22  C   UNL     1       0.738   3.244  19.893  0.00  0.00    +0.000 C 
ENDBRANCH  19  21
ENDBRANCH   1  19
BRANCH   8  23
ATOM     23  C   UNL     1       0.908   9.128  19.586  0.00  0.00    +0.000 C 
BRANCH  23  24
ATOM     24  C   UNL     1       0.596  10.447  18.905  0.00  0.00    +0.000 C 
ATOM     25  O   UNL     1       1.432  11.328  18.725  0.00  0.00    +0.000 OA
BRANCH  24  26
ATOM     26  C   UNL     1      -0.823  10.715  18.519  0.00  0.00    +0.000 A 
ATOM     27  C   UNL     1      -1.541  11.677  19.246  0.00  0.00    +0.000 A 
ATOM     28  C   UNL     1      -2.879  11.945  18.944  0.00  0.00    +0.000 A 
ATOM     29  C   UNL     1      -3.512  11.261  17.902  0.00  0.00    +0.000 A 
ATOM     30  C   UNL     1      -2.796  10.310  17.166  0.00  0.00    +0.000 A 
ATOM     31  C   UNL     1      -1.458  10.036  17.472  0.00  0.00    +0.000 A 
BRANCH  29  32
ATOM     32  C   UNL     1      -4.886  11.531  17.588  0.00  0.00    +0.000 C 
ATOM     33  N   UNL     1      -5.993  11.760  17.331  0.00  0.00    +0.000 NA
ENDBRANCH  29  32
ENDBRANCH  24  26
ENDBRANCH  23  24
ENDBRANCH   8  23
TORSDOF 7
ENDMDL
MODEL 2
REMARK VINA RESULT:      -8.5      0.290      1.069
REMARK  Name = 
REMARK  9 active torsions:
REMARK  status: ('A' for Active; 'I' for Inactive)
REMARK    1  A    between atoms: C_1  and  C_2
REMARK    2  A    between atoms: C_2  and  C_3
REMARK    3  A    between atoms: C_2  and  C_4
REMARK    4  A    between atoms: C_4  and  N_5
REMARK    5  A    between atoms: N_12  and  C_13
REMARK    6  A    between atoms: C_13  and  C_14
REMARK    7  A    between atoms: C_14  and  C_16
REMARK    8  A    between atoms: C_19  and  C_20
REMARK    9  A    between atoms: N_24  and  C_25
REMARK                            x       y       z     vdW  Elec       q    Type
REMARK                         _______ _______ _______ _____ _____    ______ ____
ROOT
ATOM      1  N   UNL     1       3.005   4.919  20.085  0.00  0.00    +0.000 N 
ATOM      2  C   UNL     1       2.253   6.096  20.172  0.00  0.00    +0.000 A 
ATOM      3  O   UNL     1       1.454   6.344  21.072  0.00  0.00    +0.000 OA
ATOM      4  C   UNL     1       2.516   7.011  19.111  0.00  0.00    +0.000 A 
ATOM      5  C   UNL     1       3.424   6.765  18.120  0.00  0.00    +0.000 A 
ATOM      6  N   UNL     1       3.514   7.821  17.257  0.00  0.00    +0.000 NA
ATOM      7  C   UNL     1       2.628   8.691  17.692  0.00  0.00    +0.000 A 
ATOM      8  N   UNL     1       1.993   8.242  18.820  0.00  0.00    +0.000 N 
ATOM      9  N   UNL     1       4.161   5.599  18.099  0.00  0.00    +0.000 N 
ATOM     10  C   UNL     1       3.964   4.628  19.083  0.00  0.00    +0.000 A 
ATOM     11  O   UNL     1       4.565   3.548  19.079  0.00  0.00    +0.000 OA
ENDROOT
BRANCH   9  12
ATOM     12  C   UNL     1       5.055   5.398  17.018  0.00  0.00    +0.000 A 
ATOM     13  C   UNL     1       4.643   4.671  15.890  0.00  0.00    +0.000 A 
ATOM     14  C   UNL     1       5.527   4.435  14.837  0.00  0.00    +0.000 A 
ATOM     15  C   UNL     1       6.816   4.947  14.901  0.00  0.00    +0.000 A 
ATOM     16  F   UNL     1       7.658   4.736  13.882  0.00  0.00    +0.000 F 
ATOM     17  C   UNL     1       7.246   5.673  16.007  0.00  0.00    +0.000 A 
ATOM     18  C   UNL     1       6.371   5.882  17.077  0.00  0.00    +0.000 A 
ENDBRANCH   9  12
BRANCH   1  19
ATOM     19  C   UNL     1       2.776   3.896  21.102  0.00  0.00    +0.000 C 
BRANCH  19  21
ATOM     20  C   UNL     1       1.235   2.522  19.669  0.00  0.00    +0.000 C 
ATOM     21  C   UNL     1       1.382   3.238  21.014  0.00  0.00    +0.000 C 
ATOM     22  C   UNL     1       1.115   2.243  22.146  0.00  0.00    +0.000 C 
ENDBRANCH  19  21
ENDBRANCH   1  19
BRANCH   8  23
ATOM     23  C   UNL     1       1.011   8.992  19.587  0.00  0.00    +0.000 C 
BRANCH  23  24
ATOM     24  C   UNL     1       0.718  10.358  18.998  0.00  0.00    +0.000 C 
ATOM     25  O   UNL     1       1.555  11.253  18.920  0.00  0.00    +0.000 OA
BRANCH  24  26
ATOM     26  C   UNL     1      -0.687  10.651  18.578  0.00  0.00    +0.000 A 
ATOM     27  C   UNL     1      -1.403  11.629  19.284  0.00  0.00    +0.000 A 
ATOM     28  C   UNL     1      -2.728  11.921  18.949  0.00  0.00    +0.000 A 
ATOM     29  C   UNL     1      -3.349  11.245  17.895  0.00  0.00    +0.000 A 
ATOM     30  C   UNL     1      -2.634  10.278  17.179  0.00  0.00    +0.000 A 
ATOM     31  C   UNL     1      -1.308   9.981  17.517  0.00  0.00    +0.000 A 
BRANCH  29  32
ATOM     32  C   UNL     1      -4.710  11.540  17.547  0.00  0.00    +0.000 C 
ATOM     33  N   UNL     1      -5.812  11.776  17.277  0.00  0.00    +0.000 NA
ENDBRANCH  29  32
ENDBRANCH  24  26
ENDBRANCH  23  24
ENDBRANCH   8  23
TORSDOF 7
ENDMDL
MODEL 3
REMARK VINA RESULT:      -8.4      0.215      1.210
REMARK  Name = 
REMARK  9 active torsions:
REMARK  status: ('A' for Active; 'I' for Inactive)
REMARK    1  A    between atoms: C_1  and  C_2
REMARK    2  A    between atoms: C_2  and  C_3
REMARK    3  A    between atoms: C_2  and  C_4
REMARK    4  A    between atoms: C_4  and  N_5
REMARK    5  A    between atoms: N_12  and  C_13
REMARK    6  A    between atoms: C_13  and  C_14
REMARK    7  A    between atoms: C_14  and  C_16
REMARK    8  A    between atoms: C_19  and  C_20
REMARK    9  A    between atoms: N_24  and  C_25
REMARK                            x       y       z     vdW  Elec       q    Type
REMARK                         _______ _______ _______ _____ _____    ______ ____
ROOT
ATOM      1  N   UNL     1       3.042   4.954  20.187  0.00  0.00    +0.000 N 
ATOM      2  C   UNL     1       2.266   6.117  20.264  0.00  0.00    +0.000 A 
ATOM      3  O   UNL     1       1.477   6.364  21.172  0.00  0.00    +0.000 OA
ATOM      4  C   UNL     1       2.492   7.016  19.181  0.00  0.00    +0.000 A 
ATOM      5  C   UNL     1       3.389   6.770  18.180  0.00  0.00    +0.000 A 
ATOM      6  N   UNL     1       3.442   7.811  17.295  0.00  0.00    +0.000 NA
ATOM      7  C   UNL     1       2.545   8.670  17.728  0.00  0.00    +0.000 A 
ATOM      8  N   UNL     1       1.938   8.230  18.875  0.00  0.00    +0.000 N 
ATOM      9  N   UNL     1       4.151   5.620  18.169  0.00  0.00    +0.000 N 
ATOM     10  C   UNL     1       3.991   4.664  19.174  0.00  0.00    +0.000 A 
ATOM     11  O   UNL     1       4.615   3.597  19.181  0.00  0.00    +0.000 OA
ENDROOT
BRANCH   9  12
ATOM     12  C   UNL     1       5.031   5.417  17.077  0.00  0.00    +0.000 A 
ATOM     13  C   UNL     1       4.618   4.658  15.972  0.00  0.00    +0.000 A 
ATOM     14  C   UNL     1       5.489   4.421  14.909  0.00  0.00    +0.000 A 
ATOM     15  C   UNL     1       6.767   4.963  14.941  0.00  0.00    +0.000 A 
ATOM     16  F   UNL     1       7.597   4.749  13.912  0.00  0.00    +0.000 F 
ATOM     17  C   UNL     1       7.198   5.720  16.025  0.00  0.00    +0.000 A 
ATOM     18  C   UNL     1       6.336   5.932  17.104  0.00  0.00    +0.000 A 
ENDBRANCH   9  12
BRANCH   1  19
ATOM     19  C   UNL     1       2.851   3.946  21.227  0.00  0.00    +0.000 C 
BRANCH  19  21
ATOM     20  C   UNL     1       1.170   2.271  22.050  0.00  0.00    +0.000 C 
ATOM     21  C   UNL     1       1.899   2.804  20.814  0.00  0.00    +0.000 C 
ATOM     22  C   UNL     1       0.868   3.231  19.766  0.00  0.00    +0.000 C 
ENDBRANCH  19  21
ENDBRANCH   1  19
BRANCH   8  23
ATOM     23  C   UNL     1       0.952   8.973  19.644  0.00  0.00    +0.000 C 
BRANCH  23  24
ATOM     24  C   UNL     1       0.692  10.360  19.089  0.00  0.00    +0.000 C 
ATOM     25  O   UNL     1       1.556  11.229  19.014  0.00  0.00    +0.000 OA
BRANCH  24  26
ATOM     26  C   UNL     1      -0.709  10.705  18.699  0.00  0.00    +0.000 A 
ATOM     27  C   UNL     1      -1.273  10.054  17.592  0.00  0.00    +0.000 A 
ATOM     28  C   UNL     1      -2.569  10.361  17.169  0.00  0.00    +0.000 A 
ATOM     29  C   UNL     1      -3.322  11.316  17.858  0.00  0.00    +0.000 A 
ATOM     30  C   UNL     1      -2.769  11.959  18.972  0.00  0.00    +0.000 A 
ATOM     31  C   UNL     1      -1.468  11.656  19.392  0.00  0.00    +0.000 A 
BRANCH  29  32
ATOM     32  C   UNL     1      -4.653  11.637  17.428  0.00  0.00    +0.000 C 
ATOM     33  N   UNL     1      -5.726  11.907  17.080  0.00  0.00    +0.000 NA
ENDBRANCH  29  32
ENDBRANCH  24  26
ENDBRANCH  23  24
ENDBRANCH   8  23
TORSDOF 7
ENDMDL
MODEL 4
REMARK VINA RESULT:      -8.1      2.119      2.763
REMARK  Name = 
REMARK  9 active torsions:
REMARK  status: ('A' for Active; 'I' for Inactive)
REMARK    1  A    between atoms: C_1  and  C_2
REMARK    2  A    between atoms: C_2  and  C_3
REMARK    3  A    between atoms: C_2  and  C_4
REMARK    4  A    between atoms: C_4  and  N_5
REMARK    5  A    between atoms: N_12  and  C_13
REMARK    6  A    between atoms: C_13  and  C_14
REMARK    7  A    between atoms: C_14  and  C_16
REMARK    8  A    between atoms: C_19  and  C_20
REMARK    9  A    between atoms: N_24  and  C_25
REMARK                            x       y       z     vdW  Elec       q    Type
REMARK                         _______ _______ _______ _____ _____    ______ ____
ROOT
ATOM      1  N   UNL     1       2.797   5.248  20.334  0.00  0.00    +0.000 N 
ATOM      2  C   UNL     1       2.057   6.436  20.322  0.00  0.00    +0.000 A 
ATOM      3  O   UNL     1       1.231   6.747  21.176  0.00  0.00    +0.000 OA
ATOM      4  C   UNL     1       2.368   7.281  19.217  0.00  0.00    +0.000 A 
ATOM      5  C   UNL     1       3.306   6.965  18.276  0.00  0.00    +0.000 A 
ATOM      6  N   UNL     1       3.440   7.965  17.353  0.00  0.00    +0.000 NA
ATOM      7  C   UNL     1       2.551   8.870  17.703  0.00  0.00    +0.000 A 
ATOM      8  N   UNL     1       1.871   8.498  18.833  0.00  0.00    +0.000 N 
ATOM      9  N   UNL     1       4.030   5.792  18.352  0.00  0.00    +0.000 N 
ATOM     10  C   UNL     1       3.787   4.886  19.385  0.00  0.00    +0.000 A 
ATOM     11  O   UNL     1       4.373   3.801  19.469  0.00  0.00    +0.000 OA
ENDROOT
BRANCH   9  12
ATOM     12  C   UNL     1       4.958   5.516  17.317  0.00  0.00    +0.000 A 
ATOM     13  C   UNL     1       6.265   6.021  17.391  0.00  0.00    +0.000 A 
ATOM     14  C   UNL     1       7.175   5.786  16.361  0.00  0.00    +0.000 A 
ATOM     15  C   UNL     1       6.785   5.026  15.267  0.00  0.00    +0.000 A 
ATOM     16  F   UNL     1       7.665   4.786  14.286  0.00  0.00    +0.000 F 
ATOM     17  C   UNL     1       5.496   4.513  15.172  0.00  0.00    +0.000 A 
ATOM     18  C   UNL     1       4.574   4.774  16.190  0.00  0.00    +0.000 A 
ENDBRANCH   9  12
BRANCH   1  19
ATOM     19  C   UNL     1       2.520   4.292  21.403  0.00  0.00    +0.000 C 
BRANCH  19  21
ATOM     20  C   UNL     1       1.238   2.250  22.110  0.00  0.00    +0.000 C 
ATOM     21  C   UNL     1       1.830   3.000  20.914  0.00  0.00    +0.000 C 
ATOM     22  C   UNL     1       0.726   3.261  19.886  0.00  0.00    +0.000 C 
ENDBRANCH  19  21
ENDBRANCH   1  19
BRANCH   8  23
ATOM     23  C   UNL     1       0.872   9.303  19.518  0.00  0.00    +0.000 C 
BRANCH  23  24
ATOM     24  C   UNL     1       0.120  10.231  18.584  0.00  0.00    +0.000 C 
ATOM     25  O   UNL     1      -0.618   9.832  17.687  0.00  0.00    +0.000 OA
BRANCH  24  26
ATOM     26  C   UNL     1       0.365  11.700  18.711  0.00  0.00    +0.000 A 
ATOM     27  C   UNL     1       1.637  12.130  19.120  0.00  0.00    +0.000 A 
ATOM     28  C   UNL     1       1.909  13.491  19.281  0.00  0.00    +0.000 A 
ATOM     29  C   UNL     1       0.916  14.440  19.023  0.00  0.00    +0.000 A 
ATOM     30  C   UNL     1      -0.350  14.016  18.602  0.00  0.00    +0.000 A 
ATOM     31  C   UNL     1      -0.626  12.652  18.446  0.00  0.00    +0.000 A 
BRANCH  29  32
ATOM     32  C   UNL     1       1.190  15.839  19.188  0.00  0.00    +0.000 C 
ATOM     33  N   UNL     1       1.422  16.967  19.320  0.00  0.00    +0.000 NA
ENDBRANCH  29  32
ENDBRANCH  24  26
ENDBRANCH  23  24
ENDBRANCH   8  23
TORSDOF 7
ENDMDL
MODEL 5
REMARK VINA RESULT:      -8.0      2.104      2.819
REMARK  Name = 
REMARK  9 active torsions:
REMARK  status: ('A' for Active; 'I' for Inactive)
REMARK    1  A    between atoms: C_1  and  C_2
REMARK    2  A    between atoms: C_2  and  C_3
REMARK    3  A    between atoms: C_2  and  C_4
REMARK    4  A    between atoms: C_4  and  N_5
REMARK    5  A    between atoms: N_12  and  C_13
REMARK    6  A    between atoms: C_13  and  C_14
REMARK    7  A    between atoms: C_14  and  C_16
REMARK    8  A    between atoms: C_19  and  C_20
REMARK    9  A    between atoms: N_24  and  C_25
REMARK                            x       y       z     vdW  Elec       q    Type
REMARK                         _______ _______ _______ _____ _____    ______ ____
ROOT
ATOM      1  N   UNL     1       2.901   5.080  20.167  0.00  0.00    +0.000 N 
ATOM      2  C   UNL     1       2.165   6.270  20.193  0.00  0.00    +0.000 A 
ATOM      3  O   UNL     1       1.352   6.564  21.066  0.00  0.00    +0.000 OA
ATOM      4  C   UNL     1       2.461   7.138  19.101  0.00  0.00    +0.000 A 
ATOM      5  C   UNL     1       3.384   6.840  18.139  0.00  0.00    +0.000 A 
ATOM      6  N   UNL     1       3.507   7.859  17.236  0.00  0.00    +0.000 NA
ATOM      7  C   UNL     1       2.626   8.758  17.619  0.00  0.00    +0.000 A 
ATOM      8  N   UNL     1       1.962   8.364  18.751  0.00  0.00    +0.000 N 
ATOM      9  N   UNL     1       4.105   5.664  18.179  0.00  0.00    +0.000 N 
ATOM     10  C   UNL     1       3.875   4.736  19.197  0.00  0.00    +0.000 A 
ATOM     11  O   UNL     1       4.460   3.648  19.248  0.00  0.00    +0.000 OA
ENDROOT
BRANCH   9  12
ATOM     12  C   UNL     1       5.017   5.407  17.125  0.00  0.00    +0.000 A 
ATOM     13  C   UNL     1       6.331   5.894  17.197  0.00  0.00    +0.000 A 
ATOM     14  C   UNL     1       7.225   5.679  16.149  0.00  0.00    +0.000 A 
ATOM     15  C   UNL     1       6.812   4.957  15.037  0.00  0.00    +0.000 A 
ATOM     16  F   UNL     1       7.677   4.736  14.039  0.00  0.00    +0.000 F 
ATOM     17  C   UNL     1       5.516   4.462  14.944  0.00  0.00    +0.000 A 
ATOM     18  C   UNL     1       4.610   4.704  15.981  0.00  0.00    +0.000 A 
ENDBRANCH   9  12
BRANCH   1  19
ATOM     19  C   UNL     1       2.637   4.102  21.219  0.00  0.00    +0.000 C 
BRANCH  19  21
ATOM     20  C   UNL     1       1.103   2.871  19.655  0.00  0.00    +0.000 C 
ATOM     21  C   UNL     1       1.269   3.400  21.082  0.00  0.00    +0.000 C 
ATOM     22  C   UNL     1       1.084   2.247  22.072  0.00  0.00    +0.000 C 
ENDBRANCH  19  21
ENDBRANCH   1  19
BRANCH   8  23
ATOM     23  C   UNL     1       0.976   9.157  19.468  0.00  0.00    +0.000 C 
BRANCH  23  24
ATOM     24  C   UNL     1       0.216  10.111  18.567  0.00  0.00    +0.000 C 
ATOM     25  O   UNL     1      -0.582   9.738  17.711  0.00  0.00    +0.000 OA
BRANCH  24  26
ATOM     26  C   UNL     1       0.529  11.569  18.671  0.00  0.00    +0.000 A 
ATOM     27  C   UNL     1      -0.533  12.484  18.597  0.00  0.00    +0.000 A 
ATOM     28  C   UNL     1      -0.291  13.860  18.661  0.00  0.00    +0.000 A 
ATOM     29  C   UNL     1       1.015  14.335  18.811  0.00  0.00    +0.000 A 
ATOM     30  C   UNL     1       2.075  13.425  18.899  0.00  0.00    +0.000 A 
ATOM     31  C   UNL     1       1.835  12.048  18.829  0.00  0.00    +0.000 A 
BRANCH  29  32
ATOM     32  C   UNL     1       1.268  15.746  18.876  0.00  0.00    +0.000 C 
ATOM     33  N   UNL     1       1.466  16.887  18.936  0.00  0.00    +0.000 NA
ENDBRANCH  29  32
ENDBRANCH  24  26
ENDBRANCH  23  24
ENDBRANCH   8  23
TORSDOF 7
ENDMDL
MODEL 6
REMARK VINA RESULT:      -8.0      2.144      2.984
REMARK  Name = 
REMARK  9 active torsions:
REMARK  status: ('A' for Active; 'I' for Inactive)
REMARK    1  A    between atoms: C_1  and  C_2
REMARK    2  A    between atoms: C_2  and  C_3
REMARK    3  A    between atoms: C_2  and  C_4
REMARK    4  A    between atoms: C_4  and  N_5
REMARK    5  A    between atoms: N_12  and  C_13
REMARK    6  A    between atoms: C_13  and  C_14
REMARK    7  A    between atoms: C_14  and  C_16
REMARK    8  A    between atoms: C_19  and  C_20
REMARK    9  A    between atoms: N_24  and  C_25
REMARK                            x       y       z     vdW  Elec       q    Type
REMARK                         _______ _______ _______ _____ _____    ______ ____
ROOT
ATOM      1  N   UNL     1       2.822   5.299  20.256  0.00  0.00    +0.000 N 
ATOM      2  C   UNL     1       2.058   6.472  20.262  0.00  0.00    +0.000 A 
ATOM      3  O   UNL     1       1.232   6.758  21.125  0.00  0.00    +0.000 OA
ATOM      4  C   UNL     1       2.343   7.334  19.162  0.00  0.00    +0.000 A 
ATOM      5  C   UNL     1       3.281   7.046  18.211  0.00  0.00    +0.000 A 
ATOM      6  N   UNL     1       3.388   8.057  17.297  0.00  0.00    +0.000 NA
ATOM      7  C   UNL     1       2.483   8.940  17.662  0.00  0.00    +0.000 A 
ATOM      8  N   UNL     1       1.820   8.543  18.794  0.00  0.00    +0.000 N 
ATOM      9  N   UNL     1       4.028   5.887  18.271  0.00  0.00    +0.000 N 
ATOM     10  C   UNL     1       3.811   4.966  19.298  0.00  0.00    +0.000 A 
ATOM     11  O   UNL     1       4.420   3.893  19.366  0.00  0.00    +0.000 OA
ENDROOT
BRANCH   9  12
ATOM     12  C   UNL     1       4.954   5.639  17.227  0.00  0.00    +0.000 A 
ATOM     13  C   UNL     1       4.562   4.903  16.099  0.00  0.00    +0.000 A 
ATOM     14  C   UNL     1       5.475   4.621  15.083  0.00  0.00    +0.000 A 
ATOM     15  C   UNL     1       6.776   5.096  15.185  0.00  0.00    +0.000 A 
ATOM     16  F   UNL     1       7.648   4.841  14.201  0.00  0.00    +0.000 F 
ATOM     17  C   UNL     1       7.187   5.830  16.293  0.00  0.00    +0.000 A 
ATOM     18  C   UNL     1       6.281   6.086  17.326  0.00  0.00    +0.000 A 
ENDBRANCH   9  12
BRANCH   1  19
ATOM     19  C   UNL     1       2.571   4.327  21.318  0.00  0.00    +0.000 C 
BRANCH  19  21
ATOM     20  C   UNL     1       1.156   3.088  19.653  0.00  0.00    +0.000 C 
ATOM     21  C   UNL     1       1.275   3.513  21.119  0.00  0.00    +0.000 C 
ATOM     22  C   UNL     1       1.202   2.273  22.011  0.00  0.00    +0.000 C 
ENDBRANCH  19  21
ENDBRANCH   1  19
BRANCH   8  23
ATOM     23  C   UNL     1       0.809   9.322  19.493  0.00  0.00    +0.000 C 
BRANCH  23  24
ATOM     24  C   UNL     1       0.066  10.280  18.583  0.00  0.00    +0.000 C 
ATOM     25  O   UNL     1      -0.694   9.910  17.692  0.00  0.00    +0.000 OA
BRANCH  24  26
ATOM     26  C   UNL     1       0.349  11.741  18.725  0.00  0.00    +0.000 A 
ATOM     27  C   UNL     1       1.611  12.132  19.197  0.00  0.00    +0.000 A 
ATOM     28  C   UNL     1       1.916  13.485  19.375  0.00  0.00    +0.000 A 
ATOM     29  C   UNL     1       0.965  14.463  19.071  0.00  0.00    +0.000 A 
ATOM     30  C   UNL     1      -0.291  14.077  18.587  0.00  0.00    +0.000 A 
ATOM     31  C   UNL     1      -0.600  12.723  18.414  0.00  0.00    +0.000 A 
BRANCH  29  32
ATOM     32  C   UNL     1       1.272  15.853  19.252  0.00  0.00    +0.000 C 
ATOM     33  N   UNL     1       1.515  16.978  19.389  0.00  0.00    +0.000 NA
ENDBRANCH  29  32
ENDBRANCH  24  26
ENDBRANCH  23  24
ENDBRANCH   8  23
TORSDOF 7
ENDMDL
MODEL 7
REMARK VINA RESULT:      -7.9      2.338      3.080
REMARK  Name = 
REMARK  9 active torsions:
REMARK  status: ('A' for Active; 'I' for Inactive)
REMARK    1  A    between atoms: C_1  and  C_2
REMARK    2  A    between atoms: C_2  and  C_3
REMARK    3  A    between atoms: C_2  and  C_4
REMARK    4  A    between atoms: C_4  and  N_5
REMARK    5  A    between atoms: N_12  and  C_13
REMARK    6  A    between atoms: C_13  and  C_14
REMARK    7  A    between atoms: C_14  and  C_16
REMARK    8  A    between atoms: C_19  and  C_20
REMARK    9  A    between atoms: N_24  and  C_25
REMARK                            x       y       z     vdW  Elec       q    Type
REMARK                         _______ _______ _______ _____ _____    ______ ____
ROOT
ATOM      1  N   UNL     1       2.589   5.552  20.340  0.00  0.00    +0.000 N 
ATOM      2  C   UNL     1       1.797   6.706  20.297  0.00  0.00    +0.000 A 
ATOM      3  O   UNL     1       0.919   6.975  21.113  0.00  0.00    +0.000 OA
ATOM      4  C   UNL     1       2.120   7.570  19.210  0.00  0.00    +0.000 A 
ATOM      5  C   UNL     1       3.114   7.301  18.312  0.00  0.00    +0.000 A 
ATOM      6  N   UNL     1       3.244   8.310  17.399  0.00  0.00    +0.000 NA
ATOM      7  C   UNL     1       2.300   9.172  17.710  0.00  0.00    +0.000 A 
ATOM      8  N   UNL     1       1.587   8.764  18.807  0.00  0.00    +0.000 N 
ATOM      9  N   UNL     1       3.885   6.161  18.419  0.00  0.00    +0.000 N 
ATOM     10  C   UNL     1       3.636   5.240  19.438  0.00  0.00    +0.000 A 
ATOM     11  O   UNL     1       4.267   4.183  19.545  0.00  0.00    +0.000 OA
ENDROOT
BRANCH   9  12
ATOM     12  C   UNL     1       4.872   5.932  17.427  0.00  0.00    +0.000 A 
ATOM     13  C   UNL     1       4.565   5.165  16.293  0.00  0.00    +0.000 A 
ATOM     14  C   UNL     1       5.538   4.902  15.330  0.00  0.00    +0.000 A 
ATOM     15  C   UNL     1       6.814   5.426  15.490  0.00  0.00    +0.000 A 
ATOM     16  F   UNL     1       7.744   5.187  14.556  0.00  0.00    +0.000 F 
ATOM     17  C   UNL     1       7.141   6.191  16.604  0.00  0.00    +0.000 A 
ATOM     18  C   UNL     1       6.175   6.429  17.585  0.00  0.00    +0.000 A 
ENDBRANCH   9  12
BRANCH   1  19
ATOM     19  C   UNL     1       2.306   4.579  21.392  0.00  0.00    +0.000 C 
BRANCH  19  21
ATOM     20  C   UNL     1       1.419   2.317  22.032  0.00  0.00    +0.000 C 
ATOM     21  C   UNL     1       1.828   3.212  20.859  0.00  0.00    +0.000 C 
ATOM     22  C   UNL     1       0.657   3.326  19.880  0.00  0.00    +0.000 C 
ENDBRANCH  19  21
ENDBRANCH   1  19
BRANCH   8  23
ATOM     23  C   UNL     1       0.522   9.520  19.447  0.00  0.00    +0.000 C 
BRANCH  23  24
ATOM     24  C   UNL     1       1.037  10.539  20.445  0.00  0.00    +0.000 C 
ATOM     25  O   UNL     1       1.348  10.255  21.598  0.00  0.00    +0.000 OA
BRANCH  24  26
ATOM     26  C   UNL     1       1.079  11.972  20.022  0.00  0.00    +0.000 A 
ATOM     27  C   UNL     1       0.147  12.413  19.070  0.00  0.00    +0.000 A 
ATOM     28  C   UNL     1       0.162  13.737  18.620  0.00  0.00    +0.000 A 
ATOM     29  C   UNL     1       1.103  14.638  19.127  0.00  0.00    +0.000 A 
ATOM     30  C   UNL     1       2.026  14.205  20.086  0.00  0.00    +0.000 A 
ATOM     31  C   UNL     1       2.016  12.879  20.533  0.00  0.00    +0.000 A 
BRANCH  29  32
ATOM     32  C   UNL     1       1.124  15.997  18.668  0.00  0.00    +0.000 C 
ATOM     33  N   UNL     1       1.141  17.092  18.287  0.00  0.00    +0.000 NA
ENDBRANCH  29  32
ENDBRANCH  24  26
ENDBRANCH  23  24
ENDBRANCH   8  23
TORSDOF 7
ENDMDL
MODEL 8
REMARK VINA RESULT:      -7.8      2.282      3.649
REMARK  Name = 
REMARK  9 active torsions:
REMARK  status: ('A' for Active; 'I' for Inactive)
REMARK    1  A    between atoms: C_1  and  C_2
REMARK    2  A    between atoms: C_2  and  C_3
REMARK    3  A    between atoms: C_2  and  C_4
REMARK    4  A    between atoms: C_4  and  N_5
REMARK    5  A    between atoms: N_12  and  C_13
REMARK    6  A    between atoms: C_13  and  C_14
REMARK    7  A    between atoms: C_14  and  C_16
REMARK    8  A    between atoms: C_19  and  C_20
REMARK    9  A    between atoms: N_24  and  C_25
REMARK                            x       y       z     vdW  Elec       q    Type
REMARK                         _______ _______ _______ _____ _____    ______ ____
ROOT
ATOM      1  N   UNL     1       2.765   5.271  20.360  0.00  0.00    +0.000 N 
ATOM      2  C   UNL     1       2.012   6.451  20.363  0.00  0.00    +0.000 A 
ATOM      3  O   UNL     1       1.182   6.742  21.221  0.00  0.00    +0.000 OA
ATOM      4  C   UNL     1       2.313   7.312  19.268  0.00  0.00    +0.000 A 
ATOM      5  C   UNL     1       3.255   7.017  18.323  0.00  0.00    +0.000 A 
ATOM      6  N   UNL     1       3.377   8.029  17.411  0.00  0.00    +0.000 NA
ATOM      7  C   UNL     1       2.478   8.920  17.772  0.00  0.00    +0.000 A 
ATOM      8  N   UNL     1       1.803   8.527  18.898  0.00  0.00    +0.000 N 
ATOM      9  N   UNL     1       3.991   5.852  18.385  0.00  0.00    +0.000 N 
ATOM     10  C   UNL     1       3.758   4.931  19.408  0.00  0.00    +0.000 A 
ATOM     11  O   UNL     1       4.357   3.852  19.479  0.00  0.00    +0.000 OA
ENDROOT
BRANCH   9  12
ATOM     12  C   UNL     1       4.922   5.597  17.347  0.00  0.00    +0.000 A 
ATOM     13  C   UNL     1       4.556   4.798  16.253  0.00  0.00    +0.000 A 
ATOM     14  C   UNL     1       5.476   4.511  15.245  0.00  0.00    +0.000 A 
ATOM     15  C   UNL     1       6.756   5.043  15.320  0.00  0.00    +0.000 A 
ATOM     16  F   UNL     1       7.634   4.782  14.342  0.00  0.00    +0.000 F 
ATOM     17  C   UNL     1       7.141   5.840  16.392  0.00  0.00    +0.000 A 
ATOM     18  C   UNL     1       6.229   6.102  17.419  0.00  0.00    +0.000 A 
ENDBRANCH   9  12
BRANCH   1  19
ATOM     19  C   UNL     1       2.498   4.299  21.418  0.00  0.00    +0.000 C 
BRANCH  19  21
ATOM     20  C   UNL     1       1.272   2.218  22.110  0.00  0.00    +0.000 C 
ATOM     21  C   UNL     1       1.809   3.012  20.916  0.00  0.00    +0.000 C 
ATOM     22  C   UNL     1       0.666   3.286  19.938  0.00  0.00    +0.000 C 
ENDBRANCH  19  21
ENDBRANCH   1  19
BRANCH   8  23
ATOM     23  C   UNL     1       0.795   9.314  19.592  0.00  0.00    +0.000 C 
BRANCH  23  24
ATOM     24  C   UNL     1       0.475  10.618  18.888  0.00  0.00    +0.000 C 
ATOM     25  O   UNL     1      -0.381  10.720  18.013  0.00  0.00    +0.000 OA
BRANCH  24  26
ATOM     26  C   UNL     1       1.310  11.813  19.218  0.00  0.00    +0.000 A 
ATOM     27  C   UNL     1       2.063  12.403  18.191  0.00  0.00    +0.000 A 
ATOM     28  C   UNL     1       2.882  13.505  18.453  0.00  0.00    +0.000 A 
ATOM     29  C   UNL     1       2.949  14.038  19.744  0.00  0.00    +0.000 A 
ATOM     30  C   UNL     1       2.189  13.460  20.768  0.00  0.00    +0.000 A 
ATOM     31  C   UNL     1       1.373  12.353  20.508  0.00  0.00    +0.000 A 
BRANCH  29  32
ATOM     32  C   UNL     1       3.788  15.168  20.018  0.00  0.00    +0.000 C 
ATOM     33  N   UNL     1       4.475  16.077  20.234  0.00  0.00    +0.000 NA
ENDBRANCH  29  32
ENDBRANCH  24  26
ENDBRANCH  23  24
ENDBRANCH   8  23
TORSDOF 7
ENDMDL
MODEL 9
REMARK VINA RESULT:      -7.8      2.374      3.444
REMARK  Name = 
REMARK  9 active torsions:
REMARK  status: ('A' for Active; 'I' for Inactive)
REMARK    1  A    between atoms: C_1  and  C_2
REMARK    2  A    between atoms: C_2  and  C_3
REMARK    3  A    between atoms: C_2  and  C_4
REMARK    4  A    between atoms: C_4  and  N_5
REMARK    5  A    between atoms: N_12  and  C_13
REMARK    6  A    between atoms: C_13  and  C_14
REMARK    7  A    between atoms: C_14  and  C_16
REMARK    8  A    between atoms: C_19  and  C_20
REMARK    9  A    between atoms: N_24  and  C_25
REMARK                            x       y       z     vdW  Elec       q    Type
REMARK                         _______ _______ _______ _____ _____    ______ ____
ROOT
ATOM      1  N   UNL     1       3.022   4.853  20.096  0.00  0.00    +0.000 N 
ATOM      2  C   UNL     1       2.293   6.045  20.187  0.00  0.00    +0.000 A 
ATOM      3  O   UNL     1       1.503   6.308  21.091  0.00  0.00    +0.000 OA
ATOM      4  C   UNL     1       2.569   6.955  19.125  0.00  0.00    +0.000 A 
ATOM      5  C   UNL     1       3.467   6.692  18.130  0.00  0.00    +0.000 A 
ATOM      6  N   UNL     1       3.574   7.746  17.267  0.00  0.00    +0.000 NA
ATOM      7  C   UNL     1       2.708   8.634  17.707  0.00  0.00    +0.000 A 
ATOM      8  N   UNL     1       2.069   8.197  18.837  0.00  0.00    +0.000 N 
ATOM      9  N   UNL     1       4.182   5.511  18.105  0.00  0.00    +0.000 N 
ATOM     10  C   UNL     1       3.970   4.544  19.089  0.00  0.00    +0.000 A 
ATOM     11  O   UNL     1       4.549   3.452  19.082  0.00  0.00    +0.000 OA
ENDROOT
BRANCH   9  12
ATOM     12  C   UNL     1       5.067   5.293  17.019  0.00  0.00    +0.000 A 
ATOM     13  C   UNL     1       6.377   5.793  17.069  0.00  0.00    +0.000 A 
ATOM     14  C   UNL     1       7.244   5.617  15.991  0.00  0.00    +0.000 A 
ATOM     15  C   UNL     1       6.808   4.919  14.872  0.00  0.00    +0.000 A 
ATOM     16  F   UNL     1       7.647   4.735  13.845  0.00  0.00    +0.000 F 
ATOM     17  C   UNL     1       5.515   4.412  14.802  0.00  0.00    +0.000 A 
ATOM     18  C   UNL     1       4.635   4.616  15.869  0.00  0.00    +0.000 A 
ENDBRANCH   9  12
BRANCH   1  19
ATOM     19  C   UNL     1       2.777   3.834  21.113  0.00  0.00    +0.000 C 
BRANCH  19  21
ATOM     20  C   UNL     1       1.168   2.536  19.685  0.00  0.00    +0.000 C 
ATOM     21  C   UNL     1       1.364   3.216  21.043  0.00  0.00    +0.000 C 
ATOM     22  C   UNL     1       1.095   2.203  22.158  0.00  0.00    +0.000 C 
ENDBRANCH  19  21
ENDBRANCH   1  19
BRANCH   8  23
ATOM     23  C   UNL     1       1.105   8.965  19.609  0.00  0.00    +0.000 C 
BRANCH  23  24
ATOM     24  C   UNL     1       0.618  10.203  18.882  0.00  0.00    +0.000 C 
ATOM     25  O   UNL     1      -0.226  10.173  17.990  0.00  0.00    +0.000 OA
BRANCH  24  26
ATOM     26  C   UNL     1       1.267  11.508  19.212  0.00  0.00    +0.000 A 
ATOM     27  C   UNL     1       2.071  12.117  18.235  0.00  0.00    +0.000 A 
ATOM     28  C   UNL     1       2.723  13.324  18.503  0.00  0.00    +0.000 A 
ATOM     29  C   UNL     1       2.570  13.943  19.747  0.00  0.00    +0.000 A 
ATOM     30  C   UNL     1       1.759  13.345  20.719  0.00  0.00    +0.000 A 
ATOM     31  C   UNL     1       1.109  12.133  20.454  0.00  0.00    +0.000 A 
BRANCH  29  32
ATOM     32  C   UNL     1       3.238  15.181  20.028  0.00  0.00    +0.000 C 
ATOM     33  N   UNL     1       3.785  16.180  20.246  0.00  0.00    +0.000 NA
ENDBRANCH  29  32
ENDBRANCH  24  26
ENDBRANCH  23  24
ENDBRANCH   8  23
TORSDOF 7
ENDMDL
