MODEL 1
REMARK VINA RESULT:      -7.3      0.000      0.000
REMARK  Name = 
REMARK  7 active torsions:
REMARK  status: ('A' for Active; 'I' for Inactive)
REMARK    1  A    between atoms: C_1  and  C_2
REMARK    2  A    between atoms: C_6  and  C_7
REMARK    3  A    between atoms: C_8  and  N_9
REMARK    4  A    between atoms: C_13  and  C_14
REMARK    5  A    between atoms: C_14  and  C_15
REMARK    6  A    between atoms: C_14  and  N_18
REMARK    7  A    between atoms: N_28  and  C_29
REMARK                            x       y       z     vdW  Elec       q    Type
REMARK                         _______ _______ _______ _____ _____    ______ ____
ROOT
ATOM      1  N   UNL     1      -2.671  12.579  20.705  0.00  0.00    +0.000 NA
ATOM      2  C   UNL     1      -2.360  11.983  22.017  0.00  0.00    +0.000 C 
ATOM      3  C   UNL     1      -1.750  12.851  23.113  0.00  0.00    +0.000 C 
ATOM      4  C   UNL     1      -2.276  14.290  23.184  0.00  0.00    +0.000 C 
ATOM      5  C   UNL     1      -2.592  14.940  21.837  0.00  0.00    +0.000 C 
ATOM      6  C   UNL     1      -3.130  13.993  20.747  0.00  0.00    +0.000 C 
ATOM      7  C   UNL     1      -1.161  15.132  23.892  0.00  0.00    +0.000 C 
ATOM      8  O   UNL     1      -0.105  15.573  23.446  0.00  0.00    +0.000 OA
ATOM      9  N   UNL     1      -1.532  15.282  25.207  0.00  0.00    +0.000 N 
ATOM     10  C   UNL     1      -2.777  14.652  25.511  0.00  0.00    +0.000 C 
ATOM     11  N   UNL     1      -3.373  14.420  24.204  0.00  0.00    +0.000 N 
ATOM     12  H   UNL     1      -0.928  15.737  25.869  0.00  0.00    +0.000 HD
ENDROOT
BRANCH  11  13
ATOM     13  C   UNL     1      -4.717  14.189  24.037  0.00  0.00    +0.000 A 
ATOM     14  C   UNL     1      -5.296  12.921  24.119  0.00  0.00    +0.000 A 
ATOM     15  C   UNL     1      -6.692  12.720  24.019  0.00  0.00    +0.000 A 
ATOM     16  C   UNL     1      -7.561  13.788  23.818  0.00  0.00    +0.000 A 
ATOM     17  C   UNL     1      -7.022  15.053  23.717  0.00  0.00    +0.000 A 
ATOM     18  C   UNL     1      -5.651  15.212  23.821  0.00  0.00    +0.000 A 
ENDBRANCH  11  13
BRANCH   1  19
ATOM     19  C   UNL     1      -1.692  12.287  19.577  0.00  0.00    +0.000 C 
BRANCH  19  24
ATOM     20  N   UNL     1       0.757  11.489  20.417  0.00  0.00    +0.000 N 
ATOM     21  N   UNL     1       1.816  12.280  20.762  0.00  0.00    +0.000 NA
ATOM     22  N   UNL     1       1.451  13.527  20.740  0.00  0.00    +0.000 NA
ATOM     23  N   UNL     1       0.202  13.601  20.313  0.00  0.00    +0.000 NA
ATOM     24  C   UNL     1      -0.272  12.390  20.077  0.00  0.00    +0.000 A 
BRANCH  20  32
ATOM     25  C   UNL     1      -0.086   9.537  22.853  0.00  0.00    +0.000 C 
ATOM     26  C   UNL     1       0.739   9.248  21.633  0.00  0.00    +0.000 A 
ATOM     27  C   UNL     1       1.076   7.867  21.575  0.00  0.00    +0.000 A 
ATOM     28  C   UNL     1       1.616   7.269  20.451  0.00  0.00    +0.000 A 
ATOM     29  C   UNL     1       1.832   8.035  19.328  0.00  0.00    +0.000 A 
ATOM     30  C   UNL     1       1.545   9.411  19.323  0.00  0.00    +0.000 A 
ATOM     31  C   UNL     1       1.787  10.050  17.957  0.00  0.00    +0.000 C 
ATOM     32  C   UNL     1       1.013  10.069  20.512  0.00  0.00    +0.000 A 
ENDBRANCH  20  32
ENDBRANCH  19  24
BRANCH  19  33
ATOM     33  C   UNL     1      -2.114  10.961  18.946  0.00  0.00    +0.000 C 
ATOM     34  C   UNL     1      -3.081  10.938  17.772  0.00  0.00    +0.000 C 
ATOM     35  C   UNL     1      -1.691  10.403  17.608  0.00  0.00    +0.000 C 
ENDBRANCH  19  33
ENDBRANCH   1  19
TORSDOF 5
ENDMDL
MODEL 2
REMARK VINA RESULT:      -7.0      0.187      1.533
REMARK  Name = 
REMARK  7 active torsions:
REMARK  status: ('A' for Active; 'I' for Inactive)
REMARK    1  A    between atoms: C_1  and  C_2
REMARK    2  A    between atoms: C_6  and  C_7
REMARK    3  A    between atoms: C_8  and  N_9
REMARK    4  A    between atoms: C_13  and  C_14
REMARK    5  A    between atoms: C_14  and  C_15
REMARK    6  A    between atoms: C_14  and  N_18
REMARK    7  A    between atoms: N_28  and  C_29
REMARK                            x       y       z     vdW  Elec       q    Type
REMARK                         _______ _______ _______ _____ _____    ______ ____
ROOT
ATOM      1  N   UNL     1      -2.661  12.611  20.756  0.00  0.00    +0.000 NA
ATOM      2  C   UNL     1      -2.380  11.998  22.067  0.00  0.00    +0.000 C 
ATOM      3  C   UNL     1      -1.792  12.851  23.186  0.00  0.00    +0.000 C 
ATOM      4  C   UNL     1      -2.316  14.291  23.264  0.00  0.00    +0.000 C 
ATOM      5  C   UNL     1      -2.601  14.958  21.918  0.00  0.00    +0.000 C 
ATOM      6  C   UNL     1      -3.117  14.025  20.805  0.00  0.00    +0.000 C 
ATOM      7  C   UNL     1      -1.214  15.120  24.006  0.00  0.00    +0.000 C 
ATOM      8  O   UNL     1      -0.148  15.564  23.588  0.00  0.00    +0.000 OA
ATOM      9  N   UNL     1      -1.614  15.256  25.314  0.00  0.00    +0.000 N 
ATOM     10  C   UNL     1      -2.866  14.626  25.583  0.00  0.00    +0.000 C 
ATOM     11  N   UNL     1      -3.435  14.411  24.261  0.00  0.00    +0.000 N 
ATOM     12  H   UNL     1      -1.023  15.701  25.994  0.00  0.00    +0.000 HD
ENDROOT
BRANCH  11  13
ATOM     13  C   UNL     1      -4.775  14.185  24.062  0.00  0.00    +0.000 A 
ATOM     14  C   UNL     1      -5.357  12.917  24.103  0.00  0.00    +0.000 A 
ATOM     15  C   UNL     1      -6.751  12.719  23.971  0.00  0.00    +0.000 A 
ATOM     16  C   UNL     1      -7.615  13.793  23.778  0.00  0.00    +0.000 A 
ATOM     17  C   UNL     1      -7.073  15.059  23.717  0.00  0.00    +0.000 A 
ATOM     18  C   UNL     1      -5.703  15.214  23.852  0.00  0.00    +0.000 A 
ENDBRANCH  11  13
BRANCH   1  19
ATOM     19  C   UNL     1      -1.658  12.330  19.645  0.00  0.00    +0.000 C 
BRANCH  19  24
ATOM     20  N   UNL     1       0.783  11.439  20.410  0.00  0.00    +0.000 N 
ATOM     21  N   UNL     1       1.823  12.179  20.899  0.00  0.00    +0.000 NA
ATOM     22  N   UNL     1       1.440  13.410  21.060  0.00  0.00    +0.000 NA
ATOM     23  N   UNL     1       0.200  13.535  20.621  0.00  0.00    +0.000 NA
ATOM     24  C   UNL     1      -0.251  12.370  20.189  0.00  0.00    +0.000 A 
BRANCH  20  32
ATOM     25  C   UNL     1       2.222   9.959  17.922  0.00  0.00    +0.000 C 
ATOM     26  C   UNL     1       1.585   9.374  19.149  0.00  0.00    +0.000 A 
ATOM     27  C   UNL     1       1.773   7.964  19.183  0.00  0.00    +0.000 A 
ATOM     28  C   UNL     1       1.512   7.196  20.303  0.00  0.00    +0.000 A 
ATOM     29  C   UNL     1       1.058   7.816  21.445  0.00  0.00    +0.000 A 
ATOM     30  C   UNL     1       0.827   9.202  21.474  0.00  0.00    +0.000 A 
ATOM     31  C   UNL     1       0.401   9.691  22.856  0.00  0.00    +0.000 C 
ATOM     32  C   UNL     1       1.058  10.024  20.291  0.00  0.00    +0.000 A 
ENDBRANCH  20  32
ENDBRANCH  19  24
BRANCH  19  33
ATOM     33  C   UNL     1      -2.102  11.042  18.954  0.00  0.00    +0.000 C 
ATOM     34  C   UNL     1      -2.880  11.095  17.648  0.00  0.00    +0.000 C 
ATOM     35  C   UNL     1      -1.536  10.434  17.692  0.00  0.00    +0.000 C 
ENDBRANCH  19  33
ENDBRANCH   1  19
TORSDOF 5
ENDMDL
MODEL 3
REMARK VINA RESULT:      -6.9      4.239      9.844
REMARK  Name = 
REMARK  7 active torsions:
REMARK  status: ('A' for Active; 'I' for Inactive)
REMARK    1  A    between atoms: C_1  and  C_2
REMARK    2  A    between atoms: C_6  and  C_7
REMARK    3  A    between atoms: C_8  and  N_9
REMARK    4  A    between atoms: C_13  and  C_14
REMARK    5  A    between atoms: C_14  and  C_15
REMARK    6  A    between atoms: C_14  and  N_18
REMARK    7  A    between atoms: N_28  and  C_29
REMARK                            x       y       z     vdW  Elec       q    Type
REMARK                         _______ _______ _______ _____ _____    ______ ____
ROOT
ATOM      1  N   UNL     1       2.081   8.158  19.513  0.00  0.00    +0.000 NA
ATOM      2  C   UNL     1       2.311   6.958  20.338  0.00  0.00    +0.000 C 
ATOM      3  C   UNL     1       2.151   5.575  19.716  0.00  0.00    +0.000 C 
ATOM      4  C   UNL     1       2.633   5.443  18.266  0.00  0.00    +0.000 C 
ATOM      5  C   UNL     1       2.393   6.667  17.382  0.00  0.00    +0.000 C 
ATOM      6  C   UNL     1       2.490   8.032  18.089  0.00  0.00    +0.000 C 
ATOM      7  C   UNL     1       1.859   4.228  17.654  0.00  0.00    +0.000 C 
ATOM      8  O   UNL     1       0.704   4.157  17.243  0.00  0.00    +0.000 OA
ATOM      9  N   UNL     1       2.704   3.145  17.685  0.00  0.00    +0.000 N 
ATOM     10  C   UNL     1       3.983   3.450  18.241  0.00  0.00    +0.000 C 
ATOM     11  N   UNL     1       4.035   4.904  18.205  0.00  0.00    +0.000 N 
ATOM     12  H   UNL     1       2.391   2.233  17.398  0.00  0.00    +0.000 HD
ENDROOT
BRANCH  11  13
ATOM     13  C   UNL     1       5.216   5.601  18.284  0.00  0.00    +0.000 A 
ATOM     14  C   UNL     1       6.192   5.355  19.251  0.00  0.00    +0.000 A 
ATOM     15  C   UNL     1       7.432   6.035  19.265  0.00  0.00    +0.000 A 
ATOM     16  C   UNL     1       7.733   7.002  18.311  0.00  0.00    +0.000 A 
ATOM     17  C   UNL     1       6.786   7.282  17.349  0.00  0.00    +0.000 A 
ATOM     18  C   UNL     1       5.584   6.595  17.366  0.00  0.00    +0.000 A 
ENDBRANCH  11  13
BRANCH   1  19
ATOM     19  C   UNL     1       0.750   8.871  19.707  0.00  0.00    +0.000 C 
BRANCH  19  24
ATOM     20  N   UNL     1       0.296  10.768  21.586  0.00  0.00    +0.000 N 
ATOM     21  N   UNL     1       0.486  10.666  22.934  0.00  0.00    +0.000 NA
ATOM     22  N   UNL     1       1.042   9.523  23.208  0.00  0.00    +0.000 NA
ATOM     23  N   UNL     1       1.157   8.824  22.092  0.00  0.00    +0.000 NA
ATOM     24  C   UNL     1       0.698   9.522  21.067  0.00  0.00    +0.000 A 
BRANCH  20  32
ATOM     25  C   UNL     1      -2.583  12.041  22.327  0.00  0.00    +0.000 C 
ATOM     26  C   UNL     1      -1.525  12.543  21.387  0.00  0.00    +0.000 A 
ATOM     27  C   UNL     1      -1.886  13.816  20.864  0.00  0.00    +0.000 A 
ATOM     28  C   UNL     1      -1.003  14.624  20.171  0.00  0.00    +0.000 A 
ATOM     29  C   UNL     1       0.289  14.189  19.982  0.00  0.00    +0.000 A 
ATOM     30  C   UNL     1       0.707  12.931  20.451  0.00  0.00    +0.000 A 
ATOM     31  C   UNL     1       2.194  12.683  20.202  0.00  0.00    +0.000 C 
ATOM     32  C   UNL     1      -0.220  12.047  21.149  0.00  0.00    +0.000 A 
ENDBRANCH  20  32
ENDBRANCH  19  24
BRANCH  19  33
ATOM     33  C   UNL     1       0.542   9.775  18.493  0.00  0.00    +0.000 C 
ATOM     34  C   UNL     1      -0.502   9.430  17.442  0.00  0.00    +0.000 C 
ATOM     35  C   UNL     1      -0.620  10.702  18.225  0.00  0.00    +0.000 C 
ENDBRANCH  19  33
ENDBRANCH   1  19
TORSDOF 5
ENDMDL
MODEL 4
REMARK VINA RESULT:      -6.9      2.032      2.680
REMARK  Name = 
REMARK  7 active torsions:
REMARK  status: ('A' for Active; 'I' for Inactive)
REMARK    1  A    between atoms: C_1  and  C_2
REMARK    2  A    between atoms: C_6  and  C_7
REMARK    3  A    between atoms: C_8  and  N_9
REMARK    4  A    between atoms: C_13  and  C_14
REMARK    5  A    between atoms: C_14  and  C_15
REMARK    6  A    between atoms: C_14  and  N_18
REMARK    7  A    between atoms: N_28  and  C_29
REMARK                            x       y       z     vdW  Elec       q    Type
REMARK                         _______ _______ _______ _____ _____    ______ ____
ROOT
ATOM      1  N   UNL     1      -2.959  12.662  19.998  0.00  0.00    +0.000 NA
ATOM      2  C   UNL     1      -2.394  13.762  20.801  0.00  0.00    +0.000 C 
ATOM      3  C   UNL     1      -3.079  15.124  20.799  0.00  0.00    +0.000 C 
ATOM      4  C   UNL     1      -4.612  15.092  20.768  0.00  0.00    +0.000 C 
ATOM      5  C   UNL     1      -5.227  13.970  19.929  0.00  0.00    +0.000 C 
ATOM      6  C   UNL     1      -4.443  12.645  19.908  0.00  0.00    +0.000 C 
ATOM      7  C   UNL     1      -5.069  16.466  20.171  0.00  0.00    +0.000 C 
ATOM      8  O   UNL     1      -5.085  16.852  19.006  0.00  0.00    +0.000 OA
ATOM      9  N   UNL     1      -5.438  17.268  21.224  0.00  0.00    +0.000 N 
ATOM     10  C   UNL     1      -5.301  16.625  22.491  0.00  0.00    +0.000 C 
ATOM     11  N   UNL     1      -5.189  15.214  22.150  0.00  0.00    +0.000 N 
ATOM     12  H   UNL     1      -5.706  18.226  21.079  0.00  0.00    +0.000 HD
ENDROOT
BRANCH  11  13
ATOM     13  C   UNL     1      -5.423  14.214  23.063  0.00  0.00    +0.000 A 
ATOM     14  C   UNL     1      -6.691  13.695  23.327  0.00  0.00    +0.000 A 
ATOM     15  C   UNL     1      -6.895  12.613  24.215  0.00  0.00    +0.000 A 
ATOM     16  C   UNL     1      -5.829  12.019  24.884  0.00  0.00    +0.000 A 
ATOM     17  C   UNL     1      -4.564  12.517  24.658  0.00  0.00    +0.000 A 
ATOM     18  C   UNL     1      -4.402  13.576  23.780  0.00  0.00    +0.000 A 
ENDBRANCH  11  13
BRANCH   1  19
ATOM     19  C   UNL     1      -2.262  12.356  18.680  0.00  0.00    +0.000 C 
BRANCH  19  24
ATOM     20  N   UNL     1       0.298  11.827  19.393  0.00  0.00    +0.000 N 
ATOM     21  N   UNL     1       1.409  12.570  19.116  0.00  0.00    +0.000 NA
ATOM     22  N   UNL     1       1.056  13.675  18.530  0.00  0.00    +0.000 NA
ATOM     23  N   UNL     1      -0.252  13.658  18.335  0.00  0.00    +0.000 NA
ATOM     24  C   UNL     1      -0.771  12.544  18.820  0.00  0.00    +0.000 A 
BRANCH  20  32
ATOM     25  C   UNL     1      -0.651  11.200  22.420  0.00  0.00    +0.000 C 
ATOM     26  C   UNL     1       0.234  10.402  21.506  0.00  0.00    +0.000 A 
ATOM     27  C   UNL     1       0.581   9.160  22.109  0.00  0.00    +0.000 A 
ATOM     28  C   UNL     1       1.178   8.125  21.412  0.00  0.00    +0.000 A 
ATOM     29  C   UNL     1       1.444   8.291  20.072  0.00  0.00    +0.000 A 
ATOM     30  C   UNL     1       1.149   9.500  19.419  0.00  0.00    +0.000 A 
ATOM     31  C   UNL     1       1.454   9.441  17.923  0.00  0.00    +0.000 C 
ATOM     32  C   UNL     1       0.557  10.618  20.145  0.00  0.00    +0.000 A 
ENDBRANCH  20  32
ENDBRANCH  19  24
BRANCH  19  33
ATOM     33  C   UNL     1      -2.751  10.984  18.220  0.00  0.00    +0.000 C 
ATOM     34  C   UNL     1      -3.313  10.793  16.820  0.00  0.00    +0.000 C 
ATOM     35  C   UNL     1      -2.081  10.050  17.239  0.00  0.00    +0.000 C 
ENDBRANCH  19  33
ENDBRANCH   1  19
TORSDOF 5
ENDMDL
MODEL 5
REMARK VINA RESULT:      -6.9      2.683      4.704
REMARK  Name = 
REMARK  7 active torsions:
REMARK  status: ('A' for Active; 'I' for Inactive)
REMARK    1  A    between atoms: C_1  and  C_2
REMARK    2  A    between atoms: C_6  and  C_7
REMARK    3  A    between atoms: C_8  and  N_9
REMARK    4  A    between atoms: C_13  and  C_14
REMARK    5  A    between atoms: C_14  and  C_15
REMARK    6  A    between atoms: C_14  and  N_18
REMARK    7  A    between atoms: N_28  and  C_29
REMARK                            x       y       z     vdW  Elec       q    Type
REMARK                         _______ _______ _______ _____ _____    ______ ____
ROOT
ATOM      1  N   UNL     1      -2.272  13.275  21.761  0.00  0.00    +0.000 NA
ATOM      2  C   UNL     1      -3.467  13.882  21.147  0.00  0.00    +0.000 C 
ATOM      3  C   UNL     1      -4.810  13.789  21.862  0.00  0.00    +0.000 C 
ATOM      4  C   UNL     1      -4.755  13.916  23.390  0.00  0.00    +0.000 C 
ATOM      5  C   UNL     1      -3.534  13.281  24.057  0.00  0.00    +0.000 C 
ATOM      6  C   UNL     1      -2.225  13.337  23.246  0.00  0.00    +0.000 C 
ATOM      7  C   UNL     1      -6.042  13.212  23.937  0.00  0.00    +0.000 C 
ATOM      8  O   UNL     1      -6.287  12.017  24.076  0.00  0.00    +0.000 OA
ATOM      9  N   UNL     1      -6.960  14.195  24.219  0.00  0.00    +0.000 N 
ATOM     10  C   UNL     1      -6.474  15.508  23.942  0.00  0.00    +0.000 C 
ATOM     11  N   UNL     1      -5.034  15.326  23.830  0.00  0.00    +0.000 N 
ATOM     12  H   UNL     1      -7.890  13.966  24.524  0.00  0.00    +0.000 HD
ENDROOT
BRANCH  11  13
ATOM     13  C   UNL     1      -4.147  16.368  23.949  0.00  0.00    +0.000 A 
ATOM     14  C   UNL     1      -3.723  17.144  22.869  0.00  0.00    +0.000 A 
ATOM     15  C   UNL     1      -2.869  18.260  23.029  0.00  0.00    +0.000 A 
ATOM     16  C   UNL     1      -2.396  18.631  24.284  0.00  0.00    +0.000 A 
ATOM     17  C   UNL     1      -2.783  17.878  25.372  0.00  0.00    +0.000 A 
ATOM     18  C   UNL     1      -3.622  16.793  25.177  0.00  0.00    +0.000 A 
ENDBRANCH  11  13
BRANCH   1  19
ATOM     19  C   UNL     1      -1.819  11.938  21.190  0.00  0.00    +0.000 C 
BRANCH  19  24
ATOM     20  N   UNL     1      -0.833  12.622  18.761  0.00  0.00    +0.000 N 
ATOM     21  N   UNL     1      -1.311  12.254  17.536  0.00  0.00    +0.000 NA
ATOM     22  N   UNL     1      -2.418  11.589  17.685  0.00  0.00    +0.000 NA
ATOM     23  N   UNL     1      -2.654  11.432  18.976  0.00  0.00    +0.000 NA
ATOM     24  C   UNL     1      -1.709  12.021  19.688  0.00  0.00    +0.000 A 
BRANCH  20  32
ATOM     25  C   UNL     1      -0.688  15.768  19.491  0.00  0.00    +0.000 C 
ATOM     26  C   UNL     1       0.371  14.863  18.931  0.00  0.00    +0.000 A 
ATOM     27  C   UNL     1       1.612  15.551  18.828  0.00  0.00    +0.000 A 
ATOM     28  C   UNL     1       2.812  14.910  18.579  0.00  0.00    +0.000 A 
ATOM     29  C   UNL     1       2.816  13.541  18.432  0.00  0.00    +0.000 A 
ATOM     30  C   UNL     1       1.623  12.801  18.497  0.00  0.00    +0.000 A 
ATOM     31  C   UNL     1       1.867  11.297  18.384  0.00  0.00    +0.000 C 
ATOM     32  C   UNL     1       0.343  13.463  18.719  0.00  0.00    +0.000 A 
ENDBRANCH  20  32
ENDBRANCH  19  24
BRANCH  19  33
ATOM     33  C   UNL     1      -0.567  11.520  21.959  0.00  0.00    +0.000 C 
ATOM     34  C   UNL     1      -0.535  10.210  22.731  0.00  0.00    +0.000 C 
ATOM     35  C   UNL     1       0.416  10.433  21.595  0.00  0.00    +0.000 C 
ENDBRANCH  19  33
ENDBRANCH   1  19
TORSDOF 5
ENDMDL
MODEL 6
REMARK VINA RESULT:      -6.8      3.626      6.514
REMARK  Name = 
REMARK  7 active torsions:
REMARK  status: ('A' for Active; 'I' for Inactive)
REMARK    1  A    between atoms: C_1  and  C_2
REMARK    2  A    between atoms: C_6  and  C_7
REMARK    3  A    between atoms: C_8  and  N_9
REMARK    4  A    between atoms: C_13  and  C_14
REMARK    5  A    between atoms: C_14  and  C_15
REMARK    6  A    between atoms: C_14  and  N_18
REMARK    7  A    between atoms: N_28  and  C_29
REMARK                            x       y       z     vdW  Elec       q    Type
REMARK                         _______ _______ _______ _____ _____    ______ ____
ROOT
ATOM      1  N   UNL     1       0.944  13.297  19.875  0.00  0.00    +0.000 NA
ATOM      2  C   UNL     1       1.173  14.198  21.019  0.00  0.00    +0.000 C 
ATOM      3  C   UNL     1       2.472  14.991  21.103  0.00  0.00    +0.000 C 
ATOM      4  C   UNL     1       3.011  15.520  19.768  0.00  0.00    +0.000 C 
ATOM      5  C   UNL     1       2.802  14.598  18.566  0.00  0.00    +0.000 C 
ATOM      6  C   UNL     1       1.507  13.764  18.581  0.00  0.00    +0.000 C 
ATOM      7  C   UNL     1       4.550  15.734  19.968  0.00  0.00    +0.000 C 
ATOM      8  O   UNL     1       5.464  14.914  19.977  0.00  0.00    +0.000 OA
ATOM      9  N   UNL     1       4.751  17.073  20.201  0.00  0.00    +0.000 N 
ATOM     10  C   UNL     1       3.541  17.831  20.184  0.00  0.00    +0.000 C 
ATOM     11  N   UNL     1       2.589  16.943  19.534  0.00  0.00    +0.000 N 
ATOM     12  H   UNL     1       5.664  17.431  20.423  0.00  0.00    +0.000 HD
ENDROOT
BRANCH  11  13
ATOM     13  C   UNL     1       1.421  17.399  18.972  0.00  0.00    +0.000 A 
ATOM     14  C   UNL     1       1.330  17.870  17.661  0.00  0.00    +0.000 A 
ATOM     15  C   UNL     1       0.101  18.262  17.081  0.00  0.00    +0.000 A 
ATOM     16  C   UNL     1      -1.086  18.208  17.806  0.00  0.00    +0.000 A 
ATOM     17  C   UNL     1      -1.031  17.762  19.109  0.00  0.00    +0.000 A 
ATOM     18  C   UNL     1       0.190  17.385  19.642  0.00  0.00    +0.000 A 
ENDBRANCH  11  13
BRANCH   1  19
ATOM     19  C   UNL     1       1.148  11.810  20.130  0.00  0.00    +0.000 C 
BRANCH  19  24
ATOM     20  N   UNL     1      -0.816  11.764  21.997  0.00  0.00    +0.000 N 
ATOM     21  N   UNL     1      -0.937  10.910  23.055  0.00  0.00    +0.000 NA
ATOM     22  N   UNL     1       0.117  10.152  23.123  0.00  0.00    +0.000 NA
ATOM     23  N   UNL     1       0.904  10.418  22.095  0.00  0.00    +0.000 NA
ATOM     24  C   UNL     1       0.379  11.379  21.355  0.00  0.00    +0.000 A 
BRANCH  20  32
ATOM     25  C   UNL     1      -1.297  14.331  23.903  0.00  0.00    +0.000 C 
ATOM     26  C   UNL     1      -2.147  13.788  22.791  0.00  0.00    +0.000 A 
ATOM     27  C   UNL     1      -3.257  14.645  22.549  0.00  0.00    +0.000 A 
ATOM     28  C   UNL     1      -4.068  14.531  21.435  0.00  0.00    +0.000 A 
ATOM     29  C   UNL     1      -3.791  13.553  20.507  0.00  0.00    +0.000 A 
ATOM     30  C   UNL     1      -2.724  12.656  20.695  0.00  0.00    +0.000 A 
ATOM     31  C   UNL     1      -2.550  11.705  19.512  0.00  0.00    +0.000 C 
ATOM     32  C   UNL     1      -1.882  12.734  21.883  0.00  0.00    +0.000 A 
ENDBRANCH  20  32
ENDBRANCH  19  24
BRANCH  19  33
ATOM     33  C   UNL     1       0.841  11.082  18.823  0.00  0.00    +0.000 C 
ATOM     34  C   UNL     1       1.845  10.108  18.227  0.00  0.00    +0.000 C 
ATOM     35  C   UNL     1       0.490   9.624  18.643  0.00  0.00    +0.000 C 
ENDBRANCH  19  33
ENDBRANCH   1  19
TORSDOF 5
ENDMDL
MODEL 7
REMARK VINA RESULT:      -6.8      4.246      9.922
REMARK  Name = 
REMARK  7 active torsions:
REMARK  status: ('A' for Active; 'I' for Inactive)
REMARK    1  A    between atoms: C_1  and  C_2
REMARK    2  A    between atoms: C_6  and  C_7
REMARK    3  A    between atoms: C_8  and  N_9
REMARK    4  A    between atoms: C_13  and  C_14
REMARK    5  A    between atoms: C_14  and  C_15
REMARK    6  A    between atoms: C_14  and  N_18
REMARK    7  A    between atoms: N_28  and  C_29
REMARK                            x       y       z     vdW  Elec       q    Type
REMARK                         _______ _______ _______ _____ _____    ______ ____
ROOT
ATOM      1  N   UNL     1       2.073   8.177  19.446  0.00  0.00    +0.000 NA
ATOM      2  C   UNL     1       2.309   6.998  20.299  0.00  0.00    +0.000 C 
ATOM      3  C   UNL     1       2.157   5.600  19.710  0.00  0.00    +0.000 C 
ATOM      4  C   UNL     1       2.642   5.437  18.264  0.00  0.00    +0.000 C 
ATOM      5  C   UNL     1       2.396   6.639  17.351  0.00  0.00    +0.000 C 
ATOM      6  C   UNL     1       2.484   8.020  18.026  0.00  0.00    +0.000 C 
ATOM      7  C   UNL     1       1.875   4.203  17.679  0.00  0.00    +0.000 C 
ATOM      8  O   UNL     1       0.721   4.116  17.269  0.00  0.00    +0.000 OA
ATOM      9  N   UNL     1       2.727   3.126  17.736  0.00  0.00    +0.000 N 
ATOM     10  C   UNL     1       4.003   3.452  18.286  0.00  0.00    +0.000 C 
ATOM     11  N   UNL     1       4.047   4.905  18.216  0.00  0.00    +0.000 N 
ATOM     12  H   UNL     1       2.420   2.206  17.470  0.00  0.00    +0.000 HD
ENDROOT
BRANCH  11  13
ATOM     13  C   UNL     1       5.224   5.611  18.280  0.00  0.00    +0.000 A 
ATOM     14  C   UNL     1       6.213   5.373  19.236  0.00  0.00    +0.000 A 
ATOM     15  C   UNL     1       7.448   6.062  19.234  0.00  0.00    +0.000 A 
ATOM     16  C   UNL     1       7.731   7.030  18.275  0.00  0.00    +0.000 A 
ATOM     17  C   UNL     1       6.770   7.301  17.324  0.00  0.00    +0.000 A 
ATOM     18  C   UNL     1       5.573   6.605  17.357  0.00  0.00    +0.000 A 
ENDBRANCH  11  13
BRANCH   1  19
ATOM     19  C   UNL     1       0.737   8.886  19.622  0.00  0.00    +0.000 C 
BRANCH  19  24
ATOM     20  N   UNL     1       0.448  10.916  21.393  0.00  0.00    +0.000 N 
ATOM     21  N   UNL     1       0.536  10.851  22.754  0.00  0.00    +0.000 NA
ATOM     22  N   UNL     1       0.899   9.654  23.108  0.00  0.00    +0.000 NA
ATOM     23  N   UNL     1       0.981   8.894  22.029  0.00  0.00    +0.000 NA
ATOM     24  C   UNL     1       0.695   9.601  20.950  0.00  0.00    +0.000 A 
BRANCH  20  32
ATOM     25  C   UNL     1       2.312  12.664  19.411  0.00  0.00    +0.000 C 
ATOM     26  C   UNL     1       1.029  13.034  20.098  0.00  0.00    +0.000 A 
ATOM     27  C   UNL     1       0.597  14.325  19.683  0.00  0.00    +0.000 A 
ATOM     28  C   UNL     1      -0.663  14.823  19.959  0.00  0.00    +0.000 A 
ATOM     29  C   UNL     1      -1.551  14.036  20.657  0.00  0.00    +0.000 A 
ATOM     30  C   UNL     1      -1.183  12.760  21.117  0.00  0.00    +0.000 A 
ATOM     31  C   UNL     1      -2.340  12.032  21.799  0.00  0.00    +0.000 C 
ATOM     32  C   UNL     1       0.156  12.234  20.872  0.00  0.00    +0.000 A 
ENDBRANCH  20  32
ENDBRANCH  19  24
BRANCH  19  33
ATOM     33  C   UNL     1       0.506   9.728  18.369  0.00  0.00    +0.000 C 
ATOM     34  C   UNL     1      -0.592   9.361  17.382  0.00  0.00    +0.000 C 
ATOM     35  C   UNL     1      -0.637  10.678  18.096  0.00  0.00    +0.000 C 
ENDBRANCH  19  33
ENDBRANCH   1  19
TORSDOF 5
ENDMDL
MODEL 8
REMARK VINA RESULT:      -6.8      2.584      4.819
REMARK  Name = 
REMARK  7 active torsions:
REMARK  status: ('A' for Active; 'I' for Inactive)
REMARK    1  A    between atoms: C_1  and  C_2
REMARK    2  A    between atoms: C_6  and  C_7
REMARK    3  A    between atoms: C_8  and  N_9
REMARK    4  A    between atoms: C_13  and  C_14
REMARK    5  A    between atoms: C_14  and  C_15
REMARK    6  A    between atoms: C_14  and  N_18
REMARK    7  A    between atoms: N_28  and  C_29
REMARK                            x       y       z     vdW  Elec       q    Type
REMARK                         _______ _______ _______ _____ _____    ______ ____
ROOT
ATOM      1  N   UNL     1      -2.733  14.090  21.700  0.00  0.00    +0.000 NA
ATOM      2  C   UNL     1      -3.299  12.844  22.246  0.00  0.00    +0.000 C 
ATOM      3  C   UNL     1      -4.714  12.846  22.817  0.00  0.00    +0.000 C 
ATOM      4  C   UNL     1      -5.726  13.721  22.067  0.00  0.00    +0.000 C 
ATOM      5  C   UNL     1      -5.171  15.029  21.503  0.00  0.00    +0.000 C 
ATOM      6  C   UNL     1      -3.710  14.980  21.018  0.00  0.00    +0.000 C 
ATOM      7  C   UNL     1      -6.857  14.064  23.095  0.00  0.00    +0.000 C 
ATOM      8  O   UNL     1      -6.869  14.886  24.007  0.00  0.00    +0.000 OA
ATOM      9  N   UNL     1      -7.908  13.213  22.847  0.00  0.00    +0.000 N 
ATOM     10  C   UNL     1      -7.657  12.315  21.766  0.00  0.00    +0.000 C 
ATOM     11  N   UNL     1      -6.521  12.912  21.080  0.00  0.00    +0.000 N 
ATOM     12  H   UNL     1      -8.724  13.211  23.434  0.00  0.00    +0.000 HD
ENDROOT
BRANCH  11  13
ATOM     13  C   UNL     1      -6.193  12.595  19.784  0.00  0.00    +0.000 A 
ATOM     14  C   UNL     1      -6.984  12.933  18.685  0.00  0.00    +0.000 A 
ATOM     15  C   UNL     1      -6.587  12.664  17.355  0.00  0.00    +0.000 A 
ATOM     16  C   UNL     1      -5.379  12.029  17.080  0.00  0.00    +0.000 A 
ATOM     17  C   UNL     1      -4.579  11.667  18.142  0.00  0.00    +0.000 A 
ATOM     18  C   UNL     1      -5.001  11.949  19.431  0.00  0.00    +0.000 A 
ENDBRANCH  11  13
BRANCH   1  19
ATOM     19  C   UNL     1      -1.744  14.833  22.587  0.00  0.00    +0.000 C 
BRANCH  19  24
ATOM     20  N   UNL     1       0.291  13.445  21.458  0.00  0.00    +0.000 N 
ATOM     21  N   UNL     1       1.626  13.720  21.532  0.00  0.00    +0.000 NA
ATOM     22  N   UNL     1       1.820  14.718  22.341  0.00  0.00    +0.000 NA
ATOM     23  N   UNL     1       0.647  15.172  22.750  0.00  0.00    +0.000 NA
ATOM     24  C   UNL     1      -0.329  14.450  22.227  0.00  0.00    +0.000 A 
BRANCH  20  32
ATOM     25  C   UNL     1      -0.308  10.469  22.571  0.00  0.00    +0.000 C 
ATOM     26  C   UNL     1      -0.188  10.959  21.157  0.00  0.00    +0.000 A 
ATOM     27  C   UNL     1      -0.490   9.914  20.240  0.00  0.00    +0.000 A 
ATOM     28  C   UNL     1      -0.698  10.132  18.890  0.00  0.00    +0.000 A 
ATOM     29  C   UNL     1      -0.621  11.417  18.404  0.00  0.00    +0.000 A 
ATOM     30  C   UNL     1      -0.302  12.494  19.249  0.00  0.00    +0.000 A 
ATOM     31  C   UNL     1      -0.345  13.836  18.520  0.00  0.00    +0.000 C 
ATOM     32  C   UNL     1      -0.039  12.280  20.668  0.00  0.00    +0.000 A 
ENDBRANCH  20  32
ENDBRANCH  19  24
BRANCH  19  33
ATOM     33  C   UNL     1      -2.103  16.316  22.519  0.00  0.00    +0.000 C 
ATOM     34  C   UNL     1      -2.710  17.021  23.722  0.00  0.00    +0.000 C 
ATOM     35  C   UNL     1      -1.386  17.468  23.183  0.00  0.00    +0.000 C 
ENDBRANCH  19  33
ENDBRANCH   1  19
TORSDOF 5
ENDMDL
MODEL 9
REMARK VINA RESULT:      -6.8      2.890      5.284
REMARK  Name = 
REMARK  7 active torsions:
REMARK  status: ('A' for Active; 'I' for Inactive)
REMARK    1  A    between atoms: C_1  and  C_2
REMARK    2  A    between atoms: C_6  and  C_7
REMARK    3  A    between atoms: C_8  and  N_9
REMARK    4  A    between atoms: C_13  and  C_14
REMARK    5  A    between atoms: C_14  and  C_15
REMARK    6  A    between atoms: C_14  and  N_18
REMARK    7  A    between atoms: N_28  and  C_29
REMARK                            x       y       z     vdW  Elec       q    Type
REMARK                         _______ _______ _______ _____ _____    ______ ____
ROOT
ATOM      1  N   UNL     1      -3.247  12.662  22.476  0.00  0.00    +0.000 NA
ATOM      2  C   UNL     1      -4.498  12.705  23.256  0.00  0.00    +0.000 C 
ATOM      3  C   UNL     1      -5.431  13.904  23.116  0.00  0.00    +0.000 C 
ATOM      4  C   UNL     1      -5.551  14.485  21.702  0.00  0.00    +0.000 C 
ATOM      5  C   UNL     1      -4.265  14.468  20.875  0.00  0.00    +0.000 C 
ATOM      6  C   UNL     1      -3.327  13.272  21.122  0.00  0.00    +0.000 C 
ATOM      7  C   UNL     1      -6.010  15.972  21.875  0.00  0.00    +0.000 C 
ATOM      8  O   UNL     1      -5.361  16.965  22.194  0.00  0.00    +0.000 OA
ATOM      9  N   UNL     1      -7.365  16.012  21.649  0.00  0.00    +0.000 N 
ATOM     10  C   UNL     1      -7.916  14.734  21.332  0.00  0.00    +0.000 C 
ATOM     11  N   UNL     1      -6.752  13.934  20.985  0.00  0.00    +0.000 N 
ATOM     12  H   UNL     1      -7.888  16.863  21.771  0.00  0.00    +0.000 HD
ENDROOT
BRANCH  11  13
ATOM     13  C   UNL     1      -6.845  12.772  20.259  0.00  0.00    +0.000 A 
ATOM     14  C   UNL     1      -6.568  12.693  18.893  0.00  0.00    +0.000 A 
ATOM     15  C   UNL     1      -6.598  11.469  18.184  0.00  0.00    +0.000 A 
ATOM     16  C   UNL     1      -6.922  10.276  18.822  0.00  0.00    +0.000 A 
ATOM     17  C   UNL     1      -7.216  10.319  20.168  0.00  0.00    +0.000 A 
ATOM     18  C   UNL     1      -7.176  11.535  20.829  0.00  0.00    +0.000 A 
ENDBRANCH  11  13
BRANCH   1  19
ATOM     19  C   UNL     1      -1.967  13.002  23.226  0.00  0.00    +0.000 C 
BRANCH  19  24
ATOM     20  N   UNL     1       0.130  12.862  21.516  0.00  0.00    +0.000 N 
ATOM     21  N   UNL     1       1.009  11.829  21.361  0.00  0.00    +0.000 NA
ATOM     22  N   UNL     1       0.633  10.826  22.097  0.00  0.00    +0.000 NA
ATOM     23  N   UNL     1      -0.428  11.184  22.800  0.00  0.00    +0.000 NA
ATOM     24  C   UNL     1      -0.771  12.426  22.507  0.00  0.00    +0.000 A 
BRANCH  20  32
ATOM     25  C   UNL     1       2.124  15.330  22.138  0.00  0.00    +0.000 C 
ATOM     26  C   UNL     1       1.173  15.129  20.994  0.00  0.00    +0.000 A 
ATOM     27  C   UNL     1       1.306  16.182  20.046  0.00  0.00    +0.000 A 
ATOM     28  C   UNL     1       0.740  16.136  18.784  0.00  0.00    +0.000 A 
ATOM     29  C   UNL     1       0.022  15.020  18.417  0.00  0.00    +0.000 A 
ATOM     30  C   UNL     1      -0.168  13.954  19.312  0.00  0.00    +0.000 A 
ATOM     31  C   UNL     1      -0.927  12.790  18.676  0.00  0.00    +0.000 C 
ATOM     32  C   UNL     1       0.386  14.001  20.661  0.00  0.00    +0.000 A 
ENDBRANCH  20  32
ENDBRANCH  19  24
BRANCH  19  33
ATOM     33  C   UNL     1      -1.974  14.510  23.469  0.00  0.00    +0.000 C 
ATOM     34  C   UNL     1      -2.201  15.066  24.866  0.00  0.00    +0.000 C 
ATOM     35  C   UNL     1      -0.911  15.336  24.154  0.00  0.00    +0.000 C 
ENDBRANCH  19  33
ENDBRANCH   1  19
TORSDOF 5
ENDMDL
