MODEL 1
REMARK VINA RESULT:      -8.2      0.000      0.000
REMARK  Name = 
REMARK  2 active torsions:
REMARK  status: ('A' for Active; 'I' for Inactive)
REMARK    1  A    between atoms: N_11  and  C_12
REMARK    2  A    between atoms: C_12  and  C_13
REMARK                            x       y       z     vdW  Elec       q    Type
REMARK                         _______ _______ _______ _____ _____    ______ ____
ROOT
ATOM      1  C   UNL     1      -1.140  10.848  23.106  0.00  0.00    +0.000 A 
ATOM      2  C   UNL     1      -0.365   9.728  23.402  0.00  0.00    +0.000 A 
ATOM      3  C   UNL     1       0.395   9.088  22.411  0.00  0.00    +0.000 A 
ATOM      4  C   UNL     1       0.342   9.637  21.121  0.00  0.00    +0.000 A 
ATOM      5  C   UNL     1      -0.424  10.753  20.805  0.00  0.00    +0.000 A 
ATOM      6  C   UNL     1      -1.183  11.370  21.806  0.00  0.00    +0.000 A 
ATOM      7  N   UNL     1      -0.277  11.098  19.480  0.00  0.00    +0.000 NA
ATOM      8  C   UNL     1       0.569  10.224  18.993  0.00  0.00    +0.000 A 
ATOM      9  N   UNL     1       0.951   9.309  19.937  0.00  0.00    +0.000 N 
ATOM     10  C   UNL     1       1.960   8.281  19.728  0.00  0.00    +0.000 C 
ATOM     11  N   UNL     1       2.110   7.978  18.296  0.00  0.00    +0.000 NA
ATOM     12  C   UNL     1       2.143   9.210  17.517  0.00  0.00    +0.000 C 
ATOM     13  N   UNL     1       1.076  10.143  17.756  0.00  0.00    +0.000 N 
ATOM     14  H   UNL     1       0.820  10.817  17.046  0.00  0.00    +0.000 HD
ENDROOT
BRANCH  11  15
ATOM     15  C   UNL     1       3.287   7.142  18.040  0.00  0.00    +0.000 C 
BRANCH  15  16
ATOM     16  C   UNL     1       3.011   5.698  18.403  0.00  0.00    +0.000 A 
ATOM     17  C   UNL     1       1.872   5.023  17.902  0.00  0.00    +0.000 A 
ATOM     18  C   UNL     1       1.724   3.643  18.081  0.00  0.00    +0.000 A 
ATOM     19  C   UNL     1       2.736   2.975  18.734  0.00  0.00    +0.000 A 
ATOM     20  C   UNL     1       3.820   3.635  19.266  0.00  0.00    +0.000 A 
ATOM     21  C   UNL     1       3.975   4.994  19.144  0.00  0.00    +0.000 A 
ATOM     22  O   UNL     1       4.727   2.782  19.816  0.00  0.00    +0.000 OA
ATOM     23  C   UNL     1       4.233   1.540  19.283  0.00  0.00    +0.000 C 
ATOM     24  O   UNL     1       2.849   1.624  18.873  0.00  0.00    +0.000 OA
ENDBRANCH  15  16
ENDBRANCH  11  15
TORSDOF 2
ENDMDL
MODEL 2
REMARK VINA RESULT:      -8.2      3.319      4.777
REMARK  Name = 
REMARK  2 active torsions:
REMARK  status: ('A' for Active; 'I' for Inactive)
REMARK    1  A    between atoms: N_11  and  C_12
REMARK    2  A    between atoms: C_12  and  C_13
REMARK                            x       y       z     vdW  Elec       q    Type
REMARK                         _______ _______ _______ _____ _____    ______ ____
ROOT
ATOM      1  C   UNL     1       0.814  10.521  19.029  0.00  0.00    +0.000 A 
ATOM      2  C   UNL     1       1.637  10.114  17.980  0.00  0.00    +0.000 A 
ATOM      3  C   UNL     1       2.283   8.869  18.004  0.00  0.00    +0.000 A 
ATOM      4  C   UNL     1       2.051   8.058  19.126  0.00  0.00    +0.000 A 
ATOM      5  C   UNL     1       1.235   8.446  20.183  0.00  0.00    +0.000 A 
ATOM      6  C   UNL     1       0.608   9.696  20.143  0.00  0.00    +0.000 A 
ATOM      7  N   UNL     1       1.159   7.458  21.140  0.00  0.00    +0.000 NA
ATOM      8  C   UNL     1       1.899   6.480  20.679  0.00  0.00    +0.000 A 
ATOM      9  N   UNL     1       2.477   6.804  19.481  0.00  0.00    +0.000 N 
ATOM     10  C   UNL     1       3.267   5.888  18.671  0.00  0.00    +0.000 C 
ATOM     11  N   UNL     1       3.828   4.809  19.499  0.00  0.00    +0.000 NA
ATOM     12  C   UNL     1       2.818   4.296  20.418  0.00  0.00    +0.000 C 
ATOM     13  N   UNL     1       2.126   5.273  21.213  0.00  0.00    +0.000 N 
ATOM     14  H   UNL     1       1.698   5.006  22.089  0.00  0.00    +0.000 HD
ENDROOT
BRANCH  11  15
ATOM     15  C   UNL     1       4.406   3.741  18.677  0.00  0.00    +0.000 C 
BRANCH  15  16
ATOM     16  C   UNL     1       5.231   4.319  17.547  0.00  0.00    +0.000 A 
ATOM     17  C   UNL     1       6.478   4.942  17.795  0.00  0.00    +0.000 A 
ATOM     18  C   UNL     1       7.321   5.299  16.737  0.00  0.00    +0.000 A 
ATOM     19  C   UNL     1       6.902   4.997  15.461  0.00  0.00    +0.000 A 
ATOM     20  C   UNL     1       5.669   4.438  15.212  0.00  0.00    +0.000 A 
ATOM     21  C   UNL     1       4.801   4.114  16.225  0.00  0.00    +0.000 A 
ATOM     22  O   UNL     1       5.479   4.170  13.891  0.00  0.00    +0.000 OA
ATOM     23  C   UNL     1       6.831   4.330  13.424  0.00  0.00    +0.000 C 
ATOM     24  O   UNL     1       7.637   5.126  14.321  0.00  0.00    +0.000 OA
ENDBRANCH  15  16
ENDBRANCH  11  15
TORSDOF 2
ENDMDL
MODEL 3
REMARK VINA RESULT:      -8.0      0.817      1.589
REMARK  Name = 
REMARK  2 active torsions:
REMARK  status: ('A' for Active; 'I' for Inactive)
REMARK    1  A    between atoms: N_11  and  C_12
REMARK    2  A    between atoms: C_12  and  C_13
REMARK                            x       y       z     vdW  Elec       q    Type
REMARK                         _______ _______ _______ _____ _____    ______ ____
ROOT
ATOM      1  C   UNL     1      -1.080  10.715  23.163  0.00  0.00    +0.000 A 
ATOM      2  C   UNL     1      -0.224   9.653  23.449  0.00  0.00    +0.000 A 
ATOM      3  C   UNL     1       0.543   9.047  22.443  0.00  0.00    +0.000 A 
ATOM      4  C   UNL     1       0.411   9.567  21.147  0.00  0.00    +0.000 A 
ATOM      5  C   UNL     1      -0.437  10.625  20.840  0.00  0.00    +0.000 A 
ATOM      6  C   UNL     1      -1.201  11.209  21.857  0.00  0.00    +0.000 A 
ATOM      7  N   UNL     1      -0.358  10.955  19.505  0.00  0.00    +0.000 NA
ATOM      8  C   UNL     1       0.528  10.129  19.003  0.00  0.00    +0.000 A 
ATOM      9  N   UNL     1       1.000   9.259  19.948  0.00  0.00    +0.000 N 
ATOM     10  C   UNL     1       2.067   8.295  19.721  0.00  0.00    +0.000 C 
ATOM     11  N   UNL     1       2.189   7.977  18.290  0.00  0.00    +0.000 NA
ATOM     12  C   UNL     1       2.115   9.194  17.490  0.00  0.00    +0.000 C 
ATOM     13  N   UNL     1       0.997  10.059  17.751  0.00  0.00    +0.000 N 
ATOM     14  H   UNL     1       0.673  10.702  17.040  0.00  0.00    +0.000 HD
ENDROOT
BRANCH  11  15
ATOM     15  C   UNL     1       3.410   7.215  18.007  0.00  0.00    +0.000 C 
BRANCH  15  16
ATOM     16  C   UNL     1       3.215   5.748  18.325  0.00  0.00    +0.000 A 
ATOM     17  C   UNL     1       4.063   5.079  19.239  0.00  0.00    +0.000 A 
ATOM     18  C   UNL     1       3.763   3.783  19.675  0.00  0.00    +0.000 A 
ATOM     19  C   UNL     1       2.606   3.207  19.203  0.00  0.00    +0.000 A 
ATOM     20  C   UNL     1       1.805   3.834  18.275  0.00  0.00    +0.000 A 
ATOM     21  C   UNL     1       2.093   5.088  17.796  0.00  0.00    +0.000 A 
ATOM     22  O   UNL     1       0.685   3.116  17.989  0.00  0.00    +0.000 OA
ATOM     23  C   UNL     1       0.740   2.158  19.062  0.00  0.00    +0.000 C 
ATOM     24  O   UNL     1       2.067   2.026  19.619  0.00  0.00    +0.000 OA
ENDBRANCH  15  16
ENDBRANCH  11  15
TORSDOF 2
ENDMDL
MODEL 4
REMARK VINA RESULT:      -7.8      4.045      7.983
REMARK  Name = 
REMARK  2 active torsions:
REMARK  status: ('A' for Active; 'I' for Inactive)
REMARK    1  A    between atoms: N_11  and  C_12
REMARK    2  A    between atoms: C_12  and  C_13
REMARK                            x       y       z     vdW  Elec       q    Type
REMARK                         _______ _______ _______ _____ _____    ______ ____
ROOT
ATOM      1  C   UNL     1       5.917   4.287  16.389  0.00  0.00    +0.000 A 
ATOM      2  C   UNL     1       5.729   5.477  15.687  0.00  0.00    +0.000 A 
ATOM      3  C   UNL     1       4.855   6.467  16.158  0.00  0.00    +0.000 A 
ATOM      4  C   UNL     1       4.192   6.203  17.367  0.00  0.00    +0.000 A 
ATOM      5  C   UNL     1       4.365   5.023  18.081  0.00  0.00    +0.000 A 
ATOM      6  C   UNL     1       5.235   4.044  17.588  0.00  0.00    +0.000 A 
ATOM      7  N   UNL     1       3.620   5.029  19.240  0.00  0.00    +0.000 NA
ATOM      8  C   UNL     1       3.013   6.191  19.247  0.00  0.00    +0.000 A 
ATOM      9  N   UNL     1       3.307   6.923  18.128  0.00  0.00    +0.000 N 
ATOM     10  C   UNL     1       2.870   8.292  17.899  0.00  0.00    +0.000 C 
ATOM     11  N   UNL     1       1.669   8.596  18.692  0.00  0.00    +0.000 NA
ATOM     12  C   UNL     1       1.814   8.088  20.051  0.00  0.00    +0.000 C 
ATOM     13  N   UNL     1       2.200   6.709  20.176  0.00  0.00    +0.000 N 
ATOM     14  H   UNL     1       1.981   6.193  21.018  0.00  0.00    +0.000 HD
ENDROOT
BRANCH  11  15
ATOM     15  C   UNL     1       1.361  10.031  18.679  0.00  0.00    +0.000 C 
BRANCH  15  16
ATOM     16  C   UNL     1      -0.127  10.261  18.524  0.00  0.00    +0.000 A 
ATOM     17  C   UNL     1      -0.819  11.165  19.365  0.00  0.00    +0.000 A 
ATOM     18  C   UNL     1      -2.146  11.519  19.095  0.00  0.00    +0.000 A 
ATOM     19  C   UNL     1      -2.732  10.976  17.974  0.00  0.00    +0.000 A 
ATOM     20  C   UNL     1      -2.080  10.058  17.182  0.00  0.00    +0.000 A 
ATOM     21  C   UNL     1      -0.792   9.659  17.443  0.00  0.00    +0.000 A 
ATOM     22  O   UNL     1      -2.816   9.695  16.097  0.00  0.00    +0.000 OA
ATOM     23  C   UNL     1      -3.831  10.714  16.150  0.00  0.00    +0.000 C 
ATOM     24  O   UNL     1      -3.951  11.308  17.463  0.00  0.00    +0.000 OA
ENDBRANCH  15  16
ENDBRANCH  11  15
TORSDOF 2
ENDMDL
MODEL 5
REMARK VINA RESULT:      -7.6      4.483      7.922
REMARK  Name = 
REMARK  2 active torsions:
REMARK  status: ('A' for Active; 'I' for Inactive)
REMARK    1  A    between atoms: N_11  and  C_12
REMARK    2  A    between atoms: C_12  and  C_13
REMARK                            x       y       z     vdW  Elec       q    Type
REMARK                         _______ _______ _______ _____ _____    ______ ____
ROOT
ATOM      1  C   UNL     1       6.629   3.289  11.816  0.00  0.00    +0.000 A 
ATOM      2  C   UNL     1       5.285   3.233  12.182  0.00  0.00    +0.000 A 
ATOM      3  C   UNL     1       4.824   3.854  13.352  0.00  0.00    +0.000 A 
ATOM      4  C   UNL     1       5.777   4.537  14.123  0.00  0.00    +0.000 A 
ATOM      5  C   UNL     1       7.122   4.604  13.777  0.00  0.00    +0.000 A 
ATOM      6  C   UNL     1       7.562   3.969  12.610  0.00  0.00    +0.000 A 
ATOM      7  N   UNL     1       7.833   5.354  14.687  0.00  0.00    +0.000 NA
ATOM      8  C   UNL     1       6.946   5.750  15.568  0.00  0.00    +0.000 A 
ATOM      9  N   UNL     1       5.699   5.263  15.284  0.00  0.00    +0.000 N 
ATOM     10  C   UNL     1       4.490   5.613  16.016  0.00  0.00    +0.000 C 
ATOM     11  N   UNL     1       4.817   6.075  17.374  0.00  0.00    +0.000 NA
ATOM     12  C   UNL     1       5.949   6.993  17.340  0.00  0.00    +0.000 C 
ATOM     13  N   UNL     1       7.117   6.538  16.637  0.00  0.00    +0.000 N 
ATOM     14  H   UNL     1       8.026   6.922  16.857  0.00  0.00    +0.000 HD
ENDROOT
BRANCH  11  15
ATOM     15  C   UNL     1       3.653   6.672  18.037  0.00  0.00    +0.000 C 
BRANCH  15  16
ATOM     16  C   UNL     1       2.768   5.601  18.639  0.00  0.00    +0.000 A 
ATOM     17  C   UNL     1       2.035   4.711  17.818  0.00  0.00    +0.000 A 
ATOM     18  C   UNL     1       1.376   3.608  18.371  0.00  0.00    +0.000 A 
ATOM     19  C   UNL     1       1.494   3.413  19.729  0.00  0.00    +0.000 A 
ATOM     20  C   UNL     1       2.164   4.302  20.537  0.00  0.00    +0.000 A 
ATOM     21  C   UNL     1       2.786   5.417  20.031  0.00  0.00    +0.000 A 
ATOM     22  O   UNL     1       2.210   3.890  21.834  0.00  0.00    +0.000 OA
ATOM     23  C   UNL     1       1.780   2.528  21.662  0.00  0.00    +0.000 C 
ATOM     24  O   UNL     1       1.057   2.326  20.426  0.00  0.00    +0.000 OA
ENDBRANCH  15  16
ENDBRANCH  11  15
TORSDOF 2
ENDMDL
MODEL 6
REMARK VINA RESULT:      -7.6      4.045      7.833
REMARK  Name = 
REMARK  2 active torsions:
REMARK  status: ('A' for Active; 'I' for Inactive)
REMARK    1  A    between atoms: N_11  and  C_12
REMARK    2  A    between atoms: C_12  and  C_13
REMARK                            x       y       z     vdW  Elec       q    Type
REMARK                         _______ _______ _______ _____ _____    ______ ____
ROOT
ATOM      1  C   UNL     1       5.007   3.800  17.784  0.00  0.00    +0.000 A 
ATOM      2  C   UNL     1       4.924   4.872  16.896  0.00  0.00    +0.000 A 
ATOM      3  C   UNL     1       4.140   5.997  17.188  0.00  0.00    +0.000 A 
ATOM      4  C   UNL     1       3.457   5.993  18.413  0.00  0.00    +0.000 A 
ATOM      5  C   UNL     1       3.525   4.934  19.312  0.00  0.00    +0.000 A 
ATOM      6  C   UNL     1       4.305   3.816  18.998  0.00  0.00    +0.000 A 
ATOM      7  N   UNL     1       2.784   5.194  20.444  0.00  0.00    +0.000 NA
ATOM      8  C   UNL     1       2.281   6.390  20.253  0.00  0.00    +0.000 A 
ATOM      9  N   UNL     1       2.638   6.900  19.034  0.00  0.00    +0.000 N 
ATOM     10  C   UNL     1       2.322   8.247  18.580  0.00  0.00    +0.000 C 
ATOM     11  N   UNL     1       1.153   8.779  19.296  0.00  0.00    +0.000 NA
ATOM     12  C   UNL     1       1.253   8.489  20.721  0.00  0.00    +0.000 C 
ATOM     13  N   UNL     1       1.517   7.121  21.074  0.00  0.00    +0.000 N 
ATOM     14  H   UNL     1       1.253   6.770  21.986  0.00  0.00    +0.000 HD
ENDROOT
BRANCH  11  15
ATOM     15  C   UNL     1       0.972  10.214  19.045  0.00  0.00    +0.000 C 
BRANCH  15  16
ATOM     16  C   UNL     1      -0.451  10.512  18.624  0.00  0.00    +0.000 A 
ATOM     17  C   UNL     1      -1.185  11.564  19.221  0.00  0.00    +0.000 A 
ATOM     18  C   UNL     1      -2.422  11.958  18.698  0.00  0.00    +0.000 A 
ATOM     19  C   UNL     1      -2.874  11.303  17.575  0.00  0.00    +0.000 A 
ATOM     20  C   UNL     1      -2.188  10.246  17.022  0.00  0.00    +0.000 A 
ATOM     21  C   UNL     1      -0.992   9.808  17.535  0.00  0.00    +0.000 A 
ATOM     22  O   UNL     1      -2.778   9.783  15.886  0.00  0.00    +0.000 OA
ATOM     23  C   UNL     1      -3.702  10.860  15.646  0.00  0.00    +0.000 C 
ATOM     24  O   UNL     1      -3.970  11.636  16.836  0.00  0.00    +0.000 OA
ENDBRANCH  15  16
ENDBRANCH  11  15
TORSDOF 2
ENDMDL
MODEL 7
REMARK VINA RESULT:      -7.5      4.756      8.504
REMARK  Name = 
REMARK  2 active torsions:
REMARK  status: ('A' for Active; 'I' for Inactive)
REMARK    1  A    between atoms: N_11  and  C_12
REMARK    2  A    between atoms: C_12  and  C_13
REMARK                            x       y       z     vdW  Elec       q    Type
REMARK                         _______ _______ _______ _____ _____    ______ ____
ROOT
ATOM      1  C   UNL     1       6.999   3.942  11.869  0.00  0.00    +0.000 A 
ATOM      2  C   UNL     1       5.773   3.360  12.185  0.00  0.00    +0.000 A 
ATOM      3  C   UNL     1       5.200   3.517  13.456  0.00  0.00    +0.000 A 
ATOM      4  C   UNL     1       5.915   4.293  14.380  0.00  0.00    +0.000 A 
ATOM      5  C   UNL     1       7.140   4.882  14.085  0.00  0.00    +0.000 A 
ATOM      6  C   UNL     1       7.699   4.704  12.815  0.00  0.00    +0.000 A 
ATOM      7  N   UNL     1       7.614   5.608  15.156  0.00  0.00    +0.000 NA
ATOM      8  C   UNL     1       6.698   5.481  16.085  0.00  0.00    +0.000 A 
ATOM      9  N   UNL     1       5.668   4.678  15.673  0.00  0.00    +0.000 N 
ATOM     10  C   UNL     1       4.456   4.433  16.441  0.00  0.00    +0.000 C 
ATOM     11  N   UNL     1       4.688   4.668  17.874  0.00  0.00    +0.000 NA
ATOM     12  C   UNL     1       5.448   5.897  18.071  0.00  0.00    +0.000 C 
ATOM     13  N   UNL     1       6.658   6.026  17.307  0.00  0.00    +0.000 N 
ATOM     14  H   UNL     1       7.401   6.634  17.627  0.00  0.00    +0.000 HD
ENDROOT
BRANCH  11  15
ATOM     15  C   UNL     1       3.432   4.679  18.631  0.00  0.00    +0.000 C 
BRANCH  15  16
ATOM     16  C   UNL     1       2.948   6.097  18.851  0.00  0.00    +0.000 A 
ATOM     17  C   UNL     1       2.802   6.996  17.768  0.00  0.00    +0.000 A 
ATOM     18  C   UNL     1       2.175   8.235  17.947  0.00  0.00    +0.000 A 
ATOM     19  C   UNL     1       1.689   8.524  19.202  0.00  0.00    +0.000 A 
ATOM     20  C   UNL     1       1.874   7.675  20.269  0.00  0.00    +0.000 A 
ATOM     21  C   UNL     1       2.520   6.471  20.136  0.00  0.00    +0.000 A 
ATOM     22  O   UNL     1       1.265   8.125  21.401  0.00  0.00    +0.000 OA
ATOM     23  C   UNL     1       0.442   9.158  20.829  0.00  0.00    +0.000 C 
ATOM     24  O   UNL     1       0.924   9.600  19.540  0.00  0.00    +0.000 OA
ENDBRANCH  15  16
ENDBRANCH  11  15
TORSDOF 2
ENDMDL
MODEL 8
REMARK VINA RESULT:      -7.5      4.703      8.433
REMARK  Name = 
REMARK  2 active torsions:
REMARK  status: ('A' for Active; 'I' for Inactive)
REMARK    1  A    between atoms: N_11  and  C_12
REMARK    2  A    between atoms: C_12  and  C_13
REMARK                            x       y       z     vdW  Elec       q    Type
REMARK                         _______ _______ _______ _____ _____    ______ ____
ROOT
ATOM      1  C   UNL     1       7.205   4.311  12.020  0.00  0.00    +0.000 A 
ATOM      2  C   UNL     1       6.048   3.571  12.258  0.00  0.00    +0.000 A 
ATOM      3  C   UNL     1       5.446   3.551  13.525  0.00  0.00    +0.000 A 
ATOM      4  C   UNL     1       6.060   4.315  14.529  0.00  0.00    +0.000 A 
ATOM      5  C   UNL     1       7.215   5.059  14.313  0.00  0.00    +0.000 A 
ATOM      6  C   UNL     1       7.804   5.058  13.044  0.00  0.00    +0.000 A 
ATOM      7  N   UNL     1       7.592   5.735  15.453  0.00  0.00    +0.000 NA
ATOM      8  C   UNL     1       6.685   5.425  16.347  0.00  0.00    +0.000 A 
ATOM      9  N   UNL     1       5.756   4.554  15.845  0.00  0.00    +0.000 N 
ATOM     10  C   UNL     1       4.569   4.110  16.561  0.00  0.00    +0.000 C 
ATOM     11  N   UNL     1       4.758   4.240  18.015  0.00  0.00    +0.000 NA
ATOM     12  C   UNL     1       5.373   5.522  18.335  0.00  0.00    +0.000 C 
ATOM     13  N   UNL     1       6.571   5.851  17.611  0.00  0.00    +0.000 N 
ATOM     14  H   UNL     1       7.237   6.506  17.998  0.00  0.00    +0.000 HD
ENDROOT
BRANCH  11  15
ATOM     15  C   UNL     1       3.498   4.046  18.743  0.00  0.00    +0.000 C 
BRANCH  15  16
ATOM     16  C   UNL     1       2.784   5.365  18.945  0.00  0.00    +0.000 A 
ATOM     17  C   UNL     1       2.346   5.770  20.228  0.00  0.00    +0.000 A 
ATOM     18  C   UNL     1       1.863   7.066  20.442  0.00  0.00    +0.000 A 
ATOM     19  C   UNL     1       1.860   7.927  19.368  0.00  0.00    +0.000 A 
ATOM     20  C   UNL     1       2.237   7.523  18.108  0.00  0.00    +0.000 A 
ATOM     21  C   UNL     1       2.677   6.246  17.856  0.00  0.00    +0.000 A 
ATOM     22  O   UNL     1       2.214   8.543  17.207  0.00  0.00    +0.000 OA
ATOM     23  C   UNL     1       2.091   9.653  18.115  0.00  0.00    +0.000 C 
ATOM     24  O   UNL     1       1.573   9.259  19.406  0.00  0.00    +0.000 OA
ENDBRANCH  15  16
ENDBRANCH  11  15
TORSDOF 2
ENDMDL
MODEL 9
REMARK VINA RESULT:      -7.4      4.910      8.270
REMARK  Name = 
REMARK  2 active torsions:
REMARK  status: ('A' for Active; 'I' for Inactive)
REMARK    1  A    between atoms: N_11  and  C_12
REMARK    2  A    between atoms: C_12  and  C_13
REMARK                            x       y       z     vdW  Elec       q    Type
REMARK                         _______ _______ _______ _____ _____    ______ ____
ROOT
ATOM      1  C   UNL     1       6.477   3.307  11.390  0.00  0.00    +0.000 A 
ATOM      2  C   UNL     1       5.266   3.032  12.024  0.00  0.00    +0.000 A 
ATOM      3  C   UNL     1       4.988   3.531  13.305  0.00  0.00    +0.000 A 
ATOM      4  C   UNL     1       5.979   4.321  13.906  0.00  0.00    +0.000 A 
ATOM      5  C   UNL     1       7.193   4.606  13.291  0.00  0.00    +0.000 A 
ATOM      6  C   UNL     1       7.455   4.091  12.017  0.00  0.00    +0.000 A 
ATOM      7  N   UNL     1       7.972   5.421  14.083  0.00  0.00    +0.000 NA
ATOM      8  C   UNL     1       7.250   5.644  15.155  0.00  0.00    +0.000 A 
ATOM      9  N   UNL     1       6.053   4.983  15.105  0.00  0.00    +0.000 N 
ATOM     10  C   UNL     1       4.995   5.116  16.095  0.00  0.00    +0.000 C 
ATOM     11  N   UNL     1       5.540   5.571  17.384  0.00  0.00    +0.000 NA
ATOM     12  C   UNL     1       6.497   6.652  17.178  0.00  0.00    +0.000 C 
ATOM     13  N   UNL     1       7.536   6.408  16.217  0.00  0.00    +0.000 N 
ATOM     14  H   UNL     1       8.408   6.917  16.268  0.00  0.00    +0.000 HD
ENDROOT
BRANCH  11  15
ATOM     15  C   UNL     1       4.475   5.958  18.316  0.00  0.00    +0.000 C 
BRANCH  15  16
ATOM     16  C   UNL     1       3.893   4.741  19.002  0.00  0.00    +0.000 A 
ATOM     17  C   UNL     1       4.711   3.645  19.366  0.00  0.00    +0.000 A 
ATOM     18  C   UNL     1       4.209   2.614  20.167  0.00  0.00    +0.000 A 
ATOM     19  C   UNL     1       2.908   2.726  20.605  0.00  0.00    +0.000 A 
ATOM     20  C   UNL     1       2.094   3.764  20.213  0.00  0.00    +0.000 A 
ATOM     21  C   UNL     1       2.544   4.770  19.394  0.00  0.00    +0.000 A 
ATOM     22  O   UNL     1       0.870   3.714  20.805  0.00  0.00    +0.000 OA
ATOM     23  C   UNL     1       1.140   2.731  21.821  0.00  0.00    +0.000 C 
ATOM     24  O   UNL     1       2.290   1.912  21.506  0.00  0.00    +0.000 OA
ENDBRANCH  15  16
ENDBRANCH  11  15
TORSDOF 2
ENDMDL
