MODEL 1
REMARK VINA RESULT:      -7.7      0.000      0.000
REMARK  Name = 
REMARK  7 active torsions:
REMARK  status: ('A' for Active; 'I' for Inactive)
REMARK    1  A    between atoms: C_1  and  C_2
REMARK    2  A    between atoms: C_2  and  C_3
REMARK    3  A    between atoms: C_3  and  O_4
REMARK    4  A    between atoms: C_3  and  C_5
REMARK    5  A    between atoms: C_3  and  C_15
REMARK    6  A    between atoms: C_5  and  C_6
REMARK    7  A    between atoms: N_13  and  C_14
REMARK                            x       y       z     vdW  Elec       q    Type
REMARK                         _______ _______ _______ _____ _____    ______ ____
ROOT
ATOM      1  C   UNL     1       5.804   5.010  15.986  0.00  0.00    +0.000 C 
ENDROOT
BRANCH   1   2
ATOM      2  C   UNL     1       6.704   5.733  17.024  0.00  0.00    +0.000 A 
ATOM      3  C   UNL     1       7.236   5.055  18.136  0.00  0.00    +0.000 A 
ATOM      4  C   UNL     1       8.017   5.713  19.089  0.00  0.00    +0.000 A 
ATOM      5  C   UNL     1       8.294   7.070  18.946  0.00  0.00    +0.000 A 
ATOM      6  C   UNL     1       7.798   7.762  17.847  0.00  0.00    +0.000 A 
ATOM      7  C   UNL     1       7.017   7.099  16.891  0.00  0.00    +0.000 A 
ENDBRANCH   1   2
BRANCH   1   9
ATOM      8  C   UNL     1       6.087   3.863  13.622  0.00  0.00    +0.000 C 
ATOM      9  C   UNL     1       6.730   4.402  14.896  0.00  0.00    +0.000 C 
ENDBRANCH   1   9
BRANCH   1  10
ATOM     10  O   UNL     1       4.971   6.018  15.412  0.00  0.00    +0.000 OA
ATOM     11  H   UNL     1       5.446   6.864  15.411  0.00  0.00    +0.000 HD
ENDBRANCH   1  10
BRANCH   1  12
ATOM     12  C   UNL     1       4.910   3.984  16.744  0.00  0.00    +0.000 C 
BRANCH  12  13
ATOM     13  C   UNL     1       3.605   4.420  17.477  0.00  0.00    +0.000 C 
ATOM     14  C   UNL     1       3.703   4.750  18.985  0.00  0.00    +0.000 C 
ATOM     15  C   UNL     1       3.412   3.569  19.927  0.00  0.00    +0.000 C 
ATOM     16  C   UNL     1       4.305   2.357  19.641  0.00  0.00    +0.000 C 
ATOM     17  C   UNL     1       3.505   1.526  18.628  0.00  0.00    +0.000 C 
ATOM     18  C   UNL     1       2.251   2.360  18.354  0.00  0.00    +0.000 C 
ATOM     19  C   UNL     1       2.465   3.392  17.225  0.00  0.00    +0.000 C 
ATOM     20  N   UNL     1       2.093   2.983  19.670  0.00  0.00    +0.000 NA
ATOM     21  C   UNL     1       0.957   3.870  19.832  0.00  0.00    +0.000 C 
ENDBRANCH  12  13
ENDBRANCH   1  12
TORSDOF 5
ENDMDL
MODEL 2
REMARK VINA RESULT:      -7.7      1.267      3.422
REMARK  Name = 
REMARK  7 active torsions:
REMARK  status: ('A' for Active; 'I' for Inactive)
REMARK    1  A    between atoms: C_1  and  C_2
REMARK    2  A    between atoms: C_2  and  C_3
REMARK    3  A    between atoms: C_3  and  O_4
REMARK    4  A    between atoms: C_3  and  C_5
REMARK    5  A    between atoms: C_3  and  C_15
REMARK    6  A    between atoms: C_5  and  C_6
REMARK    7  A    between atoms: N_13  and  C_14
REMARK                            x       y       z     vdW  Elec       q    Type
REMARK                         _______ _______ _______ _____ _____    ______ ____
ROOT
ATOM      1  C   UNL     1       6.192   4.867  16.352  0.00  0.00    +0.000 C 
ENDROOT
BRANCH   1   2
ATOM      2  C   UNL     1       6.454   4.637  14.839  0.00  0.00    +0.000 A 
ATOM      3  C   UNL     1       5.672   3.743  14.084  0.00  0.00    +0.000 A 
ATOM      4  C   UNL     1       5.930   3.510  12.731  0.00  0.00    +0.000 A 
ATOM      5  C   UNL     1       6.974   4.176  12.095  0.00  0.00    +0.000 A 
ATOM      6  C   UNL     1       7.751   5.079  12.812  0.00  0.00    +0.000 A 
ATOM      7  C   UNL     1       7.490   5.314  14.168  0.00  0.00    +0.000 A 
ENDBRANCH   1   2
BRANCH   1   9
ATOM      8  C   UNL     1       7.433   6.691  17.808  0.00  0.00    +0.000 C 
ATOM      9  C   UNL     1       6.480   6.362  16.663  0.00  0.00    +0.000 C 
ENDBRANCH   1   9
BRANCH   1  10
ATOM     10  O   UNL     1       7.123   4.036  17.046  0.00  0.00    +0.000 OA
ATOM     11  H   UNL     1       6.983   4.128  18.002  0.00  0.00    +0.000 HD
ENDBRANCH   1  10
BRANCH   1  12
ATOM     12  C   UNL     1       4.746   4.389  16.675  0.00  0.00    +0.000 C 
BRANCH  12  13
ATOM     13  C   UNL     1       3.994   4.861  17.957  0.00  0.00    +0.000 C 
ATOM     14  C   UNL     1       4.399   4.217  19.304  0.00  0.00    +0.000 C 
ATOM     15  C   UNL     1       3.571   2.984  19.708  0.00  0.00    +0.000 C 
ATOM     16  C   UNL     1       3.583   1.894  18.632  0.00  0.00    +0.000 C 
ATOM     17  C   UNL     1       2.365   2.213  17.753  0.00  0.00    +0.000 C 
ATOM     18  C   UNL     1       1.792   3.502  18.348  0.00  0.00    +0.000 C 
ATOM     19  C   UNL     1       2.454   4.767  17.758  0.00  0.00    +0.000 C 
ATOM     20  N   UNL     1       2.138   3.285  19.754  0.00  0.00    +0.000 NA
ATOM     21  C   UNL     1       1.731   4.319  20.686  0.00  0.00    +0.000 C 
ENDBRANCH  12  13
ENDBRANCH   1  12
TORSDOF 5
ENDMDL
MODEL 3
REMARK VINA RESULT:      -7.7      0.072      1.077
REMARK  Name = 
REMARK  7 active torsions:
REMARK  status: ('A' for Active; 'I' for Inactive)
REMARK    1  A    between atoms: C_1  and  C_2
REMARK    2  A    between atoms: C_2  and  C_3
REMARK    3  A    between atoms: C_3  and  O_4
REMARK    4  A    between atoms: C_3  and  C_5
REMARK    5  A    between atoms: C_3  and  C_15
REMARK    6  A    between atoms: C_5  and  C_6
REMARK    7  A    between atoms: N_13  and  C_14
REMARK                            x       y       z     vdW  Elec       q    Type
REMARK                         _______ _______ _______ _____ _____    ______ ____
ROOT
ATOM      1  C   UNL     1       5.788   5.073  15.960  0.00  0.00    +0.000 C 
ENDROOT
BRANCH   1   2
ATOM      2  C   UNL     1       6.668   5.760  17.037  0.00  0.00    +0.000 A 
ATOM      3  C   UNL     1       7.000   7.125  16.955  0.00  0.00    +0.000 A 
ATOM      4  C   UNL     1       7.821   7.736  17.906  0.00  0.00    +0.000 A 
ATOM      5  C   UNL     1       8.325   6.996  18.972  0.00  0.00    +0.000 A 
ATOM      6  C   UNL     1       7.998   5.649  19.089  0.00  0.00    +0.000 A 
ATOM      7  C   UNL     1       7.172   5.039  18.136  0.00  0.00    +0.000 A 
ENDBRANCH   1   2
BRANCH   1   9
ATOM      8  C   UNL     1       6.109   3.898  13.614  0.00  0.00    +0.000 C 
ATOM      9  C   UNL     1       6.734   4.489  14.874  0.00  0.00    +0.000 C 
ENDBRANCH   1   9
BRANCH   1  10
ATOM     10  O   UNL     1       4.975   6.102  15.396  0.00  0.00    +0.000 OA
ATOM     11  H   UNL     1       4.458   5.736  14.661  0.00  0.00    +0.000 HD
ENDBRANCH   1  10
BRANCH   1  12
ATOM     12  C   UNL     1       4.870   4.033  16.669  0.00  0.00    +0.000 C 
BRANCH  12  13
ATOM     13  C   UNL     1       3.577   4.464  17.426  0.00  0.00    +0.000 C 
ATOM     14  C   UNL     1       3.706   4.811  18.928  0.00  0.00    +0.000 C 
ATOM     15  C   UNL     1       3.447   3.637  19.889  0.00  0.00    +0.000 C 
ATOM     16  C   UNL     1       4.345   2.431  19.595  0.00  0.00    +0.000 C 
ATOM     17  C   UNL     1       3.531   1.581  18.609  0.00  0.00    +0.000 C 
ATOM     18  C   UNL     1       2.263   2.400  18.355  0.00  0.00    +0.000 C 
ATOM     19  C   UNL     1       2.441   3.423  17.211  0.00  0.00    +0.000 C 
ATOM     20  N   UNL     1       2.129   3.036  19.667  0.00  0.00    +0.000 NA
ATOM     21  C   UNL     1       0.988   3.914  19.846  0.00  0.00    +0.000 C 
ENDBRANCH  12  13
ENDBRANCH   1  12
TORSDOF 5
ENDMDL
MODEL 4
REMARK VINA RESULT:      -7.7      1.445      3.897
REMARK  Name = 
REMARK  7 active torsions:
REMARK  status: ('A' for Active; 'I' for Inactive)
REMARK    1  A    between atoms: C_1  and  C_2
REMARK    2  A    between atoms: C_2  and  C_3
REMARK    3  A    between atoms: C_3  and  O_4
REMARK    4  A    between atoms: C_3  and  C_5
REMARK    5  A    between atoms: C_3  and  C_15
REMARK    6  A    between atoms: C_5  and  C_6
REMARK    7  A    between atoms: N_13  and  C_14
REMARK                            x       y       z     vdW  Elec       q    Type
REMARK                         _______ _______ _______ _____ _____    ______ ____
ROOT
ATOM      1  C   UNL     1       6.182   4.842  16.244  0.00  0.00    +0.000 C 
ENDROOT
BRANCH   1   2
ATOM      2  C   UNL     1       6.495   4.600  14.743  0.00  0.00    +0.000 A 
ATOM      3  C   UNL     1       7.539   5.280  14.089  0.00  0.00    +0.000 A 
ATOM      4  C   UNL     1       7.799   5.087  12.730  0.00  0.00    +0.000 A 
ATOM      5  C   UNL     1       7.022   4.199  11.991  0.00  0.00    +0.000 A 
ATOM      6  C   UNL     1       5.996   3.499  12.615  0.00  0.00    +0.000 A 
ATOM      7  C   UNL     1       5.739   3.691  13.978  0.00  0.00    +0.000 A 
ENDBRANCH   1   2
BRANCH   1   9
ATOM      8  C   UNL     1       7.329   6.891  17.457  0.00  0.00    +0.000 C 
ATOM      9  C   UNL     1       6.257   6.373  16.504  0.00  0.00    +0.000 C 
ENDBRANCH   1   9
BRANCH   1  10
ATOM     10  O   UNL     1       7.209   4.173  16.976  0.00  0.00    +0.000 OA
ATOM     11  H   UNL     1       6.899   4.002  17.880  0.00  0.00    +0.000 HD
ENDBRANCH   1  10
BRANCH   1  12
ATOM     12  C   UNL     1       4.811   4.180  16.571  0.00  0.00    +0.000 C 
BRANCH  12  13
ATOM     13  C   UNL     1       4.561   3.441  17.920  0.00  0.00    +0.000 C 
ATOM     14  C   UNL     1       3.352   2.478  17.997  0.00  0.00    +0.000 C 
ATOM     15  C   UNL     1       2.050   3.112  18.516  0.00  0.00    +0.000 C 
ATOM     16  C   UNL     1       1.633   4.341  17.702  0.00  0.00    +0.000 C 
ATOM     17  C   UNL     1       2.297   5.521  18.427  0.00  0.00    +0.000 C 
ATOM     18  C   UNL     1       3.102   4.871  19.556  0.00  0.00    +0.000 C 
ATOM     19  C   UNL     1       4.518   4.452  19.102  0.00  0.00    +0.000 C 
ATOM     20  N   UNL     1       2.233   3.726  19.834  0.00  0.00    +0.000 NA
ATOM     21  C   UNL     1       2.656   2.838  20.899  0.00  0.00    +0.000 C 
ENDBRANCH  12  13
ENDBRANCH   1  12
TORSDOF 5
ENDMDL
MODEL 5
REMARK VINA RESULT:      -7.6      1.432      3.836
REMARK  Name = 
REMARK  7 active torsions:
REMARK  status: ('A' for Active; 'I' for Inactive)
REMARK    1  A    between atoms: C_1  and  C_2
REMARK    2  A    between atoms: C_2  and  C_3
REMARK    3  A    between atoms: C_3  and  O_4
REMARK    4  A    between atoms: C_3  and  C_5
REMARK    5  A    between atoms: C_3  and  C_15
REMARK    6  A    between atoms: C_5  and  C_6
REMARK    7  A    between atoms: N_13  and  C_14
REMARK                            x       y       z     vdW  Elec       q    Type
REMARK                         _______ _______ _______ _____ _____    ______ ____
ROOT
ATOM      1  C   UNL     1       6.214   4.866  16.237  0.00  0.00    +0.000 C 
ENDROOT
BRANCH   1   2
ATOM      2  C   UNL     1       6.484   4.629  14.727  0.00  0.00    +0.000 A 
ATOM      3  C   UNL     1       5.718   3.717  13.977  0.00  0.00    +0.000 A 
ATOM      4  C   UNL     1       5.983   3.477  12.626  0.00  0.00    +0.000 A 
ATOM      5  C   UNL     1       7.018   4.153  11.988  0.00  0.00    +0.000 A 
ATOM      6  C   UNL     1       7.780   5.075  12.699  0.00  0.00    +0.000 A 
ATOM      7  C   UNL     1       7.511   5.315  14.052  0.00  0.00    +0.000 A 
ENDBRANCH   1   2
BRANCH   1   9
ATOM      8  C   UNL     1       7.363   6.846  17.557  0.00  0.00    +0.000 C 
ATOM      9  C   UNL     1       6.352   6.390  16.510  0.00  0.00    +0.000 C 
ENDBRANCH   1   9
BRANCH   1  10
ATOM     10  O   UNL     1       7.230   4.151  16.939  0.00  0.00    +0.000 OA
ATOM     11  H   UNL     1       8.101   4.456  16.641  0.00  0.00    +0.000 HD
ENDBRANCH   1  10
BRANCH   1  12
ATOM     12  C   UNL     1       4.826   4.252  16.588  0.00  0.00    +0.000 C 
BRANCH  12  13
ATOM     13  C   UNL     1       4.581   3.494  17.927  0.00  0.00    +0.000 C 
ATOM     14  C   UNL     1       3.390   2.508  17.987  0.00  0.00    +0.000 C 
ATOM     15  C   UNL     1       2.074   3.114  18.505  0.00  0.00    +0.000 C 
ATOM     16  C   UNL     1       1.640   4.344  17.703  0.00  0.00    +0.000 C 
ATOM     17  C   UNL     1       2.278   5.528  18.445  0.00  0.00    +0.000 C 
ATOM     18  C   UNL     1       3.089   4.880  19.570  0.00  0.00    +0.000 C 
ATOM     19  C   UNL     1       4.514   4.490  19.119  0.00  0.00    +0.000 C 
ATOM     20  N   UNL     1       2.239   3.716  19.831  0.00  0.00    +0.000 NA
ATOM     21  C   UNL     1       2.673   2.824  20.889  0.00  0.00    +0.000 C 
ENDBRANCH  12  13
ENDBRANCH   1  12
TORSDOF 5
ENDMDL
MODEL 6
REMARK VINA RESULT:      -7.6      1.242      3.468
REMARK  Name = 
REMARK  7 active torsions:
REMARK  status: ('A' for Active; 'I' for Inactive)
REMARK    1  A    between atoms: C_1  and  C_2
REMARK    2  A    between atoms: C_2  and  C_3
REMARK    3  A    between atoms: C_3  and  O_4
REMARK    4  A    between atoms: C_3  and  C_5
REMARK    5  A    between atoms: C_3  and  C_15
REMARK    6  A    between atoms: C_5  and  C_6
REMARK    7  A    between atoms: N_13  and  C_14
REMARK                            x       y       z     vdW  Elec       q    Type
REMARK                         _______ _______ _______ _____ _____    ______ ____
ROOT
ATOM      1  C   UNL     1       6.046   4.903  16.392  0.00  0.00    +0.000 C 
ENDROOT
BRANCH   1   2
ATOM      2  C   UNL     1       6.379   4.633  14.901  0.00  0.00    +0.000 A 
ATOM      3  C   UNL     1       7.442   5.289  14.253  0.00  0.00    +0.000 A 
ATOM      4  C   UNL     1       7.721   5.072  12.902  0.00  0.00    +0.000 A 
ATOM      5  C   UNL     1       6.945   4.183  12.164  0.00  0.00    +0.000 A 
ATOM      6  C   UNL     1       5.900   3.505  12.782  0.00  0.00    +0.000 A 
ATOM      7  C   UNL     1       5.624   3.722  14.138  0.00  0.00    +0.000 A 
ENDBRANCH   1   2
BRANCH   1   9
ATOM      8  C   UNL     1       7.414   6.676  17.797  0.00  0.00    +0.000 C 
ATOM      9  C   UNL     1       6.398   6.386  16.697  0.00  0.00    +0.000 C 
ENDBRANCH   1   9
BRANCH   1  10
ATOM     10  O   UNL     1       6.890   4.036  17.150  0.00  0.00    +0.000 OA
ATOM     11  H   UNL     1       6.846   3.141  16.779  0.00  0.00    +0.000 HD
ENDBRANCH   1  10
BRANCH   1  12
ATOM     12  C   UNL     1       4.560   4.510  16.641  0.00  0.00    +0.000 C 
BRANCH  12  13
ATOM     13  C   UNL     1       3.801   4.949  17.930  0.00  0.00    +0.000 C 
ATOM     14  C   UNL     1       4.272   4.353  19.278  0.00  0.00    +0.000 C 
ATOM     15  C   UNL     1       3.536   3.073  19.713  0.00  0.00    +0.000 C 
ATOM     16  C   UNL     1       3.603   1.971  18.651  0.00  0.00    +0.000 C 
ATOM     17  C   UNL     1       2.350   2.195  17.791  0.00  0.00    +0.000 C 
ATOM     18  C   UNL     1       1.703   3.451  18.379  0.00  0.00    +0.000 C 
ATOM     19  C   UNL     1       2.268   4.749  17.760  0.00  0.00    +0.000 C 
ATOM     20  N   UNL     1       2.086   3.278  19.781  0.00  0.00    +0.000 NA
ATOM     21  C   UNL     1       1.628   4.296  20.707  0.00  0.00    +0.000 C 
ENDBRANCH  12  13
ENDBRANCH   1  12
TORSDOF 5
ENDMDL
MODEL 7
REMARK VINA RESULT:      -7.6      3.310      5.816
REMARK  Name = 
REMARK  7 active torsions:
REMARK  status: ('A' for Active; 'I' for Inactive)
REMARK    1  A    between atoms: C_1  and  C_2
REMARK    2  A    between atoms: C_2  and  C_3
REMARK    3  A    between atoms: C_3  and  O_4
REMARK    4  A    between atoms: C_3  and  C_5
REMARK    5  A    between atoms: C_3  and  C_15
REMARK    6  A    between atoms: C_5  and  C_6
REMARK    7  A    between atoms: N_13  and  C_14
REMARK                            x       y       z     vdW  Elec       q    Type
REMARK                         _______ _______ _______ _____ _____    ______ ____
ROOT
ATOM      1  C   UNL     1       2.838   5.776  19.264  0.00  0.00    +0.000 C 
ENDROOT
BRANCH   1   2
ATOM      2  C   UNL     1       2.241   7.208  19.232  0.00  0.00    +0.000 A 
ATOM      3  C   UNL     1       1.668   7.792  20.378  0.00  0.00    +0.000 A 
ATOM      4  C   UNL     1       1.098   9.067  20.341  0.00  0.00    +0.000 A 
ATOM      5  C   UNL     1       1.097   9.796  19.156  0.00  0.00    +0.000 A 
ATOM      6  C   UNL     1       1.673   9.252  18.013  0.00  0.00    +0.000 A 
ATOM      7  C   UNL     1       2.245   7.975  18.052  0.00  0.00    +0.000 A 
ENDBRANCH   1   2
BRANCH   1   9
ATOM      8  C   UNL     1       1.382   3.575  19.120  0.00  0.00    +0.000 C 
ATOM      9  C   UNL     1       1.893   4.848  18.452  0.00  0.00    +0.000 C 
ENDBRANCH   1   9
BRANCH   1  10
ATOM     10  O   UNL     1       2.849   5.381  20.636  0.00  0.00    +0.000 OA
ATOM     11  H   UNL     1       3.472   4.646  20.753  0.00  0.00    +0.000 HD
ENDBRANCH   1  10
BRANCH   1  12
ATOM     12  C   UNL     1       4.305   5.847  18.745  0.00  0.00    +0.000 C 
BRANCH  12  13
ATOM     13  C   UNL     1       4.694   5.350  17.320  0.00  0.00    +0.000 C 
ATOM     14  C   UNL     1       5.669   4.153  17.218  0.00  0.00    +0.000 C 
ATOM     15  C   UNL     1       7.155   4.535  17.100  0.00  0.00    +0.000 C 
ATOM     16  C   UNL     1       7.620   5.438  18.247  0.00  0.00    +0.000 C 
ATOM     17  C   UNL     1       7.387   6.864  17.728  0.00  0.00    +0.000 C 
ATOM     18  C   UNL     1       6.738   6.669  16.355  0.00  0.00    +0.000 C 
ATOM     19  C   UNL     1       5.202   6.531  16.444  0.00  0.00    +0.000 C 
ATOM     20  N   UNL     1       7.397   5.423  15.959  0.00  0.00    +0.000 NA
ATOM     21  C   UNL     1       7.050   4.895  14.654  0.00  0.00    +0.000 C 
ENDBRANCH  12  13
ENDBRANCH   1  12
TORSDOF 5
ENDMDL
MODEL 8
REMARK VINA RESULT:      -7.5      3.312      5.876
REMARK  Name = 
REMARK  7 active torsions:
REMARK  status: ('A' for Active; 'I' for Inactive)
REMARK    1  A    between atoms: C_1  and  C_2
REMARK    2  A    between atoms: C_2  and  C_3
REMARK    3  A    between atoms: C_3  and  O_4
REMARK    4  A    between atoms: C_3  and  C_5
REMARK    5  A    between atoms: C_3  and  C_15
REMARK    6  A    between atoms: C_5  and  C_6
REMARK    7  A    between atoms: N_13  and  C_14
REMARK                            x       y       z     vdW  Elec       q    Type
REMARK                         _______ _______ _______ _____ _____    ______ ____
ROOT
ATOM      1  C   UNL     1       2.846   5.795  19.346  0.00  0.00    +0.000 C 
ENDROOT
BRANCH   1   2
ATOM      2  C   UNL     1       2.213   7.210  19.284  0.00  0.00    +0.000 A 
ATOM      3  C   UNL     1       2.219   7.968  18.098  0.00  0.00    +0.000 A 
ATOM      4  C   UNL     1       1.680   9.256  18.050  0.00  0.00    +0.000 A 
ATOM      5  C   UNL     1       1.111   9.816  19.191  0.00  0.00    +0.000 A 
ATOM      6  C   UNL     1       1.073   9.083  20.372  0.00  0.00    +0.000 A 
ATOM      7  C   UNL     1       1.612   7.791  20.417  0.00  0.00    +0.000 A 
ENDBRANCH   1   2
BRANCH   1   9
ATOM      8  C   UNL     1       1.395   3.587  19.264  0.00  0.00    +0.000 C 
ATOM      9  C   UNL     1       1.926   4.827  18.551  0.00  0.00    +0.000 C 
ENDBRANCH   1   9
BRANCH   1  10
ATOM     10  O   UNL     1       2.864   5.428  20.725  0.00  0.00    +0.000 OA
ATOM     11  H   UNL     1       2.127   4.823  20.906  0.00  0.00    +0.000 HD
ENDBRANCH   1  10
BRANCH   1  12
ATOM     12  C   UNL     1       4.312   5.892  18.828  0.00  0.00    +0.000 C 
BRANCH  12  13
ATOM     13  C   UNL     1       4.711   5.399  17.404  0.00  0.00    +0.000 C 
ATOM     14  C   UNL     1       5.628   4.157  17.305  0.00  0.00    +0.000 C 
ATOM     15  C   UNL     1       7.133   4.467  17.229  0.00  0.00    +0.000 C 
ATOM     16  C   UNL     1       7.614   5.325  18.403  0.00  0.00    +0.000 C 
ATOM     17  C   UNL     1       7.465   6.770  17.904  0.00  0.00    +0.000 C 
ATOM     18  C   UNL     1       6.842   6.631  16.513  0.00  0.00    +0.000 C 
ATOM     19  C   UNL     1       5.299   6.568  16.562  0.00  0.00    +0.000 C 
ATOM     20  N   UNL     1       7.448   5.360  16.111  0.00  0.00    +0.000 NA
ATOM     21  C   UNL     1       7.108   4.872  14.788  0.00  0.00    +0.000 C 
ENDBRANCH  12  13
ENDBRANCH   1  12
TORSDOF 5
ENDMDL
MODEL 9
REMARK VINA RESULT:      -7.4      1.344      3.517
REMARK  Name = 
REMARK  7 active torsions:
REMARK  status: ('A' for Active; 'I' for Inactive)
REMARK    1  A    between atoms: C_1  and  C_2
REMARK    2  A    between atoms: C_2  and  C_3
REMARK    3  A    between atoms: C_3  and  O_4
REMARK    4  A    between atoms: C_3  and  C_5
REMARK    5  A    between atoms: C_3  and  C_15
REMARK    6  A    between atoms: C_5  and  C_6
REMARK    7  A    between atoms: N_13  and  C_14
REMARK                            x       y       z     vdW  Elec       q    Type
REMARK                         _______ _______ _______ _____ _____    ______ ____
ROOT
ATOM      1  C   UNL     1       6.172   5.112  17.385  0.00  0.00    +0.000 C 
ENDROOT
BRANCH   1   2
ATOM      2  C   UNL     1       6.270   4.791  15.870  0.00  0.00    +0.000 A 
ATOM      3  C   UNL     1       5.252   4.088  15.199  0.00  0.00    +0.000 A 
ATOM      4  C   UNL     1       5.356   3.769  13.843  0.00  0.00    +0.000 A 
ATOM      5  C   UNL     1       6.481   4.155  13.119  0.00  0.00    +0.000 A 
ATOM      6  C   UNL     1       7.494   4.868  13.751  0.00  0.00    +0.000 A 
ATOM      7  C   UNL     1       7.387   5.189  15.111  0.00  0.00    +0.000 A 
ENDBRANCH   1   2
BRANCH   1   9
ATOM      8  C   UNL     1       7.938   6.681  18.570  0.00  0.00    +0.000 C 
ATOM      9  C   UNL     1       6.762   6.532  17.610  0.00  0.00    +0.000 C 
ENDBRANCH   1   9
BRANCH   1  10
ATOM     10  O   UNL     1       6.978   4.138  18.049  0.00  0.00    +0.000 OA
ATOM     11  H   UNL     1       7.014   3.331  17.513  0.00  0.00    +0.000 HD
ENDBRANCH   1  10
BRANCH   1  12
ATOM     12  C   UNL     1       4.690   4.931  17.828  0.00  0.00    +0.000 C 
BRANCH  12  13
ATOM     13  C   UNL     1       4.318   4.391  19.242  0.00  0.00    +0.000 C 
ATOM     14  C   UNL     1       4.226   2.858  19.424  0.00  0.00    +0.000 C 
ATOM     15  C   UNL     1       2.821   2.264  19.222  0.00  0.00    +0.000 C 
ATOM     16  C   UNL     1       2.226   2.622  17.856  0.00  0.00    +0.000 C 
ATOM     17  C   UNL     1       1.453   3.925  18.108  0.00  0.00    +0.000 C 
ATOM     18  C   UNL     1       1.726   4.253  19.578  0.00  0.00    +0.000 C 
ATOM     19  C   UNL     1       3.022   5.073  19.767  0.00  0.00    +0.000 C 
ATOM     20  N   UNL     1       1.835   2.892  20.105  0.00  0.00    +0.000 NA
ATOM     21  C   UNL     1       2.082   2.768  21.529  0.00  0.00    +0.000 C 
ENDBRANCH  12  13
ENDBRANCH   1  12
TORSDOF 5
ENDMDL
