MODEL 1
REMARK VINA RESULT:      -7.7      0.000      0.000
REMARK  Name = 
REMARK  2 active torsions:
REMARK  status: ('A' for Active; 'I' for Inactive)
REMARK    1  A    between atoms: C_2  and  O_3
REMARK    2  A    between atoms: C_2  and  C_4
REMARK                            x       y       z     vdW  Elec       q    Type
REMARK                         _______ _______ _______ _____ _____    ______ ____
ROOT
ATOM      1  C   UNL     1       5.666   4.906  17.167  0.00  0.00    +0.000 C 
ATOM      2  C   UNL     1       4.986   6.201  16.643  0.00  0.00    +0.000 C 
ATOM      3  C   UNL     1       4.452   7.170  17.727  0.00  0.00    +0.000 C 
ATOM      4  C   UNL     1       2.958   7.517  17.521  0.00  0.00    +0.000 C 
ATOM      5  C   UNL     1       2.184   8.094  18.707  0.00  0.00    +0.000 A 
ATOM      6  C   UNL     1       1.683   9.403  18.622  0.00  0.00    +0.000 A 
ATOM      7  C   UNL     1       0.890   9.937  19.640  0.00  0.00    +0.000 A 
ATOM      8  C   UNL     1       0.586   9.175  20.764  0.00  0.00    +0.000 A 
ATOM      9  C   UNL     1       1.062   7.870  20.871  0.00  0.00    +0.000 A 
ATOM     10  C   UNL     1       1.847   7.315  19.850  0.00  0.00    +0.000 A 
ATOM     11  C   UNL     1       2.350   5.903  19.925  0.00  0.00    +0.000 C 
ATOM     12  C   UNL     1       2.039   4.954  21.073  0.00  0.00    +0.000 C 
ATOM     13  C   UNL     1       2.819   3.620  20.956  0.00  0.00    +0.000 C 
ATOM     14  C   UNL     1       3.216   3.156  19.543  0.00  0.00    +0.000 C 
ATOM     15  N   UNL     1       4.279   3.971  18.962  0.00  0.00    +0.000 N 
ATOM     16  C   UNL     1       4.637   3.887  17.638  0.00  0.00    +0.000 C 
ATOM     17  O   UNL     1       4.172   3.040  16.878  0.00  0.00    +0.000 OA
ATOM     18  H   UNL     1       4.865   4.508  19.589  0.00  0.00    +0.000 HD
ENDROOT
BRANCH   1  20
ATOM     19  O   UNL     1       7.830   4.417  16.227  0.00  0.00    +0.000 OA
ATOM     20  C   UNL     1       6.608   4.368  16.097  0.00  0.00    +0.000 C 
BRANCH  20  21
ATOM     21  O   UNL     1       6.062   3.821  14.995  0.00  0.00    +0.000 OA
ATOM     22  H   UNL     1       5.641   2.934  15.131  0.00  0.00    +0.000 HD
ENDBRANCH  20  21
ENDBRANCH   1  20
TORSDOF 2
ENDMDL
MODEL 2
REMARK VINA RESULT:      -7.6      2.063      4.302
REMARK  Name = 
REMARK  2 active torsions:
REMARK  status: ('A' for Active; 'I' for Inactive)
REMARK    1  A    between atoms: C_2  and  O_3
REMARK    2  A    between atoms: C_2  and  C_4
REMARK                            x       y       z     vdW  Elec       q    Type
REMARK                         _______ _______ _______ _____ _____    ______ ____
ROOT
ATOM      1  C   UNL     1       5.601   4.905  15.315  0.00  0.00    +0.000 C 
ATOM      2  C   UNL     1       5.659   3.689  16.280  0.00  0.00    +0.000 C 
ATOM      3  C   UNL     1       4.347   3.362  17.036  0.00  0.00    +0.000 C 
ATOM      4  C   UNL     1       4.552   3.295  18.569  0.00  0.00    +0.000 C 
ATOM      5  C   UNL     1       3.318   3.411  19.465  0.00  0.00    +0.000 A 
ATOM      6  C   UNL     1       2.950   2.316  20.262  0.00  0.00    +0.000 A 
ATOM      7  C   UNL     1       1.888   2.409  21.166  0.00  0.00    +0.000 A 
ATOM      8  C   UNL     1       1.172   3.596  21.286  0.00  0.00    +0.000 A 
ATOM      9  C   UNL     1       1.522   4.702  20.513  0.00  0.00    +0.000 A 
ATOM     10  C   UNL     1       2.594   4.629  19.612  0.00  0.00    +0.000 A 
ATOM     11  C   UNL     1       3.011   5.811  18.789  0.00  0.00    +0.000 C 
ATOM     12  C   UNL     1       2.344   7.177  18.871  0.00  0.00    +0.000 C 
ATOM     13  C   UNL     1       2.881   8.155  17.795  0.00  0.00    +0.000 C 
ATOM     14  C   UNL     1       4.318   7.931  17.291  0.00  0.00    +0.000 C 
ATOM     15  N   UNL     1       4.439   6.744  16.449  0.00  0.00    +0.000 N 
ATOM     16  C   UNL     1       5.654   6.223  16.074  0.00  0.00    +0.000 C 
ATOM     17  O   UNL     1       6.720   6.784  16.320  0.00  0.00    +0.000 OA
ATOM     18  H   UNL     1       3.601   6.382  16.012  0.00  0.00    +0.000 HD
ENDROOT
BRANCH   1  20
ATOM     19  O   UNL     1       6.583   3.994  13.312  0.00  0.00    +0.000 OA
ATOM     20  C   UNL     1       6.697   4.763  14.266  0.00  0.00    +0.000 C 
BRANCH  20  21
ATOM     21  O   UNL     1       7.803   5.517  14.405  0.00  0.00    +0.000 OA
ATOM     22  H   UNL     1       7.766   6.184  15.136  0.00  0.00    +0.000 HD
ENDBRANCH  20  21
ENDBRANCH   1  20
TORSDOF 2
ENDMDL
MODEL 3
REMARK VINA RESULT:      -6.9      1.827      3.960
REMARK  Name = 
REMARK  2 active torsions:
REMARK  status: ('A' for Active; 'I' for Inactive)
REMARK    1  A    between atoms: C_2  and  O_3
REMARK    2  A    between atoms: C_2  and  C_4
REMARK                            x       y       z     vdW  Elec       q    Type
REMARK                         _______ _______ _______ _____ _____    ______ ____
ROOT
ATOM      1  C   UNL     1       3.704   3.476  19.796  0.00  0.00    +0.000 C 
ATOM      2  C   UNL     1       2.923   4.379  20.789  0.00  0.00    +0.000 C 
ATOM      3  C   UNL     1       1.957   5.408  20.151  0.00  0.00    +0.000 C 
ATOM      4  C   UNL     1       2.230   6.852  20.635  0.00  0.00    +0.000 C 
ATOM      5  C   UNL     1       1.673   8.007  19.802  0.00  0.00    +0.000 A 
ATOM      6  C   UNL     1       0.700   8.847  20.366  0.00  0.00    +0.000 A 
ATOM      7  C   UNL     1       0.233   9.970  19.679  0.00  0.00    +0.000 A 
ATOM      8  C   UNL     1       0.726  10.272  18.413  0.00  0.00    +0.000 A 
ATOM      9  C   UNL     1       1.699   9.461  17.833  0.00  0.00    +0.000 A 
ATOM     10  C   UNL     1       2.188   8.339  18.516  0.00  0.00    +0.000 A 
ATOM     11  C   UNL     1       3.256   7.464  17.928  0.00  0.00    +0.000 C 
ATOM     12  C   UNL     1       3.913   7.722  16.580  0.00  0.00    +0.000 C 
ATOM     13  C   UNL     1       4.864   6.570  16.164  0.00  0.00    +0.000 C 
ATOM     14  C   UNL     1       5.513   5.748  17.291  0.00  0.00    +0.000 C 
ATOM     15  N   UNL     1       4.559   4.878  17.974  0.00  0.00    +0.000 N 
ATOM     16  C   UNL     1       4.858   4.227  19.146  0.00  0.00    +0.000 C 
ATOM     17  O   UNL     1       5.984   4.234  19.639  0.00  0.00    +0.000 OA
ATOM     18  H   UNL     1       3.703   4.637  17.490  0.00  0.00    +0.000 HD
ENDROOT
BRANCH   1  20
ATOM     19  O   UNL     1       3.658   1.878  21.599  0.00  0.00    +0.000 OA
ATOM     20  C   UNL     1       4.136   2.202  20.513  0.00  0.00    +0.000 C 
BRANCH  20  21
ATOM     21  O   UNL     1       5.057   1.424  19.915  0.00  0.00    +0.000 OA
ATOM     22  H   UNL     1       5.714   1.909  19.353  0.00  0.00    +0.000 HD
ENDBRANCH  20  21
ENDBRANCH   1  20
TORSDOF 2
ENDMDL
MODEL 4
REMARK VINA RESULT:      -6.8      1.718      3.781
REMARK  Name = 
REMARK  2 active torsions:
REMARK  status: ('A' for Active; 'I' for Inactive)
REMARK    1  A    between atoms: C_2  and  O_3
REMARK    2  A    between atoms: C_2  and  C_4
REMARK                            x       y       z     vdW  Elec       q    Type
REMARK                         _______ _______ _______ _____ _____    ______ ____
ROOT
ATOM      1  C   UNL     1       3.614   3.171  19.063  0.00  0.00    +0.000 C 
ATOM      2  C   UNL     1       2.869   3.671  20.331  0.00  0.00    +0.000 C 
ATOM      3  C   UNL     1       1.817   4.785  20.103  0.00  0.00    +0.000 C 
ATOM      4  C   UNL     1       2.064   6.021  21.000  0.00  0.00    +0.000 C 
ATOM      5  C   UNL     1       1.400   7.341  20.604  0.00  0.00    +0.000 A 
ATOM      6  C   UNL     1       0.436   7.901  21.456  0.00  0.00    +0.000 A 
ATOM      7  C   UNL     1      -0.127   9.151  21.183  0.00  0.00    +0.000 A 
ATOM      8  C   UNL     1       0.261   9.861  20.051  0.00  0.00    +0.000 A 
ATOM      9  C   UNL     1       1.222   9.333  19.193  0.00  0.00    +0.000 A 
ATOM     10  C   UNL     1       1.807   8.087  19.461  0.00  0.00    +0.000 A 
ATOM     11  C   UNL     1       2.865   7.506  18.569  0.00  0.00    +0.000 C 
ATOM     12  C   UNL     1       3.411   8.210  17.336  0.00  0.00    +0.000 C 
ATOM     13  C   UNL     1       4.377   7.307  16.527  0.00  0.00    +0.000 C 
ATOM     14  C   UNL     1       5.140   6.218  17.302  0.00  0.00    +0.000 C 
ATOM     15  N   UNL     1       4.275   5.121  17.729  0.00  0.00    +0.000 N 
ATOM     16  C   UNL     1       4.685   4.158  18.618  0.00  0.00    +0.000 C 
ATOM     17  O   UNL     1       5.842   4.081  19.026  0.00  0.00    +0.000 OA
ATOM     18  H   UNL     1       3.397   4.989  17.242  0.00  0.00    +0.000 HD
ENDROOT
BRANCH   1  20
ATOM     19  O   UNL     1       3.753   0.797  18.675  0.00  0.00    +0.000 OA
ATOM     20  C   UNL     1       4.149   1.768  19.318  0.00  0.00    +0.000 C 
BRANCH  20  21
ATOM     21  O   UNL     1       5.087   1.615  20.272  0.00  0.00    +0.000 OA
ATOM     22  H   UNL     1       5.314   0.676  20.490  0.00  0.00    +0.000 HD
ENDBRANCH  20  21
ENDBRANCH   1  20
TORSDOF 2
ENDMDL
MODEL 5
REMARK VINA RESULT:      -6.5      3.082      6.020
REMARK  Name = 
REMARK  2 active torsions:
REMARK  status: ('A' for Active; 'I' for Inactive)
REMARK    1  A    between atoms: C_2  and  O_3
REMARK    2  A    between atoms: C_2  and  C_4
REMARK                            x       y       z     vdW  Elec       q    Type
REMARK                         _______ _______ _______ _____ _____    ______ ____
ROOT
ATOM      1  C   UNL     1       1.590   6.712  20.020  0.00  0.00    +0.000 C 
ATOM      2  C   UNL     1       2.851   7.364  19.388  0.00  0.00    +0.000 C 
ATOM      3  C   UNL     1       3.226   6.873  17.968  0.00  0.00    +0.000 C 
ATOM      4  C   UNL     1       4.689   6.375  17.885  0.00  0.00    +0.000 C 
ATOM      5  C   UNL     1       5.078   5.481  16.706  0.00  0.00    +0.000 A 
ATOM      6  C   UNL     1       6.019   5.951  15.777  0.00  0.00    +0.000 A 
ATOM      7  C   UNL     1       6.476   5.133  14.739  0.00  0.00    +0.000 A 
ATOM      8  C   UNL     1       5.997   3.833  14.610  0.00  0.00    +0.000 A 
ATOM      9  C   UNL     1       5.070   3.338  15.524  0.00  0.00    +0.000 A 
ATOM     10  C   UNL     1       4.613   4.141  16.579  0.00  0.00    +0.000 A 
ATOM     11  C   UNL     1       3.636   3.625  17.595  0.00  0.00    +0.000 C 
ATOM     12  C   UNL     1       3.084   2.207  17.593  0.00  0.00    +0.000 C 
ATOM     13  C   UNL     1       1.981   2.009  18.663  0.00  0.00    +0.000 C 
ATOM     14  C   UNL     1       2.040   2.905  19.913  0.00  0.00    +0.000 C 
ATOM     15  N   UNL     1       1.685   4.292  19.628  0.00  0.00    +0.000 N 
ATOM     16  C   UNL     1       1.883   5.308  20.531  0.00  0.00    +0.000 C 
ATOM     17  O   UNL     1       2.261   5.107  21.683  0.00  0.00    +0.000 OA
ATOM     18  H   UNL     1       1.145   4.484  18.793  0.00  0.00    +0.000 HD
ENDROOT
BRANCH   1  20
ATOM     19  O   UNL     1      -0.183   7.816  21.223  0.00  0.00    +0.000 OA
ATOM     20  C   UNL     1       1.028   7.642  21.087  0.00  0.00    +0.000 C 
BRANCH  20  21
ATOM     21  O   UNL     1       1.901   8.271  21.897  0.00  0.00    +0.000 OA
ATOM     22  H   UNL     1       1.908   9.259  21.819  0.00  0.00    +0.000 HD
ENDBRANCH  20  21
ENDBRANCH   1  20
TORSDOF 2
ENDMDL
MODEL 6
REMARK VINA RESULT:      -6.2      3.628      6.149
REMARK  Name = 
REMARK  2 active torsions:
REMARK  status: ('A' for Active; 'I' for Inactive)
REMARK    1  A    between atoms: C_2  and  O_3
REMARK    2  A    between atoms: C_2  and  C_4
REMARK                            x       y       z     vdW  Elec       q    Type
REMARK                         _______ _______ _______ _____ _____    ______ ____
ROOT
ATOM      1  C   UNL     1       0.947   8.794  19.524  0.00  0.00    +0.000 C 
ATOM      2  C   UNL     1       2.100   9.164  18.551  0.00  0.00    +0.000 C 
ATOM      3  C   UNL     1       2.461   8.092  17.493  0.00  0.00    +0.000 C 
ATOM      4  C   UNL     1       3.964   7.723  17.518  0.00  0.00    +0.000 C 
ATOM      5  C   UNL     1       4.393   6.411  16.860  0.00  0.00    +0.000 A 
ATOM      6  C   UNL     1       5.235   6.456  15.737  0.00  0.00    +0.000 A 
ATOM      7  C   UNL     1       5.730   5.283  15.161  0.00  0.00    +0.000 A 
ATOM      8  C   UNL     1       5.389   4.044  15.694  0.00  0.00    +0.000 A 
ATOM      9  C   UNL     1       4.563   3.970  16.813  0.00  0.00    +0.000 A 
ATOM     10  C   UNL     1       4.070   5.139  17.411  0.00  0.00    +0.000 A 
ATOM     11  C   UNL     1       3.202   5.091  18.634  0.00  0.00    +0.000 C 
ATOM     12  C   UNL     1       2.807   3.802  19.341  0.00  0.00    +0.000 C 
ATOM     13  C   UNL     1       1.781   4.050  20.476  0.00  0.00    +0.000 C 
ATOM     14  C   UNL     1       1.800   5.430  21.156  0.00  0.00    +0.000 C 
ATOM     15  N   UNL     1       1.284   6.489  20.293  0.00  0.00    +0.000 N 
ATOM     16  C   UNL     1       1.412   7.822  20.600  0.00  0.00    +0.000 C 
ATOM     17  O   UNL     1       1.862   8.215  21.674  0.00  0.00    +0.000 OA
ATOM     18  H   UNL     1       0.689   6.225  19.518  0.00  0.00    +0.000 HD
ENDROOT
BRANCH   1  20
ATOM     19  O   UNL     1      -0.818  10.408  19.823  0.00  0.00    +0.000 OA
ATOM     20  C   UNL     1       0.337  10.073  20.085  0.00  0.00    +0.000 C 
BRANCH  20  21
ATOM     21  O   UNL     1       1.100  10.834  20.892  0.00  0.00    +0.000 OA
ATOM     22  H   UNL     1       1.749  11.419  20.426  0.00  0.00    +0.000 HD
ENDBRANCH  20  21
ENDBRANCH   1  20
TORSDOF 2
ENDMDL
MODEL 7
REMARK VINA RESULT:      -6.2      3.086      6.128
REMARK  Name = 
REMARK  2 active torsions:
REMARK  status: ('A' for Active; 'I' for Inactive)
REMARK    1  A    between atoms: C_2  and  O_3
REMARK    2  A    between atoms: C_2  and  C_4
REMARK                            x       y       z     vdW  Elec       q    Type
REMARK                         _______ _______ _______ _____ _____    ______ ____
ROOT
ATOM      1  C   UNL     1       2.788   3.402  20.825  0.00  0.00    +0.000 C 
ATOM      2  C   UNL     1       3.377   2.510  19.698  0.00  0.00    +0.000 C 
ATOM      3  C   UNL     1       4.510   3.145  18.855  0.00  0.00    +0.000 C 
ATOM      4  C   UNL     1       4.210   3.103  17.337  0.00  0.00    +0.000 C 
ATOM      5  C   UNL     1       4.993   4.046  16.422  0.00  0.00    +0.000 A 
ATOM      6  C   UNL     1       5.860   3.499  15.463  0.00  0.00    +0.000 A 
ATOM      7  C   UNL     1       6.522   4.317  14.543  0.00  0.00    +0.000 A 
ATOM      8  C   UNL     1       6.335   5.695  14.569  0.00  0.00    +0.000 A 
ATOM      9  C   UNL     1       5.474   6.264  15.506  0.00  0.00    +0.000 A 
ATOM     10  C   UNL     1       4.791   5.455  16.426  0.00  0.00    +0.000 A 
ATOM     11  C   UNL     1       3.836   6.037  17.426  0.00  0.00    +0.000 C 
ATOM     12  C   UNL     1       3.505   7.520  17.517  0.00  0.00    +0.000 C 
ATOM     13  C   UNL     1       2.613   7.845  18.742  0.00  0.00    +0.000 C 
ATOM     14  C   UNL     1       1.691   6.727  19.261  0.00  0.00    +0.000 C 
ATOM     15  N   UNL     1       2.427   5.656  19.927  0.00  0.00    +0.000 N 
ATOM     16  C   UNL     1       1.845   4.459  20.267  0.00  0.00    +0.000 C 
ATOM     17  O   UNL     1       0.640   4.249  20.145  0.00  0.00    +0.000 OA
ATOM     18  H   UNL     1       3.355   5.860  20.276  0.00  0.00    +0.000 HD
ENDROOT
BRANCH   1  20
ATOM     19  O   UNL     1       2.767   1.596  22.421  0.00  0.00    +0.000 OA
ATOM     20  C   UNL     1       2.147   2.512  21.882  0.00  0.00    +0.000 C 
BRANCH  20  21
ATOM     21  O   UNL     1       0.869   2.762  22.225  0.00  0.00    +0.000 OA
ATOM     22  H   UNL     1       0.207   2.111  21.879  0.00  0.00    +0.000 HD
ENDBRANCH  20  21
ENDBRANCH   1  20
TORSDOF 2
ENDMDL
MODEL 8
REMARK VINA RESULT:      -6.0      9.738     11.779
REMARK  Name = 
REMARK  2 active torsions:
REMARK  status: ('A' for Active; 'I' for Inactive)
REMARK    1  A    between atoms: C_2  and  O_3
REMARK    2  A    between atoms: C_2  and  C_4
REMARK                            x       y       z     vdW  Elec       q    Type
REMARK                         _______ _______ _______ _____ _____    ______ ____
ROOT
ATOM      1  C   UNL     1      -3.429  14.006  22.856  0.00  0.00    +0.000 C 
ATOM      2  C   UNL     1      -2.291  13.335  22.039  0.00  0.00    +0.000 C 
ATOM      3  C   UNL     1      -2.478  13.324  20.501  0.00  0.00    +0.000 C 
ATOM      4  C   UNL     1      -2.365  11.901  19.904  0.00  0.00    +0.000 C 
ATOM      5  C   UNL     1      -2.938  11.659  18.507  0.00  0.00    +0.000 A 
ATOM      6  C   UNL     1      -2.066  11.309  17.464  0.00  0.00    +0.000 A 
ATOM      7  C   UNL     1      -2.554  10.986  16.196  0.00  0.00    +0.000 A 
ATOM      8  C   UNL     1      -3.923  11.012  15.944  0.00  0.00    +0.000 A 
ATOM      9  C   UNL     1      -4.812  11.347  16.964  0.00  0.00    +0.000 A 
ATOM     10  C   UNL     1      -4.338  11.660  18.246  0.00  0.00    +0.000 A 
ATOM     11  C   UNL     1      -5.273  11.996  19.370  0.00  0.00    +0.000 C 
ATOM     12  C   UNL     1      -6.789  12.003  19.235  0.00  0.00    +0.000 C 
ATOM     13  C   UNL     1      -7.486  12.539  20.511  0.00  0.00    +0.000 C 
ATOM     14  C   UNL     1      -6.745  12.363  21.848  0.00  0.00    +0.000 C 
ATOM     15  N   UNL     1      -5.583  13.240  21.966  0.00  0.00    +0.000 N 
ATOM     16  C   UNL     1      -4.648  13.101  22.963  0.00  0.00    +0.000 C 
ATOM     17  O   UNL     1      -4.784  12.309  23.893  0.00  0.00    +0.000 OA
ATOM     18  H   UNL     1      -5.545  14.064  21.378  0.00  0.00    +0.000 HD
ENDROOT
BRANCH   1  20
ATOM     19  O   UNL     1      -1.670  14.534  24.417  0.00  0.00    +0.000 OA
ATOM     20  C   UNL     1      -2.880  14.449  24.206  0.00  0.00    +0.000 C 
BRANCH  20  21
ATOM     21  O   UNL     1      -3.763  14.759  25.174  0.00  0.00    +0.000 OA
ATOM     22  H   UNL     1      -4.696  14.886  24.865  0.00  0.00    +0.000 HD
ENDBRANCH  20  21
ENDBRANCH   1  20
TORSDOF 2
ENDMDL
MODEL 9
REMARK VINA RESULT:      -6.0      8.729     10.448
REMARK  Name = 
REMARK  2 active torsions:
REMARK  status: ('A' for Active; 'I' for Inactive)
REMARK    1  A    between atoms: C_2  and  O_3
REMARK    2  A    between atoms: C_2  and  C_4
REMARK                            x       y       z     vdW  Elec       q    Type
REMARK                         _______ _______ _______ _____ _____    ______ ____
ROOT
ATOM      1  C   UNL     1      -3.527  10.903  17.552  0.00  0.00    +0.000 C 
ATOM      2  C   UNL     1      -2.448  11.812  18.201  0.00  0.00    +0.000 C 
ATOM      3  C   UNL     1      -2.409  11.815  19.750  0.00  0.00    +0.000 C 
ATOM      4  C   UNL     1      -2.510  13.242  20.339  0.00  0.00    +0.000 C 
ATOM      5  C   UNL     1      -2.912  13.387  21.807  0.00  0.00    +0.000 A 
ATOM      6  C   UNL     1      -1.990  13.932  22.715  0.00  0.00    +0.000 A 
ATOM      7  C   UNL     1      -2.347  14.172  24.045  0.00  0.00    +0.000 A 
ATOM      8  C   UNL     1      -3.629  13.867  24.493  0.00  0.00    +0.000 A 
ATOM      9  C   UNL     1      -4.566  13.334  23.611  0.00  0.00    +0.000 A 
ATOM     10  C   UNL     1      -4.228  13.101  22.270  0.00  0.00    +0.000 A 
ATOM     11  C   UNL     1      -5.226  12.555  21.291  0.00  0.00    +0.000 C 
ATOM     12  C   UNL     1      -6.671  12.237  21.645  0.00  0.00    +0.000 C 
ATOM     13  C   UNL     1      -7.418  11.542  20.478  0.00  0.00    +0.000 C 
ATOM     14  C   UNL     1      -6.931  11.841  19.049  0.00  0.00    +0.000 C 
ATOM     15  N   UNL     1      -5.642  11.222  18.754  0.00  0.00    +0.000 N 
ATOM     16  C   UNL     1      -4.911  11.533  17.633  0.00  0.00    +0.000 C 
ATOM     17  O   UNL     1      -5.342  12.260  16.741  0.00  0.00    +0.000 OA
ATOM     18  H   UNL     1      -5.348  10.437  19.321  0.00  0.00    +0.000 HD
ENDROOT
BRANCH   1  20
ATOM     19  O   UNL     1      -2.747   9.420  15.820  0.00  0.00    +0.000 OA
ATOM     20  C   UNL     1      -3.099  10.557  16.131  0.00  0.00    +0.000 C 
BRANCH  20  21
ATOM     21  O   UNL     1      -3.127  11.538  15.208  0.00  0.00    +0.000 OA
ATOM     22  H   UNL     1      -2.243  11.792  14.841  0.00  0.00    +0.000 HD
ENDBRANCH  20  21
ENDBRANCH   1  20
TORSDOF 2
ENDMDL
