MODEL 1
REMARK VINA RESULT:      -7.5      0.000      0.000
REMARK  Name = 
REMARK  4 active torsions:
REMARK  status: ('A' for Active; 'I' for Inactive)
REMARK    1  A    between atoms: C_1  and  N_2
REMARK    2  A    between atoms: C_6  and  C_7
REMARK    3  A    between atoms: N_14  and  C_15
REMARK    4  A    between atoms: C_15  and  C_16
REMARK                            x       y       z     vdW  Elec       q    Type
REMARK                         _______ _______ _______ _____ _____    ______ ____
ROOT
ATOM      1  C   UNL     1       3.004   4.871  18.793  0.00  0.00    +0.000 C 
ATOM      2  C   UNL     1       4.258   4.629  18.364  0.00  0.00    +0.000 C 
ATOM      3  C   UNL     1       5.155   3.598  18.931  0.00  0.00    +0.000 C 
ATOM      4  O   UNL     1       4.789   2.605  19.546  0.00  0.00    +0.000 OA
ATOM      5  N   UNL     1       6.474   3.792  18.648  0.00  0.00    +0.000 N 
ATOM      6  C   UNL     1       6.995   4.574  17.659  0.00  0.00    +0.000 C 
ATOM      7  O   UNL     1       8.198   4.499  17.421  0.00  0.00    +0.000 OA
ATOM      8  N   UNL     1       6.106   5.353  16.947  0.00  0.00    +0.000 N 
ATOM      9  C   UNL     1       4.753   5.460  17.232  0.00  0.00    +0.000 C 
ATOM     10  O   UNL     1       3.983   6.167  16.581  0.00  0.00    +0.000 OA
ATOM     11  H   UNL     1       7.111   3.110  19.037  0.00  0.00    +0.000 HD
ENDROOT
BRANCH   1  17
ATOM     12  C   UNL     1       1.378   2.417  18.423  0.00  0.00    +0.000 C 
ATOM     13  N   UNL     1       1.618   3.087  19.685  0.00  0.00    +0.000 N 
ATOM     14  C   UNL     1       1.100   2.665  20.885  0.00  0.00    +0.000 A 
ATOM     15  C   UNL     1       1.559   3.517  21.868  0.00  0.00    +0.000 A 
ATOM     16  C   UNL     1       2.369   4.490  21.239  0.00  0.00    +0.000 A 
ATOM     17  C   UNL     1       2.393   4.209  19.886  0.00  0.00    +0.000 A 
ENDBRANCH   1  17
BRANCH   8  18
ATOM     18  C   UNL     1       6.611   6.050  15.771  0.00  0.00    +0.000 C 
BRANCH  18  19
ATOM     19  C   UNL     1       6.559   5.192  14.557  0.00  0.00    +0.000 A 
ATOM     20  C   UNL     1       5.785   4.107  14.195  0.00  0.00    +0.000 A 
ATOM     21  C   UNL     1       6.298   3.643  12.960  0.00  0.00    +0.000 A 
ATOM     22  C   UNL     1       7.338   4.483  12.637  0.00  0.00    +0.000 A 
ATOM     23  O   UNL     1       7.500   5.429  13.598  0.00  0.00    +0.000 OA
ENDBRANCH  18  19
ENDBRANCH   8  18
TORSDOF 3
ENDMDL
MODEL 2
REMARK VINA RESULT:      -7.3      0.968      1.488
REMARK  Name = 
REMARK  4 active torsions:
REMARK  status: ('A' for Active; 'I' for Inactive)
REMARK    1  A    between atoms: C_1  and  N_2
REMARK    2  A    between atoms: C_6  and  C_7
REMARK    3  A    between atoms: N_14  and  C_15
REMARK    4  A    between atoms: C_15  and  C_16
REMARK                            x       y       z     vdW  Elec       q    Type
REMARK                         _______ _______ _______ _____ _____    ______ ____
ROOT
ATOM      1  C   UNL     1       2.928   4.972  17.712  0.00  0.00    +0.000 C 
ATOM      2  C   UNL     1       4.235   4.652  17.638  0.00  0.00    +0.000 C 
ATOM      3  C   UNL     1       4.905   3.656  18.501  0.00  0.00    +0.000 C 
ATOM      4  O   UNL     1       4.345   2.739  19.088  0.00  0.00    +0.000 OA
ATOM      5  N   UNL     1       6.262   3.783  18.546  0.00  0.00    +0.000 N 
ATOM      6  C   UNL     1       7.054   4.448  17.657  0.00  0.00    +0.000 C 
ATOM      7  O   UNL     1       8.273   4.315  17.739  0.00  0.00    +0.000 OA
ATOM      8  N   UNL     1       6.413   5.180  16.678  0.00  0.00    +0.000 N 
ATOM      9  C   UNL     1       5.040   5.354  16.600  0.00  0.00    +0.000 C 
ATOM     10  O   UNL     1       4.496   6.016  15.716  0.00  0.00    +0.000 OA
ATOM     11  H   UNL     1       6.744   3.124  19.142  0.00  0.00    +0.000 HD
ENDROOT
BRANCH   1  17
ATOM     12  C   UNL     1       2.342   6.375  20.259  0.00  0.00    +0.000 C 
ATOM     13  N   UNL     1       1.797   5.095  19.857  0.00  0.00    +0.000 N 
ATOM     14  C   UNL     1       0.934   4.355  20.628  0.00  0.00    +0.000 A 
ATOM     15  C   UNL     1       0.600   3.219  19.921  0.00  0.00    +0.000 A 
ATOM     16  C   UNL     1       1.292   3.270  18.689  0.00  0.00    +0.000 A 
ATOM     17  C   UNL     1       2.030   4.439  18.668  0.00  0.00    +0.000 A 
ENDBRANCH   1  17
BRANCH   8  18
ATOM     18  C   UNL     1       7.232   5.744  15.612  0.00  0.00    +0.000 C 
BRANCH  18  19
ATOM     19  C   UNL     1       7.026   5.031  14.323  0.00  0.00    +0.000 A 
ATOM     20  C   UNL     1       6.302   3.912  13.963  0.00  0.00    +0.000 A 
ATOM     21  C   UNL     1       6.606   3.656  12.605  0.00  0.00    +0.000 A 
ATOM     22  C   UNL     1       7.480   4.644  12.216  0.00  0.00    +0.000 A 
ATOM     23  O   UNL     1       7.736   5.486  13.250  0.00  0.00    +0.000 OA
ENDBRANCH  18  19
ENDBRANCH   8  18
TORSDOF 3
ENDMDL
MODEL 3
REMARK VINA RESULT:      -7.1      1.237      2.103
REMARK  Name = 
REMARK  4 active torsions:
REMARK  status: ('A' for Active; 'I' for Inactive)
REMARK    1  A    between atoms: C_1  and  N_2
REMARK    2  A    between atoms: C_6  and  C_7
REMARK    3  A    between atoms: N_14  and  C_15
REMARK    4  A    between atoms: C_15  and  C_16
REMARK                            x       y       z     vdW  Elec       q    Type
REMARK                         _______ _______ _______ _____ _____    ______ ____
ROOT
ATOM      1  C   UNL     1       4.228   3.422  19.395  0.00  0.00    +0.000 C 
ATOM      2  C   UNL     1       4.432   4.495  18.606  0.00  0.00    +0.000 C 
ATOM      3  C   UNL     1       3.494   5.632  18.476  0.00  0.00    +0.000 C 
ATOM      4  O   UNL     1       2.654   5.952  19.307  0.00  0.00    +0.000 OA
ATOM      5  N   UNL     1       3.682   6.382  17.353  0.00  0.00    +0.000 N 
ATOM      6  C   UNL     1       4.798   6.422  16.570  0.00  0.00    +0.000 C 
ATOM      7  O   UNL     1       4.876   7.285  15.699  0.00  0.00    +0.000 OA
ATOM      8  N   UNL     1       5.798   5.517  16.864  0.00  0.00    +0.000 N 
ATOM      9  C   UNL     1       5.701   4.525  17.828  0.00  0.00    +0.000 C 
ATOM     10  O   UNL     1       6.610   3.729  18.066  0.00  0.00    +0.000 OA
ATOM     11  H   UNL     1       3.044   7.156  17.232  0.00  0.00    +0.000 HD
ENDROOT
BRANCH   1  17
ATOM     12  C   UNL     1       1.740   2.346  18.190  0.00  0.00    +0.000 C 
ATOM     13  N   UNL     1       1.905   2.735  19.575  0.00  0.00    +0.000 N 
ATOM     14  C   UNL     1       0.906   2.664  20.514  0.00  0.00    +0.000 A 
ATOM     15  C   UNL     1       1.427   3.082  21.721  0.00  0.00    +0.000 A 
ATOM     16  C   UNL     1       2.779   3.429  21.499  0.00  0.00    +0.000 A 
ATOM     17  C   UNL     1       3.059   3.209  20.164  0.00  0.00    +0.000 A 
ENDBRANCH   1  17
BRANCH   8  18
ATOM     18  C   UNL     1       7.068   5.665  16.165  0.00  0.00    +0.000 C 
BRANCH  18  19
ATOM     19  C   UNL     1       7.011   5.094  14.792  0.00  0.00    +0.000 A 
ATOM     20  C   UNL     1       6.289   4.064  14.223  0.00  0.00    +0.000 A 
ATOM     21  C   UNL     1       6.770   3.920  12.899  0.00  0.00    +0.000 A 
ATOM     22  C   UNL     1       7.741   4.880  12.738  0.00  0.00    +0.000 A 
ATOM     23  O   UNL     1       7.890   5.601  13.880  0.00  0.00    +0.000 OA
ENDBRANCH  18  19
ENDBRANCH   8  18
TORSDOF 3
ENDMDL
MODEL 4
REMARK VINA RESULT:      -7.1      1.198      1.398
REMARK  Name = 
REMARK  4 active torsions:
REMARK  status: ('A' for Active; 'I' for Inactive)
REMARK    1  A    between atoms: C_1  and  N_2
REMARK    2  A    between atoms: C_6  and  C_7
REMARK    3  A    between atoms: N_14  and  C_15
REMARK    4  A    between atoms: C_15  and  C_16
REMARK                            x       y       z     vdW  Elec       q    Type
REMARK                         _______ _______ _______ _____ _____    ______ ____
ROOT
ATOM      1  C   UNL     1       3.426   5.862  17.917  0.00  0.00    +0.000 C 
ATOM      2  C   UNL     1       4.622   5.287  17.686  0.00  0.00    +0.000 C 
ATOM      3  C   UNL     1       5.175   4.159  18.467  0.00  0.00    +0.000 C 
ATOM      4  O   UNL     1       4.515   3.362  19.120  0.00  0.00    +0.000 OA
ATOM      5  N   UNL     1       6.525   4.009  18.347  0.00  0.00    +0.000 N 
ATOM      6  C   UNL     1       7.324   4.519  17.366  0.00  0.00    +0.000 C 
ATOM      7  O   UNL     1       8.491   4.141  17.301  0.00  0.00    +0.000 OA
ATOM      8  N   UNL     1       6.732   5.384  16.468  0.00  0.00    +0.000 N 
ATOM      9  C   UNL     1       5.423   5.833  16.556  0.00  0.00    +0.000 C 
ATOM     10  O   UNL     1       4.924   6.609  15.742  0.00  0.00    +0.000 OA
ATOM     11  H   UNL     1       6.931   3.253  18.883  0.00  0.00    +0.000 HD
ENDROOT
BRANCH   1  17
ATOM     12  C   UNL     1       1.466   3.652  17.647  0.00  0.00    +0.000 C 
ATOM     13  N   UNL     1       1.636   4.489  18.816  0.00  0.00    +0.000 N 
ATOM     14  C   UNL     1       0.885   4.367  19.960  0.00  0.00    +0.000 A 
ATOM     15  C   UNL     1       1.340   5.300  20.868  0.00  0.00    +0.000 A 
ATOM     16  C   UNL     1       2.390   6.016  20.247  0.00  0.00    +0.000 A 
ATOM     17  C   UNL     1       2.558   5.501  18.976  0.00  0.00    +0.000 A 
ENDBRANCH   1  17
BRANCH   8  18
ATOM     18  C   UNL     1       7.516   5.793  15.309  0.00  0.00    +0.000 C 
BRANCH  18  19
ATOM     19  C   UNL     1       7.205   4.965  14.114  0.00  0.00    +0.000 A 
ATOM     20  C   UNL     1       7.552   5.056  12.780  0.00  0.00    +0.000 A 
ATOM     21  C   UNL     1       6.837   4.035  12.108  0.00  0.00    +0.000 A 
ATOM     22  C   UNL     1       6.114   3.375  13.074  0.00  0.00    +0.000 A 
ATOM     23  O   UNL     1       6.335   3.929  14.294  0.00  0.00    +0.000 OA
ENDBRANCH  18  19
ENDBRANCH   8  18
TORSDOF 3
ENDMDL
MODEL 5
REMARK VINA RESULT:      -7.0      2.151      3.323
REMARK  Name = 
REMARK  4 active torsions:
REMARK  status: ('A' for Active; 'I' for Inactive)
REMARK    1  A    between atoms: C_1  and  N_2
REMARK    2  A    between atoms: C_6  and  C_7
REMARK    3  A    between atoms: N_14  and  C_15
REMARK    4  A    between atoms: C_15  and  C_16
REMARK                            x       y       z     vdW  Elec       q    Type
REMARK                         _______ _______ _______ _____ _____    ______ ____
ROOT
ATOM      1  C   UNL     1       3.212   5.474  19.125  0.00  0.00    +0.000 C 
ATOM      2  C   UNL     1       4.413   5.152  18.606  0.00  0.00    +0.000 C 
ATOM      3  C   UNL     1       5.038   3.815  18.702  0.00  0.00    +0.000 C 
ATOM      4  O   UNL     1       4.436   2.766  18.887  0.00  0.00    +0.000 OA
ATOM      5  N   UNL     1       6.385   3.814  18.487  0.00  0.00    +0.000 N 
ATOM      6  C   UNL     1       7.118   4.785  17.872  0.00  0.00    +0.000 C 
ATOM      7  O   UNL     1       8.292   4.551  17.595  0.00  0.00    +0.000 OA
ATOM      8  N   UNL     1       6.457   5.951  17.544  0.00  0.00    +0.000 N 
ATOM      9  C   UNL     1       5.141   6.229  17.879  0.00  0.00    +0.000 C 
ATOM     10  O   UNL     1       4.578   7.281  17.576  0.00  0.00    +0.000 OA
ATOM     11  H   UNL     1       6.840   2.915  18.563  0.00  0.00    +0.000 HD
ENDROOT
BRANCH   1  17
ATOM     12  C   UNL     1       1.175   3.731  17.855  0.00  0.00    +0.000 C 
ATOM     13  N   UNL     1       1.449   3.811  19.275  0.00  0.00    +0.000 N 
ATOM     14  C   UNL     1       0.775   3.083  20.226  0.00  0.00    +0.000 A 
ATOM     15  C   UNL     1       1.319   3.387  21.456  0.00  0.00    +0.000 A 
ATOM     16  C   UNL     1       2.343   4.337  21.242  0.00  0.00    +0.000 A 
ATOM     17  C   UNL     1       2.409   4.589  19.885  0.00  0.00    +0.000 A 
ENDBRANCH   1  17
BRANCH   8  18
ATOM     18  C   UNL     1       7.169   6.923  16.724  0.00  0.00    +0.000 C 
BRANCH  18  19
ATOM     19  C   UNL     1       7.737   8.027  17.544  0.00  0.00    +0.000 A 
ATOM     20  C   UNL     1       7.774   9.399  17.393  0.00  0.00    +0.000 A 
ATOM     21  C   UNL     1       8.572   9.898  18.450  0.00  0.00    +0.000 A 
ATOM     22  C   UNL     1       8.956   8.804  19.189  0.00  0.00    +0.000 A 
ATOM     23  O   UNL     1       8.450   7.665  18.650  0.00  0.00    +0.000 OA
ENDBRANCH  18  19
ENDBRANCH   8  18
TORSDOF 3
ENDMDL
MODEL 6
REMARK VINA RESULT:      -7.0      4.856      7.244
REMARK  Name = 
REMARK  4 active torsions:
REMARK  status: ('A' for Active; 'I' for Inactive)
REMARK    1  A    between atoms: C_1  and  N_2
REMARK    2  A    between atoms: C_6  and  C_7
REMARK    3  A    between atoms: N_14  and  C_15
REMARK    4  A    between atoms: C_15  and  C_16
REMARK                            x       y       z     vdW  Elec       q    Type
REMARK                         _______ _______ _______ _____ _____    ______ ____
ROOT
ATOM      1  C   UNL     1       2.532   6.119  17.693  0.00  0.00    +0.000 C 
ATOM      2  C   UNL     1       2.238   6.886  18.761  0.00  0.00    +0.000 C 
ATOM      3  C   UNL     1       2.210   6.402  20.158  0.00  0.00    +0.000 C 
ATOM      4  O   UNL     1       2.806   5.418  20.577  0.00  0.00    +0.000 OA
ATOM      5  N   UNL     1       1.506   7.202  21.009  0.00  0.00    +0.000 N 
ATOM      6  C   UNL     1       1.154   8.504  20.809  0.00  0.00    +0.000 C 
ATOM      7  O   UNL     1       0.680   9.138  21.749  0.00  0.00    +0.000 OA
ATOM      8  N   UNL     1       1.423   9.038  19.565  0.00  0.00    +0.000 N 
ATOM      9  C   UNL     1       1.933   8.319  18.495  0.00  0.00    +0.000 C 
ATOM     10  O   UNL     1       2.160   8.822  17.395  0.00  0.00    +0.000 OA
ATOM     11  H   UNL     1       1.458   6.886  21.968  0.00  0.00    +0.000 HD
ENDROOT
BRANCH   1  17
ATOM     12  C   UNL     1       5.300   5.066  17.865  0.00  0.00    +0.000 C 
ATOM     13  N   UNL     1       4.095   4.264  17.807  0.00  0.00    +0.000 N 
ATOM     14  C   UNL     1       4.089   2.891  17.812  0.00  0.00    +0.000 A 
ATOM     15  C   UNL     1       2.776   2.471  17.779  0.00  0.00    +0.000 A 
ATOM     16  C   UNL     1       1.964   3.628  17.741  0.00  0.00    +0.000 A 
ATOM     17  C   UNL     1       2.798   4.730  17.757  0.00  0.00    +0.000 A 
ENDBRANCH   1  17
BRANCH   8  18
ATOM     18  C   UNL     1       1.228  10.472  19.390  0.00  0.00    +0.000 C 
BRANCH  18  19
ATOM     19  C   UNL     1      -0.186  10.800  19.066  0.00  0.00    +0.000 A 
ATOM     20  C   UNL     1      -1.059  10.370  18.086  0.00  0.00    +0.000 A 
ATOM     21  C   UNL     1      -2.233  11.148  18.223  0.00  0.00    +0.000 A 
ATOM     22  C   UNL     1      -2.012  11.990  19.288  0.00  0.00    +0.000 A 
ATOM     23  O   UNL     1      -0.774  11.782  19.808  0.00  0.00    +0.000 OA
ENDBRANCH  18  19
ENDBRANCH   8  18
TORSDOF 3
ENDMDL
MODEL 7
REMARK VINA RESULT:      -7.0      5.097      7.394
REMARK  Name = 
REMARK  4 active torsions:
REMARK  status: ('A' for Active; 'I' for Inactive)
REMARK    1  A    between atoms: C_1  and  N_2
REMARK    2  A    between atoms: C_6  and  C_7
REMARK    3  A    between atoms: N_14  and  C_15
REMARK    4  A    between atoms: C_15  and  C_16
REMARK                            x       y       z     vdW  Elec       q    Type
REMARK                         _______ _______ _______ _____ _____    ______ ____
ROOT
ATOM      1  C   UNL     1       0.438   9.516  19.822  0.00  0.00    +0.000 C 
ATOM      2  C   UNL     1       1.439   8.819  19.251  0.00  0.00    +0.000 C 
ATOM      3  C   UNL     1       2.106   9.191  17.984  0.00  0.00    +0.000 C 
ATOM      4  O   UNL     1       2.139  10.318  17.509  0.00  0.00    +0.000 OA
ATOM      5  N   UNL     1       2.778   8.165  17.388  0.00  0.00    +0.000 N 
ATOM      6  C   UNL     1       3.187   7.002  17.971  0.00  0.00    +0.000 C 
ATOM      7  O   UNL     1       3.939   6.261  17.344  0.00  0.00    +0.000 OA
ATOM      8  N   UNL     1       2.770   6.776  19.267  0.00  0.00    +0.000 N 
ATOM      9  C   UNL     1       1.899   7.597  19.967  0.00  0.00    +0.000 C 
ATOM     10  O   UNL     1       1.541   7.367  21.122  0.00  0.00    +0.000 OA
ATOM     11  H   UNL     1       3.230   8.389  16.511  0.00  0.00    +0.000 HD
ENDROOT
BRANCH   1  17
ATOM     12  C   UNL     1       1.304  12.248  20.588  0.00  0.00    +0.000 C 
ATOM     13  N   UNL     1       0.247  11.932  19.650  0.00  0.00    +0.000 N 
ATOM     14  C   UNL     1      -0.506  12.877  18.998  0.00  0.00    +0.000 A 
ATOM     15  C   UNL     1      -1.387  12.219  18.166  0.00  0.00    +0.000 A 
ATOM     16  C   UNL     1      -1.167  10.832  18.331  0.00  0.00    +0.000 A 
ATOM     17  C   UNL     1      -0.152  10.673  19.255  0.00  0.00    +0.000 A 
ENDBRANCH   1  17
BRANCH   8  18
ATOM     18  C   UNL     1       3.344   5.636  19.971  0.00  0.00    +0.000 C 
BRANCH  18  19
ATOM     19  C   UNL     1       2.407   4.482  20.008  0.00  0.00    +0.000 A 
ATOM     20  C   UNL     1       1.621   3.867  19.054  0.00  0.00    +0.000 A 
ATOM     21  C   UNL     1       0.849   2.895  19.734  0.00  0.00    +0.000 A 
ATOM     22  C   UNL     1       1.224   2.964  21.055  0.00  0.00    +0.000 A 
ATOM     23  O   UNL     1       2.172   3.921  21.230  0.00  0.00    +0.000 OA
ENDBRANCH  18  19
ENDBRANCH   8  18
TORSDOF 3
ENDMDL
MODEL 8
REMARK VINA RESULT:      -6.8      2.291      3.808
REMARK  Name = 
REMARK  4 active torsions:
REMARK  status: ('A' for Active; 'I' for Inactive)
REMARK    1  A    between atoms: C_1  and  N_2
REMARK    2  A    between atoms: C_6  and  C_7
REMARK    3  A    between atoms: N_14  and  C_15
REMARK    4  A    between atoms: C_15  and  C_16
REMARK                            x       y       z     vdW  Elec       q    Type
REMARK                         _______ _______ _______ _____ _____    ______ ____
ROOT
ATOM      1  C   UNL     1       4.381   3.762  19.727  0.00  0.00    +0.000 C 
ATOM      2  C   UNL     1       4.548   4.753  18.830  0.00  0.00    +0.000 C 
ATOM      3  C   UNL     1       3.449   5.558  18.254  0.00  0.00    +0.000 C 
ATOM      4  O   UNL     1       2.350   5.722  18.767  0.00  0.00    +0.000 OA
ATOM      5  N   UNL     1       3.777   6.199  17.096  0.00  0.00    +0.000 N 
ATOM      6  C   UNL     1       5.032   6.463  16.631  0.00  0.00    +0.000 C 
ATOM      7  O   UNL     1       5.157   7.209  15.663  0.00  0.00    +0.000 OA
ATOM      8  N   UNL     1       6.085   5.915  17.335  0.00  0.00    +0.000 N 
ATOM      9  C   UNL     1       5.946   5.051  18.411  0.00  0.00    +0.000 C 
ATOM     10  O   UNL     1       6.905   4.574  19.017  0.00  0.00    +0.000 OA
ATOM     11  H   UNL     1       3.038   6.744  16.673  0.00  0.00    +0.000 HD
ENDROOT
BRANCH   1  17
ATOM     12  C   UNL     1       2.699   1.889  18.157  0.00  0.00    +0.000 C 
ATOM     13  N   UNL     1       2.346   2.469  19.437  0.00  0.00    +0.000 N 
ATOM     14  C   UNL     1       1.159   2.228  20.085  0.00  0.00    +0.000 A 
ATOM     15  C   UNL     1       1.180   2.915  21.280  0.00  0.00    +0.000 A 
ATOM     16  C   UNL     1       2.413   3.604  21.349  0.00  0.00    +0.000 A 
ATOM     17  C   UNL     1       3.122   3.317  20.198  0.00  0.00    +0.000 A 
ENDBRANCH   1  17
BRANCH   8  18
ATOM     18  C   UNL     1       7.432   6.333  16.968  0.00  0.00    +0.000 C 
BRANCH  18  19
ATOM     19  C   UNL     1       7.814   7.608  17.633  0.00  0.00    +0.000 A 
ATOM     20  C   UNL     1       7.662   8.937  17.294  0.00  0.00    +0.000 A 
ATOM     21  C   UNL     1       8.350   9.685  18.279  0.00  0.00    +0.000 A 
ATOM     22  C   UNL     1       8.862   8.768  19.167  0.00  0.00    +0.000 A 
ATOM     23  O   UNL     1       8.537   7.506  18.786  0.00  0.00    +0.000 OA
ENDBRANCH  18  19
ENDBRANCH   8  18
TORSDOF 3
ENDMDL
MODEL 9
REMARK VINA RESULT:      -6.8      5.148      7.212
REMARK  Name = 
REMARK  4 active torsions:
REMARK  status: ('A' for Active; 'I' for Inactive)
REMARK    1  A    between atoms: C_1  and  N_2
REMARK    2  A    between atoms: C_6  and  C_7
REMARK    3  A    between atoms: N_14  and  C_15
REMARK    4  A    between atoms: C_15  and  C_16
REMARK                            x       y       z     vdW  Elec       q    Type
REMARK                         _______ _______ _______ _____ _____    ______ ____
ROOT
ATOM      1  C   UNL     1       0.419   9.807  19.876  0.00  0.00    +0.000 C 
ATOM      2  C   UNL     1       1.386   9.061  19.308  0.00  0.00    +0.000 C 
ATOM      3  C   UNL     1       2.117   9.431  18.077  0.00  0.00    +0.000 C 
ATOM      4  O   UNL     1       2.245  10.570  17.646  0.00  0.00    +0.000 OA
ATOM      5  N   UNL     1       2.734   8.383  17.461  0.00  0.00    +0.000 N 
ATOM      6  C   UNL     1       3.041   7.173  18.010  0.00  0.00    +0.000 C 
ATOM      7  O   UNL     1       3.760   6.403  17.377  0.00  0.00    +0.000 OA
ATOM      8  N   UNL     1       2.568   6.929  19.284  0.00  0.00    +0.000 N 
ATOM      9  C   UNL     1       1.736   7.784  19.989  0.00  0.00    +0.000 C 
ATOM     10  O   UNL     1       1.326   7.538  21.124  0.00  0.00    +0.000 OA
ATOM     11  H   UNL     1       3.228   8.605  16.607  0.00  0.00    +0.000 HD
ENDROOT
BRANCH   1  17
ATOM     12  C   UNL     1      -1.753   9.860  17.856  0.00  0.00    +0.000 C 
ATOM     13  N   UNL     1      -1.060  11.019  18.378  0.00  0.00    +0.000 N 
ATOM     14  C   UNL     1      -1.321  12.308  17.983  0.00  0.00    +0.000 A 
ATOM     15  C   UNL     1      -0.501  13.149  18.707  0.00  0.00    +0.000 A 
ATOM     16  C   UNL     1       0.289  12.339  19.555  0.00  0.00    +0.000 A 
ATOM     17  C   UNL     1      -0.070  11.023  19.337  0.00  0.00    +0.000 A 
ENDBRANCH   1  17
BRANCH   8  18
ATOM     18  C   UNL     1       3.038   5.726  19.959  0.00  0.00    +0.000 C 
BRANCH  18  19
ATOM     19  C   UNL     1       2.156   4.560  19.687  0.00  0.00    +0.000 A 
ATOM     20  C   UNL     1       1.015   4.072  20.292  0.00  0.00    +0.000 A 
ATOM     21  C   UNL     1       0.708   2.851  19.646  0.00  0.00    +0.000 A 
ATOM     22  C   UNL     1       1.668   2.679  18.676  0.00  0.00    +0.000 A 
ATOM     23  O   UNL     1       2.547   3.714  18.690  0.00  0.00    +0.000 OA
ENDBRANCH  18  19
ENDBRANCH   8  18
TORSDOF 3
ENDMDL
