MODEL 1
REMARK VINA RESULT:      -5.8      0.000      0.000
REMARK  Name = 
REMARK  3 active torsions:
REMARK  status: ('A' for Active; 'I' for Inactive)
REMARK    1  A    between atoms: C_4  and  C_5
REMARK    2  A    between atoms: C_11  and  C_12
REMARK    3  A    between atoms: C_24  and  N_25
REMARK                            x       y       z     vdW  Elec       q    Type
REMARK                         _______ _______ _______ _____ _____    ______ ____
ROOT
ATOM      1  O   UNL     1      -1.540  16.336  21.068  0.00  0.00    +0.000 OA
ATOM      2  S   UNL     1      -0.843  15.570  22.083  0.00  0.00    +0.000 S 
ATOM      3  O   UNL     1       0.285  16.181  22.816  0.00  0.00    +0.000 OA
ATOM      4  C   UNL     1      -0.208  14.132  21.415  0.00  0.00    +0.000 C 
ATOM      5  C   UNL     1      -0.773  13.032  21.938  0.00  0.00    +0.000 C 
ATOM      6  C   UNL     1      -1.660  13.230  23.190  0.00  0.00    +0.000 C 
ATOM      7  C   UNL     1      -2.985  12.463  22.955  0.00  0.00    +0.000 C 
ATOM      8  C   UNL     1      -3.871  12.371  24.193  0.00  0.00    +0.000 C 
ATOM      9  C   UNL     1      -4.677  13.648  24.079  0.00  0.00    +0.000 C 
ATOM     10  C   UNL     1      -3.729  14.636  23.090  0.00  0.00    +0.000 C 
ATOM     11  C   UNL     1      -3.730  13.473  22.095  0.00  0.00    +0.000 C 
ATOM     12  C   UNL     1      -2.094  14.791  23.353  0.00  0.00    +0.000 C 
ENDROOT
BRANCH   4  13
ATOM     13  C   UNL     1       1.024  14.326  20.644  0.00  0.00    +0.000 A 
ATOM     14  C   UNL     1       2.278  14.077  21.196  0.00  0.00    +0.000 A 
ATOM     15  C   UNL     1       3.426  14.255  20.407  0.00  0.00    +0.000 A 
ATOM     16  C   UNL     1       3.315  14.674  19.080  0.00  0.00    +0.000 A 
ATOM     17  C   UNL     1       2.061  14.914  18.535  0.00  0.00    +0.000 A 
ATOM     18  C   UNL     1       0.903  14.749  19.306  0.00  0.00    +0.000 A 
ENDBRANCH   4  13
BRANCH   5  19
ATOM     19  C   UNL     1      -0.530  11.795  21.188  0.00  0.00    +0.000 A 
ATOM     20  C   UNL     1       0.356  10.844  21.656  0.00  0.00    +0.000 A 
ATOM     21  C   UNL     1       0.762   9.787  20.844  0.00  0.00    +0.000 A 
ATOM     22  C   UNL     1       0.242   9.660  19.558  0.00  0.00    +0.000 A 
ATOM     23  C   UNL     1      -0.697  10.565  19.076  0.00  0.00    +0.000 A 
ATOM     24  C   UNL     1      -1.054  11.629  19.886  0.00  0.00    +0.000 A 
ENDBRANCH   5  19
BRANCH  12  25
ATOM     25  N   UNL     1      -1.897  15.750  24.502  0.00  0.00    +0.000 NA
ATOM     26  C   UNL     1      -2.851  16.893  24.632  0.00  0.00    +0.000 C 
ATOM     27  C   UNL     1      -1.934  17.791  25.442  0.00  0.00    +0.000 C 
ATOM     28  C   UNL     1      -1.241  16.808  26.392  0.00  0.00    +0.000 C 
ATOM     29  C   UNL     1      -1.609  15.413  25.875  0.00  0.00    +0.000 C 
ENDBRANCH  12  25
TORSDOF 3
ENDMDL
MODEL 2
REMARK VINA RESULT:      -5.8      8.653     10.364
REMARK  Name = 
REMARK  3 active torsions:
REMARK  status: ('A' for Active; 'I' for Inactive)
REMARK    1  A    between atoms: C_4  and  C_5
REMARK    2  A    between atoms: C_11  and  C_12
REMARK    3  A    between atoms: C_24  and  N_25
REMARK                            x       y       z     vdW  Elec       q    Type
REMARK                         _______ _______ _______ _____ _____    ______ ____
ROOT
ATOM      1  O   UNL     1       7.478  16.536  21.362  0.00  0.00    +0.000 OA
ATOM      2  S   UNL     1       8.744  16.091  21.910  0.00  0.00    +0.000 S 
ATOM      3  O   UNL     1       9.744  17.087  22.346  0.00  0.00    +0.000 OA
ATOM      4  C   UNL     1       9.567  15.101  20.788  0.00  0.00    +0.000 C 
ATOM      5  C   UNL     1       9.707  13.839  21.225  0.00  0.00    +0.000 C 
ATOM      6  C   UNL     1       9.365  13.572  22.709  0.00  0.00    +0.000 C 
ATOM      7  C   UNL     1       8.449  12.324  22.764  0.00  0.00    +0.000 C 
ATOM      8  C   UNL     1       8.212  11.796  24.176  0.00  0.00    +0.000 C 
ATOM      9  C   UNL     1       7.006  12.609  24.599  0.00  0.00    +0.000 C 
ATOM     10  C   UNL     1       7.052  13.959  23.584  0.00  0.00    +0.000 C 
ATOM     11  C   UNL     1       7.109  12.961  22.424  0.00  0.00    +0.000 C 
ATOM     12  C   UNL     1       8.472  14.785  23.327  0.00  0.00    +0.000 C 
ENDROOT
BRANCH   4  13
ATOM     13  C   UNL     1      10.236  15.845  19.715  0.00  0.00    +0.000 A 
ATOM     14  C   UNL     1      11.604  16.102  19.748  0.00  0.00    +0.000 A 
ATOM     15  C   UNL     1      12.200  16.798  18.685  0.00  0.00    +0.000 A 
ATOM     16  C   UNL     1      11.434  17.225  17.600  0.00  0.00    +0.000 A 
ATOM     17  C   UNL     1      10.072  16.959  17.571  0.00  0.00    +0.000 A 
ATOM     18  C   UNL     1       9.454  16.272  18.624  0.00  0.00    +0.000 A 
ENDBRANCH   4  13
BRANCH   5  19
ATOM     19  C   UNL     1      10.092  12.867  20.196  0.00  0.00    +0.000 A 
ATOM     20  C   UNL     1      11.376  12.357  20.146  0.00  0.00    +0.000 A 
ATOM     21  C   UNL     1      11.809  11.620  19.046  0.00  0.00    +0.000 A 
ATOM     22  C   UNL     1      10.929  11.358  17.997  0.00  0.00    +0.000 A 
ATOM     23  C   UNL     1       9.613  11.805  18.041  0.00  0.00    +0.000 A 
ATOM     24  C   UNL     1       9.219  12.569  19.125  0.00  0.00    +0.000 A 
ENDBRANCH   5  19
BRANCH  12  25
ATOM     25  N   UNL     1       8.715  15.674  24.522  0.00  0.00    +0.000 NA
ATOM     26  C   UNL     1       7.583  16.520  25.009  0.00  0.00    +0.000 C 
ATOM     27  C   UNL     1       8.435  17.560  25.711  0.00  0.00    +0.000 C 
ATOM     28  C   UNL     1       9.550  16.722  26.346  0.00  0.00    +0.000 C 
ATOM     29  C   UNL     1       9.403  15.322  25.741  0.00  0.00    +0.000 C 
ENDBRANCH  12  25
TORSDOF 3
ENDMDL
MODEL 3
REMARK VINA RESULT:      -5.8      1.018      1.154
REMARK  Name = 
REMARK  3 active torsions:
REMARK  status: ('A' for Active; 'I' for Inactive)
REMARK    1  A    between atoms: C_4  and  C_5
REMARK    2  A    between atoms: C_11  and  C_12
REMARK    3  A    between atoms: C_24  and  N_25
REMARK                            x       y       z     vdW  Elec       q    Type
REMARK                         _______ _______ _______ _____ _____    ______ ____
ROOT
ATOM      1  O   UNL     1      -2.306  15.505  20.437  0.00  0.00    +0.000 OA
ATOM      2  S   UNL     1      -1.596  15.160  21.652  0.00  0.00    +0.000 S 
ATOM      3  O   UNL     1      -0.572  16.081  22.188  0.00  0.00    +0.000 OA
ATOM      4  C   UNL     1      -0.793  13.663  21.473  0.00  0.00    +0.000 C 
ATOM      5  C   UNL     1      -1.280  12.720  22.295  0.00  0.00    +0.000 C 
ATOM      6  C   UNL     1      -2.247  13.192  23.405  0.00  0.00    +0.000 C 
ATOM      7  C   UNL     1      -3.479  12.254  23.388  0.00  0.00    +0.000 C 
ATOM      8  C   UNL     1      -4.418  12.448  24.574  0.00  0.00    +0.000 C 
ATOM      9  C   UNL     1      -5.333  13.538  24.055  0.00  0.00    +0.000 C 
ATOM     10  C   UNL     1      -4.431  14.275  22.833  0.00  0.00    +0.000 C 
ATOM     11  C   UNL     1      -4.269  12.871  22.243  0.00  0.00    +0.000 C 
ATOM     12  C   UNL     1      -2.834  14.674  23.072  0.00  0.00    +0.000 C 
ENDROOT
BRANCH   4  13
ATOM     13  C   UNL     1       0.455  13.744  20.707  0.00  0.00    +0.000 A 
ATOM     14  C   UNL     1       1.699  13.698  21.331  0.00  0.00    +0.000 A 
ATOM     15  C   UNL     1       2.864  13.756  20.549  0.00  0.00    +0.000 A 
ATOM     16  C   UNL     1       2.781  13.852  19.160  0.00  0.00    +0.000 A 
ATOM     17  C   UNL     1       1.537  13.890  18.544  0.00  0.00    +0.000 A 
ATOM     18  C   UNL     1       0.361  13.841  19.305  0.00  0.00    +0.000 A 
ENDBRANCH   4  13
BRANCH   5  19
ATOM     19  C   UNL     1      -0.882  11.347  21.966  0.00  0.00    +0.000 A 
ATOM     20  C   UNL     1      -0.419  10.488  22.945  0.00  0.00    +0.000 A 
ATOM     21  C   UNL     1       0.174   9.273  22.606  0.00  0.00    +0.000 A 
ATOM     22  C   UNL     1       0.268   8.897  21.268  0.00  0.00    +0.000 A 
ATOM     23  C   UNL     1      -0.241   9.709  20.261  0.00  0.00    +0.000 A 
ATOM     24  C   UNL     1      -0.788  10.928  20.619  0.00  0.00    +0.000 A 
ENDBRANCH   5  19
BRANCH  12  25
ATOM     25  N   UNL     1      -2.790  15.951  23.876  0.00  0.00    +0.000 NA
ATOM     26  C   UNL     1      -3.828  16.991  23.598  0.00  0.00    +0.000 C 
ATOM     27  C   UNL     1      -3.039  18.169  24.134  0.00  0.00    +0.000 C 
ATOM     28  C   UNL     1      -2.352  17.589  25.375  0.00  0.00    +0.000 C 
ATOM     29  C   UNL     1      -2.583  16.075  25.299  0.00  0.00    +0.000 C 
ENDBRANCH  12  25
TORSDOF 3
ENDMDL
MODEL 4
REMARK VINA RESULT:      -5.8      0.998      1.672
REMARK  Name = 
REMARK  3 active torsions:
REMARK  status: ('A' for Active; 'I' for Inactive)
REMARK    1  A    between atoms: C_4  and  C_5
REMARK    2  A    between atoms: C_11  and  C_12
REMARK    3  A    between atoms: C_24  and  N_25
REMARK                            x       y       z     vdW  Elec       q    Type
REMARK                         _______ _______ _______ _____ _____    ______ ____
ROOT
ATOM      1  O   UNL     1      -2.281  15.579  20.397  0.00  0.00    +0.000 OA
ATOM      2  S   UNL     1      -1.572  15.277  21.624  0.00  0.00    +0.000 S 
ATOM      3  O   UNL     1      -0.599  16.248  22.166  0.00  0.00    +0.000 OA
ATOM      4  C   UNL     1      -0.698  13.817  21.467  0.00  0.00    +0.000 C 
ATOM      5  C   UNL     1      -1.152  12.859  22.290  0.00  0.00    +0.000 C 
ATOM      6  C   UNL     1      -2.154  13.294  23.384  0.00  0.00    +0.000 C 
ATOM      7  C   UNL     1      -3.341  12.299  23.358  0.00  0.00    +0.000 C 
ATOM      8  C   UNL     1      -4.304  12.458  24.531  0.00  0.00    +0.000 C 
ATOM      9  C   UNL     1      -5.262  13.500  23.991  0.00  0.00    +0.000 C 
ATOM     10  C   UNL     1      -4.378  14.269  22.775  0.00  0.00    +0.000 C 
ATOM     11  C   UNL     1      -4.143  12.870  22.198  0.00  0.00    +0.000 C 
ATOM     12  C   UNL     1      -2.805  14.744  23.032  0.00  0.00    +0.000 C 
ENDROOT
BRANCH   4  13
ATOM     13  C   UNL     1       0.555  13.951  20.716  0.00  0.00    +0.000 A 
ATOM     14  C   UNL     1       0.566  14.056  19.328  0.00  0.00    +0.000 A 
ATOM     15  C   UNL     1       1.791  14.206  18.659  0.00  0.00    +0.000 A 
ATOM     16  C   UNL     1       2.988  14.256  19.375  0.00  0.00    +0.000 A 
ATOM     17  C   UNL     1       2.968  14.158  20.760  0.00  0.00    +0.000 A 
ATOM     18  C   UNL     1       1.758  14.000  21.448  0.00  0.00    +0.000 A 
ENDBRANCH   4  13
BRANCH   5  19
ATOM     19  C   UNL     1      -0.686  11.503  21.978  0.00  0.00    +0.000 A 
ATOM     20  C   UNL     1      -0.634  11.054  20.672  0.00  0.00    +0.000 A 
ATOM     21  C   UNL     1      -0.417   9.707  20.388  0.00  0.00    +0.000 A 
ATOM     22  C   UNL     1      -0.209   8.804  21.429  0.00  0.00    +0.000 A 
ATOM     23  C   UNL     1      -0.196   9.231  22.752  0.00  0.00    +0.000 A 
ATOM     24  C   UNL     1      -0.454  10.566  23.010  0.00  0.00    +0.000 A 
ENDBRANCH   5  19
BRANCH  12  25
ATOM     25  N   UNL     1      -2.831  16.028  23.826  0.00  0.00    +0.000 NA
ATOM     26  C   UNL     1      -3.886  17.034  23.497  0.00  0.00    +0.000 C 
ATOM     27  C   UNL     1      -3.154  18.240  24.054  0.00  0.00    +0.000 C 
ATOM     28  C   UNL     1      -2.502  17.689  25.327  0.00  0.00    +0.000 C 
ATOM     29  C   UNL     1      -2.685  16.169  25.254  0.00  0.00    +0.000 C 
ENDBRANCH  12  25
TORSDOF 3
ENDMDL
MODEL 5
REMARK VINA RESULT:      -5.7      2.342      4.912
REMARK  Name = 
REMARK  3 active torsions:
REMARK  status: ('A' for Active; 'I' for Inactive)
REMARK    1  A    between atoms: C_4  and  C_5
REMARK    2  A    between atoms: C_11  and  C_12
REMARK    3  A    between atoms: C_24  and  N_25
REMARK                            x       y       z     vdW  Elec       q    Type
REMARK                         _______ _______ _______ _____ _____    ______ ____
ROOT
ATOM      1  O   UNL     1      -3.206  11.822  23.483  0.00  0.00    +0.000 OA
ATOM      2  S   UNL     1      -3.646  12.682  22.402  0.00  0.00    +0.000 S 
ATOM      3  O   UNL     1      -4.641  12.185  21.429  0.00  0.00    +0.000 OA
ATOM      4  C   UNL     1      -2.316  13.185  21.456  0.00  0.00    +0.000 C 
ATOM      5  C   UNL     1      -2.113  14.510  21.523  0.00  0.00    +0.000 C 
ATOM      6  C   UNL     1      -3.224  15.355  22.186  0.00  0.00    +0.000 C 
ATOM      7  C   UNL     1      -2.548  16.310  23.201  0.00  0.00    +0.000 C 
ATOM      8  C   UNL     1      -3.487  17.369  23.771  0.00  0.00    +0.000 C 
ATOM      9  C   UNL     1      -4.073  16.638  24.962  0.00  0.00    +0.000 C 
ATOM     10  C   UNL     1      -3.844  15.007  24.587  0.00  0.00    +0.000 C 
ATOM     11  C   UNL     1      -2.369  15.364  24.380  0.00  0.00    +0.000 C 
ATOM     12  C   UNL     1      -4.214  14.417  23.077  0.00  0.00    +0.000 C 
ENDROOT
BRANCH   4  13
ATOM     13  C   UNL     1      -1.835  12.166  20.517  0.00  0.00    +0.000 A 
ATOM     14  C   UNL     1      -2.246  12.148  19.187  0.00  0.00    +0.000 A 
ATOM     15  C   UNL     1      -1.736  11.166  18.322  0.00  0.00    +0.000 A 
ATOM     16  C   UNL     1      -0.823  10.219  18.786  0.00  0.00    +0.000 A 
ATOM     17  C   UNL     1      -0.412  10.248  20.112  0.00  0.00    +0.000 A 
ATOM     18  C   UNL     1      -0.912  11.214  20.994  0.00  0.00    +0.000 A 
ENDBRANCH   4  13
BRANCH   5  19
ATOM     19  C   UNL     1      -0.810  14.962  21.021  0.00  0.00    +0.000 A 
ATOM     20  C   UNL     1      -0.693  15.546  19.774  0.00  0.00    +0.000 A 
ATOM     21  C   UNL     1       0.559  15.762  19.202  0.00  0.00    +0.000 A 
ATOM     22  C   UNL     1       1.712  15.425  19.909  0.00  0.00    +0.000 A 
ATOM     23  C   UNL     1       1.633  14.891  21.190  0.00  0.00    +0.000 A 
ATOM     24  C   UNL     1       0.378  14.648  21.720  0.00  0.00    +0.000 A 
ENDBRANCH   5  19
BRANCH  12  25
ATOM     25  N   UNL     1      -5.709  14.224  23.007  0.00  0.00    +0.000 NA
ATOM     26  C   UNL     1      -6.368  13.450  24.104  0.00  0.00    +0.000 C 
ATOM     27  C   UNL     1      -7.596  13.043  23.313  0.00  0.00    +0.000 C 
ATOM     28  C   UNL     1      -7.912  14.300  22.494  0.00  0.00    +0.000 C 
ATOM     29  C   UNL     1      -6.699  15.220  22.675  0.00  0.00    +0.000 C 
ENDBRANCH  12  25
TORSDOF 3
ENDMDL
MODEL 6
REMARK VINA RESULT:      -5.7      2.131      4.717
REMARK  Name = 
REMARK  3 active torsions:
REMARK  status: ('A' for Active; 'I' for Inactive)
REMARK    1  A    between atoms: C_4  and  C_5
REMARK    2  A    between atoms: C_11  and  C_12
REMARK    3  A    between atoms: C_24  and  N_25
REMARK                            x       y       z     vdW  Elec       q    Type
REMARK                         _______ _______ _______ _____ _____    ______ ____
ROOT
ATOM      1  O   UNL     1      -2.328  11.587  23.219  0.00  0.00    +0.000 OA
ATOM      2  S   UNL     1      -2.997  12.516  22.330  0.00  0.00    +0.000 S 
ATOM      3  O   UNL     1      -4.212  12.089  21.605  0.00  0.00    +0.000 OA
ATOM      4  C   UNL     1      -1.927  13.061  21.117  0.00  0.00    +0.000 C 
ATOM      5  C   UNL     1      -1.680  14.378  21.206  0.00  0.00    +0.000 C 
ATOM      6  C   UNL     1      -2.575  15.192  22.169  0.00  0.00    +0.000 C 
ATOM      7  C   UNL     1      -1.647  16.077  23.039  0.00  0.00    +0.000 C 
ATOM      8  C   UNL     1      -2.392  17.108  23.881  0.00  0.00    +0.000 C 
ATOM      9  C   UNL     1      -2.687  16.312  25.136  0.00  0.00    +0.000 C 
ATOM     10  C   UNL     1      -2.597  14.705  24.624  0.00  0.00    +0.000 C 
ATOM     11  C   UNL     1      -1.209  15.059  24.082  0.00  0.00    +0.000 C 
ATOM     12  C   UNL     1      -3.339  14.212  23.220  0.00  0.00    +0.000 C 
ENDROOT
BRANCH   4  13
ATOM     13  C   UNL     1      -1.715  12.097  20.032  0.00  0.00    +0.000 A 
ATOM     14  C   UNL     1      -2.458  12.148  18.855  0.00  0.00    +0.000 A 
ATOM     15  C   UNL     1      -2.200  11.216  17.837  0.00  0.00    +0.000 A 
ATOM     16  C   UNL     1      -1.206  10.250  17.996  0.00  0.00    +0.000 A 
ATOM     17  C   UNL     1      -0.464  10.211  19.169  0.00  0.00    +0.000 A 
ATOM     18  C   UNL     1      -0.709  11.126  20.201  0.00  0.00    +0.000 A 
ENDBRANCH   4  13
BRANCH   5  19
ATOM     19  C   UNL     1      -0.529  14.846  20.426  0.00  0.00    +0.000 A 
ATOM     20  C   UNL     1       0.763  14.558  20.825  0.00  0.00    +0.000 A 
ATOM     21  C   UNL     1       1.852  15.188  20.227  0.00  0.00    +0.000 A 
ATOM     22  C   UNL     1       1.644  16.091  19.186  0.00  0.00    +0.000 A 
ATOM     23  C   UNL     1       0.362  16.360  18.719  0.00  0.00    +0.000 A 
ATOM     24  C   UNL     1      -0.705  15.752  19.356  0.00  0.00    +0.000 A 
ENDBRANCH   5  19
BRANCH  12  25
ATOM     25  N   UNL     1      -4.811  14.039  23.509  0.00  0.00    +0.000 NA
ATOM     26  C   UNL     1      -5.208  13.042  24.550  0.00  0.00    +0.000 C 
ATOM     27  C   UNL     1      -6.621  12.820  24.045  0.00  0.00    +0.000 C 
ATOM     28  C   UNL     1      -7.063  14.226  23.626  0.00  0.00    +0.000 C 
ATOM     29  C   UNL     1      -5.793  15.084  23.671  0.00  0.00    +0.000 C 
ENDBRANCH  12  25
TORSDOF 3
ENDMDL
MODEL 7
REMARK VINA RESULT:      -5.6      2.746      5.684
REMARK  Name = 
REMARK  3 active torsions:
REMARK  status: ('A' for Active; 'I' for Inactive)
REMARK    1  A    between atoms: C_4  and  C_5
REMARK    2  A    between atoms: C_11  and  C_12
REMARK    3  A    between atoms: C_24  and  N_25
REMARK                            x       y       z     vdW  Elec       q    Type
REMARK                         _______ _______ _______ _____ _____    ______ ____
ROOT
ATOM      1  O   UNL     1       1.689  12.712  18.924  0.00  0.00    +0.000 OA
ATOM      2  S   UNL     1       1.477  13.246  20.254  0.00  0.00    +0.000 S 
ATOM      3  O   UNL     1       2.379  12.849  21.355  0.00  0.00    +0.000 OA
ATOM      4  C   UNL     1      -0.092  12.865  20.810  0.00  0.00    +0.000 C 
ATOM      5  C   UNL     1      -0.852  13.958  20.985  0.00  0.00    +0.000 C 
ATOM      6  C   UNL     1      -0.133  15.326  20.925  0.00  0.00    +0.000 C 
ATOM      7  C   UNL     1      -0.955  16.250  19.992  0.00  0.00    +0.000 C 
ATOM      8  C   UNL     1      -0.500  17.706  20.011  0.00  0.00    +0.000 C 
ATOM      9  C   UNL     1       0.570  17.699  18.940  0.00  0.00    +0.000 C 
ATOM     10  C   UNL     1       1.030  16.077  18.839  0.00  0.00    +0.000 C 
ATOM     11  C   UNL     1      -0.457  15.771  18.636  0.00  0.00    +0.000 C 
ATOM     12  C   UNL     1       1.324  15.186  20.212  0.00  0.00    +0.000 C 
ENDROOT
BRANCH   4  13
ATOM     13  C   UNL     1      -0.237  11.486  21.286  0.00  0.00    +0.000 A 
ATOM     14  C   UNL     1      -0.029  10.397  20.444  0.00  0.00    +0.000 A 
ATOM     15  C   UNL     1      -0.156   9.096  20.956  0.00  0.00    +0.000 A 
ATOM     16  C   UNL     1      -0.483   8.891  22.297  0.00  0.00    +0.000 A 
ATOM     17  C   UNL     1      -0.682   9.983  23.132  0.00  0.00    +0.000 A 
ATOM     18  C   UNL     1      -0.567  11.289  22.642  0.00  0.00    +0.000 A 
ENDBRANCH   4  13
BRANCH   5  19
ATOM     19  C   UNL     1      -2.288  13.697  21.129  0.00  0.00    +0.000 A 
ATOM     20  C   UNL     1      -2.941  13.954  22.320  0.00  0.00    +0.000 A 
ATOM     21  C   UNL     1      -4.239  13.496  22.536  0.00  0.00    +0.000 A 
ATOM     22  C   UNL     1      -4.907  12.803  21.527  0.00  0.00    +0.000 A 
ATOM     23  C   UNL     1      -4.302  12.579  20.295  0.00  0.00    +0.000 A 
ATOM     24  C   UNL     1      -2.999  13.008  20.119  0.00  0.00    +0.000 A 
ENDBRANCH   5  19
BRANCH  12  25
ATOM     25  N   UNL     1       2.701  15.546  20.713  0.00  0.00    +0.000 NA
ATOM     26  C   UNL     1       3.797  15.695  19.707  0.00  0.00    +0.000 C 
ATOM     27  C   UNL     1       4.946  15.442  20.665  0.00  0.00    +0.000 C 
ATOM     28  C   UNL     1       4.499  16.169  21.939  0.00  0.00    +0.000 C 
ATOM     29  C   UNL     1       3.032  16.545  21.701  0.00  0.00    +0.000 C 
ENDBRANCH  12  25
TORSDOF 3
ENDMDL
MODEL 8
REMARK VINA RESULT:      -5.6      2.843      6.010
REMARK  Name = 
REMARK  3 active torsions:
REMARK  status: ('A' for Active; 'I' for Inactive)
REMARK    1  A    between atoms: C_4  and  C_5
REMARK    2  A    between atoms: C_11  and  C_12
REMARK    3  A    between atoms: C_24  and  N_25
REMARK                            x       y       z     vdW  Elec       q    Type
REMARK                         _______ _______ _______ _____ _____    ______ ____
ROOT
ATOM      1  O   UNL     1       1.747  13.864  19.809  0.00  0.00    +0.000 OA
ATOM      2  S   UNL     1       0.396  13.874  19.285  0.00  0.00    +0.000 S 
ATOM      3  O   UNL     1       0.168  13.639  17.844  0.00  0.00    +0.000 OA
ATOM      4  C   UNL     1      -0.363  15.368  19.615  0.00  0.00    +0.000 C 
ATOM      5  C   UNL     1      -1.410  15.237  20.445  0.00  0.00    +0.000 C 
ATOM      6  C   UNL     1      -1.901  13.799  20.729  0.00  0.00    +0.000 C 
ATOM      7  C   UNL     1      -2.072  13.654  22.262  0.00  0.00    +0.000 C 
ATOM      8  C   UNL     1      -2.770  12.364  22.685  0.00  0.00    +0.000 C 
ATOM      9  C   UNL     1      -1.596  11.414  22.801  0.00  0.00    +0.000 C 
ATOM     10  C   UNL     1      -0.404  12.126  21.838  0.00  0.00    +0.000 C 
ATOM     11  C   UNL     1      -0.630  13.392  22.669  0.00  0.00    +0.000 C 
ATOM     12  C   UNL     1      -0.765  12.706  20.322  0.00  0.00    +0.000 C 
ENDROOT
BRANCH   4  13
ATOM     13  C   UNL     1       0.046  16.454  18.719  0.00  0.00    +0.000 A 
ATOM     14  C   UNL     1      -0.885  17.186  17.987  0.00  0.00    +0.000 A 
ATOM     15  C   UNL     1      -0.443  18.233  17.162  0.00  0.00    +0.000 A 
ATOM     16  C   UNL     1       0.915  18.544  17.078  0.00  0.00    +0.000 A 
ATOM     17  C   UNL     1       1.836  17.814  17.817  0.00  0.00    +0.000 A 
ATOM     18  C   UNL     1       1.419  16.761  18.641  0.00  0.00    +0.000 A 
ENDBRANCH   4  13
BRANCH   5  19
ATOM     19  C   UNL     1      -1.893  16.491  21.034  0.00  0.00    +0.000 A 
ATOM     20  C   UNL     1      -1.134  17.178  21.963  0.00  0.00    +0.000 A 
ATOM     21  C   UNL     1      -1.680  18.233  22.690  0.00  0.00    +0.000 A 
ATOM     22  C   UNL     1      -2.995  18.630  22.455  0.00  0.00    +0.000 A 
ATOM     23  C   UNL     1      -3.768  18.001  21.487  0.00  0.00    +0.000 A 
ATOM     24  C   UNL     1      -3.217  16.930  20.805  0.00  0.00    +0.000 A 
ENDBRANCH   5  19
BRANCH  12  25
ATOM     25  N   UNL     1      -0.827  11.530  19.377  0.00  0.00    +0.000 NA
ATOM     26  C   UNL     1       0.042  10.350  19.669  0.00  0.00    +0.000 C 
ATOM     27  C   UNL     1       0.080   9.809  18.252  0.00  0.00    +0.000 C 
ATOM     28  C   UNL     1      -1.352  10.040  17.757  0.00  0.00    +0.000 C 
ATOM     29  C   UNL     1      -2.013  10.927  18.818  0.00  0.00    +0.000 C 
ENDBRANCH  12  25
TORSDOF 3
ENDMDL
MODEL 9
REMARK VINA RESULT:      -5.6      0.231      1.287
REMARK  Name = 
REMARK  3 active torsions:
REMARK  status: ('A' for Active; 'I' for Inactive)
REMARK    1  A    between atoms: C_4  and  C_5
REMARK    2  A    between atoms: C_11  and  C_12
REMARK    3  A    between atoms: C_24  and  N_25
REMARK                            x       y       z     vdW  Elec       q    Type
REMARK                         _______ _______ _______ _____ _____    ______ ____
ROOT
ATOM      1  O   UNL     1      -1.490  16.464  21.092  0.00  0.00    +0.000 OA
ATOM      2  S   UNL     1      -0.775  15.689  22.087  0.00  0.00    +0.000 S 
ATOM      3  O   UNL     1       0.349  16.303  22.825  0.00  0.00    +0.000 OA
ATOM      4  C   UNL     1      -0.123  14.274  21.388  0.00  0.00    +0.000 C 
ATOM      5  C   UNL     1      -0.668  13.156  21.893  0.00  0.00    +0.000 C 
ATOM      6  C   UNL     1      -1.549  13.317  23.153  0.00  0.00    +0.000 C 
ATOM      7  C   UNL     1      -2.864  12.534  22.913  0.00  0.00    +0.000 C 
ATOM      8  C   UNL     1      -3.741  12.405  24.154  0.00  0.00    +0.000 C 
ATOM      9  C   UNL     1      -4.566  13.673  24.069  0.00  0.00    +0.000 C 
ATOM     10  C   UNL     1      -3.640  14.694  23.094  0.00  0.00    +0.000 C 
ATOM     11  C   UNL     1      -3.630  13.549  22.077  0.00  0.00    +0.000 C 
ATOM     12  C   UNL     1      -2.006  14.867  23.350  0.00  0.00    +0.000 C 
ENDROOT
BRANCH   4  13
ATOM     13  C   UNL     1       1.101  14.502  20.613  0.00  0.00    +0.000 A 
ATOM     14  C   UNL     1       1.062  15.030  19.325  0.00  0.00    +0.000 A 
ATOM     15  C   UNL     1       2.265  15.251  18.635  0.00  0.00    +0.000 A 
ATOM     16  C   UNL     1       3.490  14.951  19.231  0.00  0.00    +0.000 A 
ATOM     17  C   UNL     1       3.521  14.431  20.518  0.00  0.00    +0.000 A 
ATOM     18  C   UNL     1       2.333  14.196  21.223  0.00  0.00    +0.000 A 
ENDBRANCH   4  13
BRANCH   5  19
ATOM     19  C   UNL     1      -0.412  11.937  21.118  0.00  0.00    +0.000 A 
ATOM     20  C   UNL     1      -0.990  11.751  19.876  0.00  0.00    +0.000 A 
ATOM     21  C   UNL     1      -0.939  10.511  19.244  0.00  0.00    +0.000 A 
ATOM     22  C   UNL     1      -0.263   9.452  19.848  0.00  0.00    +0.000 A 
ATOM     23  C   UNL     1       0.381   9.620  21.068  0.00  0.00    +0.000 A 
ATOM     24  C   UNL     1       0.281  10.850  21.696  0.00  0.00    +0.000 A 
ENDBRANCH   5  19
BRANCH  12  25
ATOM     25  N   UNL     1      -1.815  15.807  24.516  0.00  0.00    +0.000 NA
ATOM     26  C   UNL     1      -2.748  16.968  24.640  0.00  0.00    +0.000 C 
ATOM     27  C   UNL     1      -1.833  17.836  25.482  0.00  0.00    +0.000 C 
ATOM     28  C   UNL     1      -1.181  16.827  26.434  0.00  0.00    +0.000 C 
ATOM     29  C   UNL     1      -1.565  15.446  25.890  0.00  0.00    +0.000 C 
ENDBRANCH  12  25
TORSDOF 3
ENDMDL
