MODEL 1
REMARK VINA RESULT:      -7.9      0.000      0.000
REMARK  Name = 
REMARK  4 active torsions:
REMARK  status: ('A' for Active; 'I' for Inactive)
REMARK    1  A    between atoms: N_1  and  S_2
REMARK    2  A    between atoms: S_2  and  C_5
REMARK    3  A    between atoms: C_8  and  C_9
REMARK    4  A    between atoms: C_13  and  C_14
REMARK                            x       y       z     vdW  Elec       q    Type
REMARK                         _______ _______ _______ _____ _____    ______ ____
ROOT
ATOM      1  C   UNL     1       2.487   3.696  18.797  0.00  0.00    +0.000 A 
ATOM      2  C   UNL     1       3.094   2.626  18.136  0.00  0.00    +0.000 A 
ATOM      3  C   UNL     1       4.061   2.881  17.154  0.00  0.00    +0.000 A 
ATOM      4  C   UNL     1       4.406   4.198  16.813  0.00  0.00    +0.000 A 
ATOM      5  C   UNL     1       3.738   5.255  17.452  0.00  0.00    +0.000 A 
ATOM      6  C   UNL     1       2.806   5.010  18.459  0.00  0.00    +0.000 A 
ENDROOT
BRANCH   4   7
ATOM      7  C   UNL     1       5.453   4.473  15.840  0.00  0.00    +0.000 A 
ATOM      8  C   UNL     1       5.463   3.964  14.564  0.00  0.00    +0.000 A 
ATOM      9  O   UNL     1       6.529   4.439  13.883  0.00  0.00    +0.000 OA
ATOM     10  N   UNL     1       7.264   5.274  14.698  0.00  0.00    +0.000 NA
ATOM     11  C   UNL     1       6.642   5.288  15.892  0.00  0.00    +0.000 A 
BRANCH  11  12
ATOM     12  C   UNL     1       7.181   6.076  17.006  0.00  0.00    +0.000 A 
ATOM     13  C   UNL     1       7.546   5.454  18.209  0.00  0.00    +0.000 A 
ATOM     14  C   UNL     1       8.166   6.185  19.225  0.00  0.00    +0.000 A 
ATOM     15  C   UNL     1       8.440   7.541  19.048  0.00  0.00    +0.000 A 
ATOM     16  C   UNL     1       8.050   8.177  17.872  0.00  0.00    +0.000 A 
ATOM     17  C   UNL     1       7.396   7.456  16.873  0.00  0.00    +0.000 A 
ENDBRANCH  11  12
ENDBRANCH   4   7
BRANCH   1  18
ATOM     18  S   UNL     1       1.343   3.391  20.106  0.00  0.00    +0.000 S 
ATOM     19  O   UNL     1       0.790   4.650  20.543  0.00  0.00    +0.000 OA
ATOM     20  O   UNL     1       1.914   2.428  21.025  0.00  0.00    +0.000 OA
BRANCH  18  21
ATOM     21  N   UNL     1       0.114   2.564  19.318  0.00  0.00    +0.000 NA
ATOM     22  H   UNL     1       0.022   2.930  18.368  0.00  0.00    +0.000 HD
ATOM     23  H   UNL     1      -0.747   2.616  19.859  0.00  0.00    +0.000 HD
ENDBRANCH  18  21
ENDBRANCH   1  18
TORSDOF 4
ENDMDL
MODEL 2
REMARK VINA RESULT:      -7.9      3.967      4.954
REMARK  Name = 
REMARK  4 active torsions:
REMARK  status: ('A' for Active; 'I' for Inactive)
REMARK    1  A    between atoms: N_1  and  S_2
REMARK    2  A    between atoms: S_2  and  C_5
REMARK    3  A    between atoms: C_8  and  C_9
REMARK    4  A    between atoms: C_13  and  C_14
REMARK                            x       y       z     vdW  Elec       q    Type
REMARK                         _______ _______ _______ _____ _____    ______ ____
ROOT
ATOM      1  C   UNL     1       1.400   9.158  19.593  0.00  0.00    +0.000 A 
ATOM      2  C   UNL     1       1.750   9.074  18.244  0.00  0.00    +0.000 A 
ATOM      3  C   UNL     1       2.256   7.869  17.736  0.00  0.00    +0.000 A 
ATOM      4  C   UNL     1       2.436   6.758  18.575  0.00  0.00    +0.000 A 
ATOM      5  C   UNL     1       2.131   6.888  19.939  0.00  0.00    +0.000 A 
ATOM      6  C   UNL     1       1.588   8.069  20.443  0.00  0.00    +0.000 A 
ENDROOT
BRANCH   4   7
ATOM      7  C   UNL     1       2.900   5.484  18.044  0.00  0.00    +0.000 A 
ATOM      8  C   UNL     1       2.066   4.446  17.710  0.00  0.00    +0.000 A 
ATOM      9  O   UNL     1       2.782   3.422  17.195  0.00  0.00    +0.000 OA
ATOM     10  N   UNL     1       4.120   3.754  17.182  0.00  0.00    +0.000 NA
ATOM     11  C   UNL     1       4.213   4.987  17.713  0.00  0.00    +0.000 A 
BRANCH  11  12
ATOM     12  C   UNL     1       5.519   5.639  17.864  0.00  0.00    +0.000 A 
ATOM     13  C   UNL     1       5.851   6.761  17.091  0.00  0.00    +0.000 A 
ATOM     14  C   UNL     1       7.046   7.449  17.315  0.00  0.00    +0.000 A 
ATOM     15  C   UNL     1       7.917   7.034  18.322  0.00  0.00    +0.000 A 
ATOM     16  C   UNL     1       7.616   5.900  19.072  0.00  0.00    +0.000 A 
ATOM     17  C   UNL     1       6.441   5.189  18.821  0.00  0.00    +0.000 A 
ENDBRANCH  11  12
ENDBRANCH   4   7
BRANCH   1  18
ATOM     18  S   UNL     1       0.668  10.634  20.226  0.00  0.00    +0.000 S 
ATOM     19  O   UNL     1      -0.766  10.523  20.122  0.00  0.00    +0.000 OA
ATOM     20  O   UNL     1       1.400  11.781  19.728  0.00  0.00    +0.000 OA
BRANCH  18  21
ATOM     21  N   UNL     1       1.050  10.548  21.858  0.00  0.00    +0.000 NA
ATOM     22  H   UNL     1       2.051  10.715  21.974  0.00  0.00    +0.000 HD
ATOM     23  H   UNL     1       0.737   9.660  22.244  0.00  0.00    +0.000 HD
ENDBRANCH  18  21
ENDBRANCH   1  18
TORSDOF 4
ENDMDL
MODEL 3
REMARK VINA RESULT:      -7.9      4.050      4.947
REMARK  Name = 
REMARK  4 active torsions:
REMARK  status: ('A' for Active; 'I' for Inactive)
REMARK    1  A    between atoms: N_1  and  S_2
REMARK    2  A    between atoms: S_2  and  C_5
REMARK    3  A    between atoms: C_8  and  C_9
REMARK    4  A    between atoms: C_13  and  C_14
REMARK                            x       y       z     vdW  Elec       q    Type
REMARK                         _______ _______ _______ _____ _____    ______ ____
ROOT
ATOM      1  C   UNL     1       1.261   9.209  19.794  0.00  0.00    +0.000 A 
ATOM      2  C   UNL     1       1.617   9.166  18.444  0.00  0.00    +0.000 A 
ATOM      3  C   UNL     1       2.141   7.983  17.906  0.00  0.00    +0.000 A 
ATOM      4  C   UNL     1       2.335   6.852  18.715  0.00  0.00    +0.000 A 
ATOM      5  C   UNL     1       2.023   6.940  20.081  0.00  0.00    +0.000 A 
ATOM      6  C   UNL     1       1.462   8.100  20.615  0.00  0.00    +0.000 A 
ENDROOT
BRANCH   4   7
ATOM      7  C   UNL     1       2.820   5.600  18.152  0.00  0.00    +0.000 A 
ATOM      8  C   UNL     1       1.999   4.579  17.741  0.00  0.00    +0.000 A 
ATOM      9  O   UNL     1       2.734   3.575  17.214  0.00  0.00    +0.000 OA
ATOM     10  N   UNL     1       4.072   3.903  17.270  0.00  0.00    +0.000 NA
ATOM     11  C   UNL     1       4.145   5.113  17.856  0.00  0.00    +0.000 A 
BRANCH  11  12
ATOM     12  C   UNL     1       5.444   5.754  18.087  0.00  0.00    +0.000 A 
ATOM     13  C   UNL     1       6.292   5.301  19.108  0.00  0.00    +0.000 A 
ATOM     14  C   UNL     1       7.575   5.834  19.254  0.00  0.00    +0.000 A 
ATOM     15  C   UNL     1       8.031   6.816  18.376  0.00  0.00    +0.000 A 
ATOM     16  C   UNL     1       7.186   7.299  17.380  0.00  0.00    +0.000 A 
ATOM     17  C   UNL     1       5.891   6.795  17.259  0.00  0.00    +0.000 A 
ENDBRANCH  11  12
ENDBRANCH   4   7
BRANCH   1  18
ATOM     18  S   UNL     1       0.506  10.656  20.464  0.00  0.00    +0.000 S 
ATOM     19  O   UNL     1       0.966  10.837  21.818  0.00  0.00    +0.000 OA
ATOM     20  O   UNL     1      -0.899  10.669  20.108  0.00  0.00    +0.000 OA
BRANCH  18  21
ATOM     21  N   UNL     1       1.199  11.876  19.543  0.00  0.00    +0.000 NA
ATOM     22  H   UNL     1       0.722  11.924  18.640  0.00  0.00    +0.000 HD
ATOM     23  H   UNL     1       2.203  11.728  19.466  0.00  0.00    +0.000 HD
ENDBRANCH  18  21
ENDBRANCH   1  18
TORSDOF 4
ENDMDL
MODEL 4
REMARK VINA RESULT:      -7.8      0.198      1.070
REMARK  Name = 
REMARK  4 active torsions:
REMARK  status: ('A' for Active; 'I' for Inactive)
REMARK    1  A    between atoms: N_1  and  S_2
REMARK    2  A    between atoms: S_2  and  C_5
REMARK    3  A    between atoms: C_8  and  C_9
REMARK    4  A    between atoms: C_13  and  C_14
REMARK                            x       y       z     vdW  Elec       q    Type
REMARK                         _______ _______ _______ _____ _____    ______ ____
ROOT
ATOM      1  C   UNL     1       2.529   3.711  18.846  0.00  0.00    +0.000 A 
ATOM      2  C   UNL     1       3.117   2.625  18.195  0.00  0.00    +0.000 A 
ATOM      3  C   UNL     1       4.056   2.853  17.181  0.00  0.00    +0.000 A 
ATOM      4  C   UNL     1       4.393   4.162  16.797  0.00  0.00    +0.000 A 
ATOM      5  C   UNL     1       3.743   5.235  17.428  0.00  0.00    +0.000 A 
ATOM      6  C   UNL     1       2.839   5.016  18.467  0.00  0.00    +0.000 A 
ENDROOT
BRANCH   4   7
ATOM      7  C   UNL     1       5.413   4.410  15.790  0.00  0.00    +0.000 A 
ATOM      8  C   UNL     1       5.332   3.961  14.494  0.00  0.00    +0.000 A 
ATOM      9  O   UNL     1       6.398   4.395  13.785  0.00  0.00    +0.000 OA
ATOM     10  N   UNL     1       7.223   5.141  14.600  0.00  0.00    +0.000 NA
ATOM     11  C   UNL     1       6.656   5.141  15.821  0.00  0.00    +0.000 A 
BRANCH  11  12
ATOM     12  C   UNL     1       7.296   5.839  16.941  0.00  0.00    +0.000 A 
ATOM     13  C   UNL     1       7.515   7.224  16.889  0.00  0.00    +0.000 A 
ATOM     14  C   UNL     1       8.018   7.905  17.999  0.00  0.00    +0.000 A 
ATOM     15  C   UNL     1       8.296   7.216  19.179  0.00  0.00    +0.000 A 
ATOM     16  C   UNL     1       8.117   5.836  19.232  0.00  0.00    +0.000 A 
ATOM     17  C   UNL     1       7.652   5.150  18.110  0.00  0.00    +0.000 A 
ENDBRANCH  11  12
ENDBRANCH   4   7
BRANCH   1  18
ATOM     18  S   UNL     1       1.421   3.441  20.193  0.00  0.00    +0.000 S 
ATOM     19  O   UNL     1       0.906   4.714  20.634  0.00  0.00    +0.000 OA
ATOM     20  O   UNL     1       2.003   2.477  21.104  0.00  0.00    +0.000 OA
BRANCH  18  21
ATOM     21  N   UNL     1       0.153   2.629  19.452  0.00  0.00    +0.000 NA
ATOM     22  H   UNL     1      -0.160   3.169  18.643  0.00  0.00    +0.000 HD
ATOM     23  H   UNL     1      -0.585   2.442  20.128  0.00  0.00    +0.000 HD
ENDBRANCH  18  21
ENDBRANCH   1  18
TORSDOF 4
ENDMDL
MODEL 5
REMARK VINA RESULT:      -7.7      3.804      5.744
REMARK  Name = 
REMARK  4 active torsions:
REMARK  status: ('A' for Active; 'I' for Inactive)
REMARK    1  A    between atoms: N_1  and  S_2
REMARK    2  A    between atoms: S_2  and  C_5
REMARK    3  A    between atoms: C_8  and  C_9
REMARK    4  A    between atoms: C_13  and  C_14
REMARK                            x       y       z     vdW  Elec       q    Type
REMARK                         _______ _______ _______ _____ _____    ______ ____
ROOT
ATOM      1  C   UNL     1       1.188   9.064  19.848  0.00  0.00    +0.000 A 
ATOM      2  C   UNL     1       1.665   7.878  20.410  0.00  0.00    +0.000 A 
ATOM      3  C   UNL     1       2.486   7.034  19.649  0.00  0.00    +0.000 A 
ATOM      4  C   UNL     1       2.810   7.357  18.322  0.00  0.00    +0.000 A 
ATOM      5  C   UNL     1       2.270   8.526  17.762  0.00  0.00    +0.000 A 
ATOM      6  C   UNL     1       1.488   9.391  18.526  0.00  0.00    +0.000 A 
ENDROOT
BRANCH   4   7
ATOM      7  C   UNL     1       3.712   6.519  17.544  0.00  0.00    +0.000 A 
ATOM      8  C   UNL     1       4.675   7.013  16.700  0.00  0.00    +0.000 A 
ATOM      9  O   UNL     1       5.388   5.998  16.164  0.00  0.00    +0.000 OA
ATOM     10  N   UNL     1       4.907   4.795  16.636  0.00  0.00    +0.000 NA
ATOM     11  C   UNL     1       3.879   5.089  17.453  0.00  0.00    +0.000 A 
BRANCH  11  12
ATOM     12  C   UNL     1       3.123   4.021  18.117  0.00  0.00    +0.000 A 
ATOM     13  C   UNL     1       3.727   3.226  19.102  0.00  0.00    +0.000 A 
ATOM     14  C   UNL     1       2.976   2.287  19.814  0.00  0.00    +0.000 A 
ATOM     15  C   UNL     1       1.613   2.141  19.562  0.00  0.00    +0.000 A 
ATOM     16  C   UNL     1       1.010   2.900  18.562  0.00  0.00    +0.000 A 
ATOM     17  C   UNL     1       1.768   3.809  17.824  0.00  0.00    +0.000 A 
ENDBRANCH  11  12
ENDBRANCH   4   7
BRANCH   1  18
ATOM     18  S   UNL     1       0.239  10.186  20.824  0.00  0.00    +0.000 S 
ATOM     19  O   UNL     1      -0.873  10.660  20.038  0.00  0.00    +0.000 OA
ATOM     20  O   UNL     1       1.134  11.080  21.529  0.00  0.00    +0.000 OA
BRANCH  18  21
ATOM     21  N   UNL     1      -0.392   9.179  22.009  0.00  0.00    +0.000 NA
ATOM     22  H   UNL     1      -0.456   9.698  22.887  0.00  0.00    +0.000 HD
ATOM     23  H   UNL     1       0.164   8.329  22.078  0.00  0.00    +0.000 HD
ENDBRANCH  18  21
ENDBRANCH   1  18
TORSDOF 4
ENDMDL
MODEL 6
REMARK VINA RESULT:      -7.7      4.279      6.282
REMARK  Name = 
REMARK  4 active torsions:
REMARK  status: ('A' for Active; 'I' for Inactive)
REMARK    1  A    between atoms: N_1  and  S_2
REMARK    2  A    between atoms: S_2  and  C_5
REMARK    3  A    between atoms: C_8  and  C_9
REMARK    4  A    between atoms: C_13  and  C_14
REMARK                            x       y       z     vdW  Elec       q    Type
REMARK                         _______ _______ _______ _____ _____    ______ ____
ROOT
ATOM      1  C   UNL     1       0.899   9.522  19.856  0.00  0.00    +0.000 A 
ATOM      2  C   UNL     1       1.347   8.418  20.585  0.00  0.00    +0.000 A 
ATOM      3  C   UNL     1       2.133   7.446  19.952  0.00  0.00    +0.000 A 
ATOM      4  C   UNL     1       2.453   7.559  18.589  0.00  0.00    +0.000 A 
ATOM      5  C   UNL     1       1.942   8.649  17.867  0.00  0.00    +0.000 A 
ATOM      6  C   UNL     1       1.195   9.642  18.499  0.00  0.00    +0.000 A 
ENDROOT
BRANCH   4   7
ATOM      7  C   UNL     1       3.321   6.589  17.939  0.00  0.00    +0.000 A 
ATOM      8  C   UNL     1       4.262   6.918  16.994  0.00  0.00    +0.000 A 
ATOM      9  O   UNL     1       4.946   5.815  16.617  0.00  0.00    +0.000 OA
ATOM     10  N   UNL     1       4.468   4.717  17.300  0.00  0.00    +0.000 NA
ATOM     11  C   UNL     1       3.470   5.161  18.086  0.00  0.00    +0.000 A 
BRANCH  11  12
ATOM     12  C   UNL     1       2.724   4.233  18.943  0.00  0.00    +0.000 A 
ATOM     13  C   UNL     1       3.207   3.891  20.215  0.00  0.00    +0.000 A 
ATOM     14  C   UNL     1       2.442   3.099  21.075  0.00  0.00    +0.000 A 
ATOM     15  C   UNL     1       1.183   2.650  20.682  0.00  0.00    +0.000 A 
ATOM     16  C   UNL     1       0.708   2.953  19.408  0.00  0.00    +0.000 A 
ATOM     17  C   UNL     1       1.488   3.711  18.535  0.00  0.00    +0.000 A 
ENDBRANCH  11  12
ENDBRANCH   4   7
BRANCH   1  18
ATOM     18  S   UNL     1      -0.005  10.806  20.662  0.00  0.00    +0.000 S 
ATOM     19  O   UNL     1      -0.577  10.279  21.877  0.00  0.00    +0.000 OA
ATOM     20  O   UNL     1      -0.787  11.528  19.680  0.00  0.00    +0.000 OA
BRANCH  18  21
ATOM     21  N   UNL     1       1.213  11.868  21.115  0.00  0.00    +0.000 NA
ATOM     22  H   UNL     1       2.097  11.359  21.164  0.00  0.00    +0.000 HD
ATOM     23  H   UNL     1       0.964  12.337  21.983  0.00  0.00    +0.000 HD
ENDBRANCH  18  21
ENDBRANCH   1  18
TORSDOF 4
ENDMDL
MODEL 7
REMARK VINA RESULT:      -7.7      3.723      5.653
REMARK  Name = 
REMARK  4 active torsions:
REMARK  status: ('A' for Active; 'I' for Inactive)
REMARK    1  A    between atoms: N_1  and  S_2
REMARK    2  A    between atoms: S_2  and  C_5
REMARK    3  A    between atoms: C_8  and  C_9
REMARK    4  A    between atoms: C_13  and  C_14
REMARK                            x       y       z     vdW  Elec       q    Type
REMARK                         _______ _______ _______ _____ _____    ______ ____
ROOT
ATOM      1  C   UNL     1       1.314   8.899  19.767  0.00  0.00    +0.000 A 
ATOM      2  C   UNL     1       1.659   9.292  18.472  0.00  0.00    +0.000 A 
ATOM      3  C   UNL     1       2.492   8.471  17.700  0.00  0.00    +0.000 A 
ATOM      4  C   UNL     1       3.001   7.272  18.224  0.00  0.00    +0.000 A 
ATOM      5  C   UNL     1       2.686   6.929  19.549  0.00  0.00    +0.000 A 
ATOM      6  C   UNL     1       1.823   7.720  20.308  0.00  0.00    +0.000 A 
ENDROOT
BRANCH   4   7
ATOM      7  C   UNL     1       3.815   6.382  17.410  0.00  0.00    +0.000 A 
ATOM      8  C   UNL     1       4.752   6.818  16.505  0.00  0.00    +0.000 A 
ATOM      9  O   UNL     1       5.383   5.763  15.945  0.00  0.00    +0.000 OA
ATOM     10  N   UNL     1       4.872   4.590  16.461  0.00  0.00    +0.000 NA
ATOM     11  C   UNL     1       3.907   4.945  17.330  0.00  0.00    +0.000 A 
BRANCH  11  12
ATOM     12  C   UNL     1       3.140   3.923  18.051  0.00  0.00    +0.000 A 
ATOM     13  C   UNL     1       3.745   3.149  19.052  0.00  0.00    +0.000 A 
ATOM     14  C   UNL     1       2.987   2.258  19.816  0.00  0.00    +0.000 A 
ATOM     15  C   UNL     1       1.615   2.139  19.600  0.00  0.00    +0.000 A 
ATOM     16  C   UNL     1       1.009   2.876  18.585  0.00  0.00    +0.000 A 
ATOM     17  C   UNL     1       1.773   3.736  17.796  0.00  0.00    +0.000 A 
ENDBRANCH  11  12
ENDBRANCH   4   7
BRANCH   1  18
ATOM     18  S   UNL     1       0.185   9.870  20.714  0.00  0.00    +0.000 S 
ATOM     19  O   UNL     1      -0.888  10.307  19.855  0.00  0.00    +0.000 OA
ATOM     20  O   UNL     1       0.931  10.782  21.557  0.00  0.00    +0.000 OA
BRANCH  18  21
ATOM     21  N   UNL     1      -0.462   8.735  21.768  0.00  0.00    +0.000 NA
ATOM     22  H   UNL     1      -0.593   9.168  22.684  0.00  0.00    +0.000 HD
ATOM     23  H   UNL     1       0.126   7.904  21.791  0.00  0.00    +0.000 HD
ENDBRANCH  18  21
ENDBRANCH   1  18
TORSDOF 4
ENDMDL
MODEL 8
REMARK VINA RESULT:      -7.6      3.517      4.267
REMARK  Name = 
REMARK  4 active torsions:
REMARK  status: ('A' for Active; 'I' for Inactive)
REMARK    1  A    between atoms: N_1  and  S_2
REMARK    2  A    between atoms: S_2  and  C_5
REMARK    3  A    between atoms: C_8  and  C_9
REMARK    4  A    between atoms: C_13  and  C_14
REMARK                            x       y       z     vdW  Elec       q    Type
REMARK                         _______ _______ _______ _____ _____    ______ ____
ROOT
ATOM      1  C   UNL     1       1.409   8.136  20.526  0.00  0.00    +0.000 A 
ATOM      2  C   UNL     1       1.453   6.824  21.001  0.00  0.00    +0.000 A 
ATOM      3  C   UNL     1       2.002   5.816  20.197  0.00  0.00    +0.000 A 
ATOM      4  C   UNL     1       2.485   6.110  18.911  0.00  0.00    +0.000 A 
ATOM      5  C   UNL     1       2.376   7.426  18.436  0.00  0.00    +0.000 A 
ATOM      6  C   UNL     1       1.870   8.442  19.246  0.00  0.00    +0.000 A 
ENDROOT
BRANCH   4   7
ATOM      7  C   UNL     1       3.114   5.083  18.093  0.00  0.00    +0.000 A 
ATOM      8  C   UNL     1       2.433   4.036  17.525  0.00  0.00    +0.000 A 
ATOM      9  O   UNL     1       3.273   3.284  16.780  0.00  0.00    +0.000 OA
ATOM     10  N   UNL     1       4.545   3.813  16.843  0.00  0.00    +0.000 NA
ATOM     11  C   UNL     1       4.473   4.887  17.651  0.00  0.00    +0.000 A 
BRANCH  11  12
ATOM     12  C   UNL     1       5.671   5.679  17.949  0.00  0.00    +0.000 A 
ATOM     13  C   UNL     1       6.561   5.277  18.955  0.00  0.00    +0.000 A 
ATOM     14  C   UNL     1       7.759   5.966  19.160  0.00  0.00    +0.000 A 
ATOM     15  C   UNL     1       8.088   7.056  18.356  0.00  0.00    +0.000 A 
ATOM     16  C   UNL     1       7.196   7.487  17.377  0.00  0.00    +0.000 A 
ATOM     17  C   UNL     1       5.983   6.823  17.198  0.00  0.00    +0.000 A 
ENDBRANCH  11  12
ENDBRANCH   4   7
BRANCH   1  18
ATOM     18  S   UNL     1       0.815   9.433  21.565  0.00  0.00    +0.000 S 
ATOM     19  O   UNL     1      -0.457   9.038  22.120  0.00  0.00    +0.000 OA
ATOM     20  O   UNL     1       1.016  10.706  20.903  0.00  0.00    +0.000 OA
BRANCH  18  21
ATOM     21  N   UNL     1       1.925   9.417  22.823  0.00  0.00    +0.000 NA
ATOM     22  H   UNL     1       1.437   9.205  23.696  0.00  0.00    +0.000 HD
ATOM     23  H   UNL     1       2.439  10.296  22.847  0.00  0.00    +0.000 HD
ENDBRANCH  18  21
ENDBRANCH   1  18
TORSDOF 4
ENDMDL
MODEL 9
REMARK VINA RESULT:      -7.6      3.659      5.647
REMARK  Name = 
REMARK  4 active torsions:
REMARK  status: ('A' for Active; 'I' for Inactive)
REMARK    1  A    between atoms: N_1  and  S_2
REMARK    2  A    between atoms: S_2  and  C_5
REMARK    3  A    between atoms: C_8  and  C_9
REMARK    4  A    between atoms: C_13  and  C_14
REMARK                            x       y       z     vdW  Elec       q    Type
REMARK                         _______ _______ _______ _____ _____    ______ ____
ROOT
ATOM      1  C   UNL     1       1.257   8.847  19.942  0.00  0.00    +0.000 A 
ATOM      2  C   UNL     1       1.784   7.653  20.439  0.00  0.00    +0.000 A 
ATOM      3  C   UNL     1       2.605   6.867  19.620  0.00  0.00    +0.000 A 
ATOM      4  C   UNL     1       2.883   7.255  18.300  0.00  0.00    +0.000 A 
ATOM      5  C   UNL     1       2.294   8.431  17.807  0.00  0.00    +0.000 A 
ATOM      6  C   UNL     1       1.510   9.240  18.629  0.00  0.00    +0.000 A 
ENDROOT
BRANCH   4   7
ATOM      7  C   UNL     1       3.785   6.479  17.463  0.00  0.00    +0.000 A 
ATOM      8  C   UNL     1       4.773   7.032  16.687  0.00  0.00    +0.000 A 
ATOM      9  O   UNL     1       5.479   6.059  16.069  0.00  0.00    +0.000 OA
ATOM     10  N   UNL     1       4.968   4.826  16.416  0.00  0.00    +0.000 NA
ATOM     11  C   UNL     1       3.929   5.061  17.239  0.00  0.00    +0.000 A 
BRANCH  11  12
ATOM     12  C   UNL     1       3.142   3.949  17.784  0.00  0.00    +0.000 A 
ATOM     13  C   UNL     1       3.778   2.832  18.345  0.00  0.00    +0.000 A 
ATOM     14  C   UNL     1       3.031   1.828  18.966  0.00  0.00    +0.000 A 
ATOM     15  C   UNL     1       1.643   1.934  19.047  0.00  0.00    +0.000 A 
ATOM     16  C   UNL     1       0.998   3.020  18.462  0.00  0.00    +0.000 A 
ATOM     17  C   UNL     1       1.741   4.003  17.807  0.00  0.00    +0.000 A 
ENDBRANCH  11  12
ENDBRANCH   4   7
BRANCH   1  18
ATOM     18  S   UNL     1       0.305   9.898  20.992  0.00  0.00    +0.000 S 
ATOM     19  O   UNL     1       1.140  10.983  21.446  0.00  0.00    +0.000 OA
ATOM     20  O   UNL     1      -0.478   9.084  21.899  0.00  0.00    +0.000 OA
BRANCH  18  21
ATOM     21  N   UNL     1      -0.810  10.553  19.922  0.00  0.00    +0.000 NA
ATOM     22  H   UNL     1      -0.316  11.132  19.240  0.00  0.00    +0.000 HD
ATOM     23  H   UNL     1      -1.534  11.054  20.433  0.00  0.00    +0.000 HD
ENDBRANCH  18  21
ENDBRANCH   1  18
TORSDOF 4
ENDMDL
