MODEL 1
REMARK VINA RESULT:      -8.6      0.000      0.000
REMARK  Name = 
REMARK  9 active torsions:
REMARK  status: ('A' for Active; 'I' for Inactive)
REMARK    1  A    between atoms: C_1  and  C_2
REMARK    2  A    between atoms: C_6  and  C_7
REMARK    3  A    between atoms: C_7  and  O_9
REMARK    4  A    between atoms: O_9  and  C_10
REMARK    5  A    between atoms: C_13  and  O_14
REMARK    6  A    between atoms: O_14  and  C_15
REMARK    7  A    between atoms: C_15  and  C_16
REMARK    8  A    between atoms: C_16  and  C_17
REMARK    9  A    between atoms: C_17  and  N_18
REMARK                            x       y       z     vdW  Elec       q    Type
REMARK                         _______ _______ _______ _____ _____    ______ ____
ROOT
ATOM      1  C   UNL     1       0.414  11.162  20.613  0.00  0.00    +0.000 C 
ATOM      2  O   UNL     1       1.380  11.916  20.572  0.00  0.00    +0.000 OA
ENDROOT
BRANCH   1   8
ATOM      3  C   UNL     1       0.132   9.331  23.230  0.00  0.00    +0.000 C 
ATOM      4  C   UNL     1      -0.699  10.453  22.738  0.00  0.00    +0.000 A 
ATOM      5  O   UNL     1      -1.750  10.794  23.530  0.00  0.00    +0.000 OA
ATOM      6  C   UNL     1      -2.359  11.845  22.933  0.00  0.00    +0.000 A 
ATOM      7  C   UNL     1      -1.713  12.196  21.770  0.00  0.00    +0.000 A 
ATOM      8  C   UNL     1      -0.623  11.286  21.627  0.00  0.00    +0.000 A 
ATOM      9  C   UNL     1      -2.223  13.293  20.962  0.00  0.00    +0.000 C 
ATOM     10  O   UNL     1      -1.703  13.617  19.904  0.00  0.00    +0.000 OA
ATOM     11  C   UNL     1      -3.457  13.986  21.506  0.00  0.00    +0.000 A 
ATOM     12  N   UNL     1      -3.934  15.017  20.757  0.00  0.00    +0.000 NA
ATOM     13  C   UNL     1      -5.046  15.647  21.200  0.00  0.00    +0.000 A 
ATOM     14  C   UNL     1      -5.718  15.300  22.362  0.00  0.00    +0.000 A 
ATOM     15  C   UNL     1      -5.221  14.248  23.123  0.00  0.00    +0.000 A 
ATOM     16  C   UNL     1      -4.070  13.576  22.695  0.00  0.00    +0.000 A 
ATOM     17  C   UNL     1      -3.528  12.452  23.494  0.00  0.00    +0.000 C 
ATOM     18  O   UNL     1      -4.080  12.118  24.536  0.00  0.00    +0.000 OA
ENDBRANCH   1   8
BRANCH   1  19
ATOM     19  O   UNL     1       0.118  10.190  19.668  0.00  0.00    +0.000 OA
BRANCH  19  20
ATOM     20  C   UNL     1       1.138   9.301  19.278  0.00  0.00    +0.000 A 
ATOM     21  C   UNL     1       1.432   8.260  20.153  0.00  0.00    +0.000 A 
ATOM     22  C   UNL     1       2.333   7.266  19.764  0.00  0.00    +0.000 A 
ATOM     23  C   UNL     1       2.909   7.286  18.491  0.00  0.00    +0.000 A 
ATOM     24  C   UNL     1       2.625   8.353  17.633  0.00  0.00    +0.000 A 
ATOM     25  C   UNL     1       1.737   9.358  18.020  0.00  0.00    +0.000 A 
BRANCH  23  26
ATOM     26  O   UNL     1       3.724   6.318  17.963  0.00  0.00    +0.000 OA
BRANCH  26  27
ATOM     27  C   UNL     1       3.398   4.958  18.255  0.00  0.00    +0.000 C 
BRANCH  27  28
ATOM     28  C   UNL     1       4.676   4.209  18.629  0.00  0.00    +0.000 C 
BRANCH  28  29
ATOM     29  C   UNL     1       5.709   5.164  19.241  0.00  0.00    +0.000 C 
BRANCH  29  30
ATOM     30  N   UNL     1       7.061   5.003  18.691  0.00  0.00    +0.000 NA
ATOM     31  C   UNL     1       7.813   6.280  18.709  0.00  0.00    +0.000 C 
ATOM     32  C   UNL     1       7.417   7.251  17.582  0.00  0.00    +0.000 C 
ATOM     33  O   UNL     1       7.581   6.638  16.298  0.00  0.00    +0.000 OA
ATOM     34  C   UNL     1       6.783   5.452  16.205  0.00  0.00    +0.000 C 
ATOM     35  C   UNL     1       7.114   4.449  17.323  0.00  0.00    +0.000 C 
ENDBRANCH  29  30
ENDBRANCH  28  29
ENDBRANCH  27  28
ENDBRANCH  26  27
ENDBRANCH  23  26
ENDBRANCH  19  20
ENDBRANCH   1  19
TORSDOF 8
ENDMDL
MODEL 2
REMARK VINA RESULT:      -8.3      1.763      3.034
REMARK  Name = 
REMARK  9 active torsions:
REMARK  status: ('A' for Active; 'I' for Inactive)
REMARK    1  A    between atoms: C_1  and  C_2
REMARK    2  A    between atoms: C_6  and  C_7
REMARK    3  A    between atoms: C_7  and  O_9
REMARK    4  A    between atoms: O_9  and  C_10
REMARK    5  A    between atoms: C_13  and  O_14
REMARK    6  A    between atoms: O_14  and  C_15
REMARK    7  A    between atoms: C_15  and  C_16
REMARK    8  A    between atoms: C_16  and  C_17
REMARK    9  A    between atoms: C_17  and  N_18
REMARK                            x       y       z     vdW  Elec       q    Type
REMARK                         _______ _______ _______ _____ _____    ______ ____
ROOT
ATOM      1  C   UNL     1       0.509  11.544  20.882  0.00  0.00    +0.000 C 
ATOM      2  O   UNL     1       1.563  12.120  21.130  0.00  0.00    +0.000 OA
ENDROOT
BRANCH   1   8
ATOM      3  C   UNL     1      -0.020   9.548  23.335  0.00  0.00    +0.000 C 
ATOM      4  C   UNL     1      -0.811  10.692  22.828  0.00  0.00    +0.000 A 
ATOM      5  O   UNL     1      -1.946  10.972  23.523  0.00  0.00    +0.000 OA
ATOM      6  C   UNL     1      -2.505  12.053  22.931  0.00  0.00    +0.000 A 
ATOM      7  C   UNL     1      -1.745  12.483  21.867  0.00  0.00    +0.000 A 
ATOM      8  C   UNL     1      -0.632  11.594  21.785  0.00  0.00    +0.000 A 
ATOM      9  C   UNL     1      -2.184  13.624  21.080  0.00  0.00    +0.000 C 
ATOM     10  O   UNL     1      -1.560  14.020  20.105  0.00  0.00    +0.000 OA
ATOM     11  C   UNL     1      -3.479  14.270  21.530  0.00  0.00    +0.000 A 
ATOM     12  N   UNL     1      -3.891  15.343  20.800  0.00  0.00    +0.000 NA
ATOM     13  C   UNL     1      -5.053  15.933  21.160  0.00  0.00    +0.000 A 
ATOM     14  C   UNL     1      -5.839  15.507  22.220  0.00  0.00    +0.000 A 
ATOM     15  C   UNL     1      -5.409  14.413  22.962  0.00  0.00    +0.000 A 
ATOM     16  C   UNL     1      -4.208  13.780  22.619  0.00  0.00    +0.000 A 
ATOM     17  C   UNL     1      -3.737  12.613  23.400  0.00  0.00    +0.000 C 
ATOM     18  O   UNL     1      -4.391  12.208  24.354  0.00  0.00    +0.000 OA
ENDBRANCH   1   8
BRANCH   1  19
ATOM     19  O   UNL     1       0.219  10.881  19.697  0.00  0.00    +0.000 OA
BRANCH  19  20
ATOM     20  C   UNL     1       0.920   9.695  19.404  0.00  0.00    +0.000 A 
ATOM     21  C   UNL     1       1.525   9.616  18.154  0.00  0.00    +0.000 A 
ATOM     22  C   UNL     1       2.350   8.529  17.856  0.00  0.00    +0.000 A 
ATOM     23  C   UNL     1       2.604   7.545  18.814  0.00  0.00    +0.000 A 
ATOM     24  C   UNL     1       1.968   7.623  20.056  0.00  0.00    +0.000 A 
ATOM     25  C   UNL     1       1.130   8.699  20.357  0.00  0.00    +0.000 A 
BRANCH  23  26
ATOM     26  O   UNL     1       3.470   6.491  18.672  0.00  0.00    +0.000 OA
BRANCH  26  27
ATOM     27  C   UNL     1       3.843   6.125  17.341  0.00  0.00    +0.000 C 
BRANCH  27  28
ATOM     28  C   UNL     1       3.892   4.602  17.240  0.00  0.00    +0.000 C 
BRANCH  28  29
ATOM     29  C   UNL     1       3.880   3.961  18.634  0.00  0.00    +0.000 C 
BRANCH  29  30
ATOM     30  N   UNL     1       2.881   2.895  18.785  0.00  0.00    +0.000 NA
ATOM     31  C   UNL     1       1.500   3.434  18.759  0.00  0.00    +0.000 C 
ATOM     32  C   UNL     1       1.066   4.097  20.077  0.00  0.00    +0.000 C 
ATOM     33  O   UNL     1       1.182   3.182  21.172  0.00  0.00    +0.000 OA
ATOM     34  C   UNL     1       2.532   2.718  21.296  0.00  0.00    +0.000 C 
ATOM     35  C   UNL     1       3.035   2.066  19.998  0.00  0.00    +0.000 C 
ENDBRANCH  29  30
ENDBRANCH  28  29
ENDBRANCH  27  28
ENDBRANCH  26  27
ENDBRANCH  23  26
ENDBRANCH  19  20
ENDBRANCH   1  19
TORSDOF 8
ENDMDL
MODEL 3
REMARK VINA RESULT:      -8.1      4.698      8.400
REMARK  Name = 
REMARK  9 active torsions:
REMARK  status: ('A' for Active; 'I' for Inactive)
REMARK    1  A    between atoms: C_1  and  C_2
REMARK    2  A    between atoms: C_6  and  C_7
REMARK    3  A    between atoms: C_7  and  O_9
REMARK    4  A    between atoms: O_9  and  C_10
REMARK    5  A    between atoms: C_13  and  O_14
REMARK    6  A    between atoms: O_14  and  C_15
REMARK    7  A    between atoms: C_15  and  C_16
REMARK    8  A    between atoms: C_16  and  C_17
REMARK    9  A    between atoms: C_17  and  N_18
REMARK                            x       y       z     vdW  Elec       q    Type
REMARK                         _______ _______ _______ _____ _____    ______ ____
ROOT
ATOM      1  C   UNL     1       4.915   4.515  16.868  0.00  0.00    +0.000 C 
ATOM      2  O   UNL     1       4.448   4.310  15.753  0.00  0.00    +0.000 OA
ENDROOT
BRANCH   1   8
ATOM      3  C   UNL     1       4.253   2.724  19.444  0.00  0.00    +0.000 C 
ATOM      4  C   UNL     1       3.826   4.094  19.080  0.00  0.00    +0.000 A 
ATOM      5  O   UNL     1       3.039   4.723  19.993  0.00  0.00    +0.000 OA
ATOM      6  C   UNL     1       2.784   5.956  19.498  0.00  0.00    +0.000 A 
ATOM      7  C   UNL     1       3.401   6.140  18.282  0.00  0.00    +0.000 A 
ATOM      8  C   UNL     1       4.086   4.921  17.993  0.00  0.00    +0.000 A 
ATOM      9  C   UNL     1       3.235   7.396  17.569  0.00  0.00    +0.000 C 
ATOM     10  O   UNL     1       3.735   7.591  16.470  0.00  0.00    +0.000 OA
ATOM     11  C   UNL     1       2.378   8.435  18.266  0.00  0.00    +0.000 A 
ATOM     12  N   UNL     1       2.225   9.615  17.605  0.00  0.00    +0.000 NA
ATOM     13  C   UNL     1       1.450  10.559  18.187  0.00  0.00    +0.000 A 
ATOM     14  C   UNL     1       0.810  10.388  19.405  0.00  0.00    +0.000 A 
ATOM     15  C   UNL     1       0.975   9.181  20.074  0.00  0.00    +0.000 A 
ATOM     16  C   UNL     1       1.773   8.183  19.502  0.00  0.00    +0.000 A 
ATOM     17  C   UNL     1       1.958   6.891  20.203  0.00  0.00    +0.000 C 
ATOM     18  O   UNL     1       1.423   6.699  21.288  0.00  0.00    +0.000 OA
ENDBRANCH   1   8
BRANCH   1  19
ATOM     19  O   UNL     1       6.234   4.288  17.237  0.00  0.00    +0.000 OA
BRANCH  19  20
ATOM     20  C   UNL     1       7.019   5.389  17.631  0.00  0.00    +0.000 A 
ATOM     21  C   UNL     1       6.966   6.519  16.821  0.00  0.00    +0.000 A 
ATOM     22  C   UNL     1       7.609   7.690  17.230  0.00  0.00    +0.000 A 
ATOM     23  C   UNL     1       8.268   7.748  18.460  0.00  0.00    +0.000 A 
ATOM     24  C   UNL     1       8.336   6.597  19.250  0.00  0.00    +0.000 A 
ATOM     25  C   UNL     1       7.708   5.418  18.843  0.00  0.00    +0.000 A 
BRANCH  23  26
ATOM     26  O   UNL     1       8.846   8.863  19.010  0.00  0.00    +0.000 OA
BRANCH  26  27
ATOM     27  C   UNL     1       8.778  10.075  18.255  0.00  0.00    +0.000 C 
BRANCH  27  28
ATOM     28  C   UNL     1       9.416  11.201  19.065  0.00  0.00    +0.000 C 
BRANCH  28  29
ATOM     29  C   UNL     1       9.274  12.545  18.338  0.00  0.00    +0.000 C 
BRANCH  29  30
ATOM     30  N   UNL     1       9.948  13.659  19.018  0.00  0.00    +0.000 NA
ATOM     31  C   UNL     1       9.033  14.807  19.223  0.00  0.00    +0.000 C 
ATOM     32  C   UNL     1       8.803  15.653  17.959  0.00  0.00    +0.000 C 
ATOM     33  O   UNL     1      10.043  16.141  17.437  0.00  0.00    +0.000 OA
ATOM     34  C   UNL     1      10.918  15.051  17.125  0.00  0.00    +0.000 C 
ATOM     35  C   UNL     1      11.169  14.150  18.346  0.00  0.00    +0.000 C 
ENDBRANCH  29  30
ENDBRANCH  28  29
ENDBRANCH  27  28
ENDBRANCH  26  27
ENDBRANCH  23  26
ENDBRANCH  19  20
ENDBRANCH   1  19
TORSDOF 8
ENDMDL
MODEL 4
REMARK VINA RESULT:      -8.0      2.945      4.313
REMARK  Name = 
REMARK  9 active torsions:
REMARK  status: ('A' for Active; 'I' for Inactive)
REMARK    1  A    between atoms: C_1  and  C_2
REMARK    2  A    between atoms: C_6  and  C_7
REMARK    3  A    between atoms: C_7  and  O_9
REMARK    4  A    between atoms: O_9  and  C_10
REMARK    5  A    between atoms: C_13  and  O_14
REMARK    6  A    between atoms: O_14  and  C_15
REMARK    7  A    between atoms: C_15  and  C_16
REMARK    8  A    between atoms: C_16  and  C_17
REMARK    9  A    between atoms: C_17  and  N_18
REMARK                            x       y       z     vdW  Elec       q    Type
REMARK                         _______ _______ _______ _____ _____    ______ ____
ROOT
ATOM      1  C   UNL     1       0.487   9.907  20.092  0.00  0.00    +0.000 C 
ATOM      2  O   UNL     1      -0.188   9.649  19.101  0.00  0.00    +0.000 OA
ENDROOT
BRANCH   1   8
ATOM      3  C   UNL     1      -0.925  10.922  22.786  0.00  0.00    +0.000 C 
ATOM      4  C   UNL     1      -0.070  11.636  21.811  0.00  0.00    +0.000 A 
ATOM      5  O   UNL     1       0.190  12.938  22.106  0.00  0.00    +0.000 OA
ATOM      6  C   UNL     1       1.001  13.401  21.125  0.00  0.00    +0.000 A 
ATOM      7  C   UNL     1       1.276  12.416  20.204  0.00  0.00    +0.000 A 
ATOM      8  C   UNL     1       0.575  11.252  20.640  0.00  0.00    +0.000 A 
ATOM      9  C   UNL     1       2.116  12.715  19.056  0.00  0.00    +0.000 C 
ATOM     10  O   UNL     1       2.359  11.883  18.193  0.00  0.00    +0.000 OA
ATOM     11  C   UNL     1       2.645  14.135  18.984  0.00  0.00    +0.000 A 
ATOM     12  N   UNL     1       3.437  14.418  17.914  0.00  0.00    +0.000 NA
ATOM     13  C   UNL     1       3.911  15.680  17.806  0.00  0.00    +0.000 A 
ATOM     14  C   UNL     1       3.634  16.689  18.716  0.00  0.00    +0.000 A 
ATOM     15  C   UNL     1       2.827  16.389  19.808  0.00  0.00    +0.000 A 
ATOM     16  C   UNL     1       2.322  15.091  19.953  0.00  0.00    +0.000 A 
ATOM     17  C   UNL     1       1.461  14.757  21.110  0.00  0.00    +0.000 C 
ATOM     18  O   UNL     1       1.199  15.612  21.949  0.00  0.00    +0.000 OA
ENDBRANCH   1   8
BRANCH   1  19
ATOM     19  O   UNL     1       1.148   8.971  20.875  0.00  0.00    +0.000 OA
BRANCH  19  20
ATOM     20  C   UNL     1       1.671   7.822  20.249  0.00  0.00    +0.000 A 
ATOM     21  C   UNL     1       1.509   6.614  20.919  0.00  0.00    +0.000 A 
ATOM     22  C   UNL     1       1.878   5.423  20.290  0.00  0.00    +0.000 A 
ATOM     23  C   UNL     1       2.369   5.431  18.982  0.00  0.00    +0.000 A 
ATOM     24  C   UNL     1       2.551   6.655  18.331  0.00  0.00    +0.000 A 
ATOM     25  C   UNL     1       2.198   7.851  18.958  0.00  0.00    +0.000 A 
BRANCH  23  26
ATOM     26  O   UNL     1       2.668   4.325  18.229  0.00  0.00    +0.000 OA
BRANCH  26  27
ATOM     27  C   UNL     1       3.957   4.281  17.614  0.00  0.00    +0.000 C 
BRANCH  27  28
ATOM     28  C   UNL     1       4.985   3.827  18.648  0.00  0.00    +0.000 C 
BRANCH  28  29
ATOM     29  C   UNL     1       5.833   5.011  19.132  0.00  0.00    +0.000 C 
BRANCH  29  30
ATOM     30  N   UNL     1       7.221   4.979  18.653  0.00  0.00    +0.000 NA
ATOM     31  C   UNL     1       7.862   6.312  18.748  0.00  0.00    +0.000 C 
ATOM     32  C   UNL     1       7.445   7.284  17.630  0.00  0.00    +0.000 C 
ATOM     33  O   UNL     1       7.726   6.730  16.340  0.00  0.00    +0.000 OA
ATOM     34  C   UNL     1       7.035   5.486  16.169  0.00  0.00    +0.000 C 
ATOM     35  C   UNL     1       7.391   4.477  17.274  0.00  0.00    +0.000 C 
ENDBRANCH  29  30
ENDBRANCH  28  29
ENDBRANCH  27  28
ENDBRANCH  26  27
ENDBRANCH  23  26
ENDBRANCH  19  20
ENDBRANCH   1  19
TORSDOF 8
ENDMDL
MODEL 5
REMARK VINA RESULT:      -7.9      1.318      2.436
REMARK  Name = 
REMARK  9 active torsions:
REMARK  status: ('A' for Active; 'I' for Inactive)
REMARK    1  A    between atoms: C_1  and  C_2
REMARK    2  A    between atoms: C_6  and  C_7
REMARK    3  A    between atoms: C_7  and  O_9
REMARK    4  A    between atoms: O_9  and  C_10
REMARK    5  A    between atoms: C_13  and  O_14
REMARK    6  A    between atoms: O_14  and  C_15
REMARK    7  A    between atoms: C_15  and  C_16
REMARK    8  A    between atoms: C_16  and  C_17
REMARK    9  A    between atoms: C_17  and  N_18
REMARK                            x       y       z     vdW  Elec       q    Type
REMARK                         _______ _______ _______ _____ _____    ______ ____
ROOT
ATOM      1  C   UNL     1       0.599  11.569  20.619  0.00  0.00    +0.000 C 
ATOM      2  O   UNL     1       1.716  11.696  21.109  0.00  0.00    +0.000 OA
ENDROOT
BRANCH   1   8
ATOM      3  C   UNL     1       0.755  14.113  18.672  0.00  0.00    +0.000 C 
ATOM      4  C   UNL     1      -0.231  13.749  19.716  0.00  0.00    +0.000 A 
ATOM      5  O   UNL     1      -1.265  14.618  19.872  0.00  0.00    +0.000 OA
ATOM      6  C   UNL     1      -2.061  14.102  20.837  0.00  0.00    +0.000 A 
ATOM      7  C   UNL     1      -1.563  12.906  21.303  0.00  0.00    +0.000 A 
ATOM      8  C   UNL     1      -0.357  12.665  20.578  0.00  0.00    +0.000 A 
ATOM      9  C   UNL     1      -2.262  12.195  22.361  0.00  0.00    +0.000 C 
ATOM     10  O   UNL     1      -1.838  11.149  22.831  0.00  0.00    +0.000 OA
ATOM     11  C   UNL     1      -3.532  12.854  22.862  0.00  0.00    +0.000 A 
ATOM     12  N   UNL     1      -4.194  12.189  23.849  0.00  0.00    +0.000 NA
ATOM     13  C   UNL     1      -5.321  12.756  24.335  0.00  0.00    +0.000 A 
ATOM     14  C   UNL     1      -5.831  13.965  23.888  0.00  0.00    +0.000 A 
ATOM     15  C   UNL     1      -5.152  14.635  22.878  0.00  0.00    +0.000 A 
ATOM     16  C   UNL     1      -3.983  14.075  22.349  0.00  0.00    +0.000 A 
ATOM     17  C   UNL     1      -3.246  14.777  21.272  0.00  0.00    +0.000 C 
ATOM     18  O   UNL     1      -3.666  15.842  20.835  0.00  0.00    +0.000 OA
ENDBRANCH   1   8
BRANCH   1  19
ATOM     19  O   UNL     1       0.141  10.440  19.952  0.00  0.00    +0.000 OA
BRANCH  19  20
ATOM     20  C   UNL     1       1.088   9.522  19.459  0.00  0.00    +0.000 A 
ATOM     21  C   UNL     1       1.429   8.463  20.294  0.00  0.00    +0.000 A 
ATOM     22  C   UNL     1       2.254   7.444  19.811  0.00  0.00    +0.000 A 
ATOM     23  C   UNL     1       2.705   7.459  18.489  0.00  0.00    +0.000 A 
ATOM     24  C   UNL     1       2.377   8.544  17.671  0.00  0.00    +0.000 A 
ATOM     25  C   UNL     1       1.564   9.574  18.150  0.00  0.00    +0.000 A 
BRANCH  23  26
ATOM     26  O   UNL     1       3.432   6.471  17.877  0.00  0.00    +0.000 OA
BRANCH  26  27
ATOM     27  C   UNL     1       3.081   5.119  18.178  0.00  0.00    +0.000 C 
BRANCH  27  28
ATOM     28  C   UNL     1       4.358   4.315  18.415  0.00  0.00    +0.000 C 
BRANCH  28  29
ATOM     29  C   UNL     1       5.432   5.181  19.087  0.00  0.00    +0.000 C 
BRANCH  29  30
ATOM     30  N   UNL     1       6.795   4.902  18.616  0.00  0.00    +0.000 NA
ATOM     31  C   UNL     1       7.688   6.070  18.807  0.00  0.00    +0.000 C 
ATOM     32  C   UNL     1       7.498   7.176  17.755  0.00  0.00    +0.000 C 
ATOM     33  O   UNL     1       7.688   6.663  16.432  0.00  0.00    +0.000 OA
ATOM     34  C   UNL     1       6.766   5.597  16.171  0.00  0.00    +0.000 C 
ATOM     35  C   UNL     1       6.890   4.468  17.208  0.00  0.00    +0.000 C 
ENDBRANCH  29  30
ENDBRANCH  28  29
ENDBRANCH  27  28
ENDBRANCH  26  27
ENDBRANCH  23  26
ENDBRANCH  19  20
ENDBRANCH   1  19
TORSDOF 8
ENDMDL
MODEL 6
REMARK VINA RESULT:      -7.9      4.044      6.993
REMARK  Name = 
REMARK  9 active torsions:
REMARK  status: ('A' for Active; 'I' for Inactive)
REMARK    1  A    between atoms: C_1  and  C_2
REMARK    2  A    between atoms: C_6  and  C_7
REMARK    3  A    between atoms: C_7  and  O_9
REMARK    4  A    between atoms: O_9  and  C_10
REMARK    5  A    between atoms: C_13  and  O_14
REMARK    6  A    between atoms: O_14  and  C_15
REMARK    7  A    between atoms: C_15  and  C_16
REMARK    8  A    between atoms: C_16  and  C_17
REMARK    9  A    between atoms: C_17  and  N_18
REMARK                            x       y       z     vdW  Elec       q    Type
REMARK                         _______ _______ _______ _____ _____    ______ ____
ROOT
ATOM      1  C   UNL     1       2.936   4.646  18.277  0.00  0.00    +0.000 C 
ATOM      2  O   UNL     1       2.244   4.189  17.373  0.00  0.00    +0.000 OA
ENDROOT
BRANCH   1   8
ATOM      3  C   UNL     1       2.137   3.649  21.218  0.00  0.00    +0.000 C 
ATOM      4  C   UNL     1       2.044   4.986  20.588  0.00  0.00    +0.000 A 
ATOM      5  O   UNL     1       1.561   5.975  21.387  0.00  0.00    +0.000 OA
ATOM      6  C   UNL     1       1.580   7.110  20.650  0.00  0.00    +0.000 A 
ATOM      7  C   UNL     1       2.076   6.873  19.388  0.00  0.00    +0.000 A 
ATOM      8  C   UNL     1       2.380   5.479  19.333  0.00  0.00    +0.000 A 
ATOM      9  C   UNL     1       2.161   7.962  18.428  0.00  0.00    +0.000 C 
ATOM     10  O   UNL     1       2.561   7.791  17.285  0.00  0.00    +0.000 OA
ATOM     11  C   UNL     1       1.693   9.313  18.931  0.00  0.00    +0.000 A 
ATOM     12  N   UNL     1       1.777  10.338  18.037  0.00  0.00    +0.000 NA
ATOM     13  C   UNL     1       1.350  11.555  18.443  0.00  0.00    +0.000 A 
ATOM     14  C   UNL     1       0.835  11.811  19.705  0.00  0.00    +0.000 A 
ATOM     15  C   UNL     1       0.757  10.760  20.612  0.00  0.00    +0.000 A 
ATOM     16  C   UNL     1       1.194   9.487  20.226  0.00  0.00    +0.000 A 
ATOM     17  C   UNL     1       1.117   8.357  21.180  0.00  0.00    +0.000 C 
ATOM     18  O   UNL     1       0.682   8.537  22.312  0.00  0.00    +0.000 OA
ENDBRANCH   1   8
BRANCH   1  19
ATOM     19  O   UNL     1       4.277   4.354  18.483  0.00  0.00    +0.000 OA
BRANCH  19  20
ATOM     20  C   UNL     1       5.224   5.379  18.291  0.00  0.00    +0.000 A 
ATOM     21  C   UNL     1       6.335   5.373  19.128  0.00  0.00    +0.000 A 
ATOM     22  C   UNL     1       7.376   6.275  18.897  0.00  0.00    +0.000 A 
ATOM     23  C   UNL     1       7.329   7.153  17.812  0.00  0.00    +0.000 A 
ATOM     24  C   UNL     1       6.194   7.167  16.996  0.00  0.00    +0.000 A 
ATOM     25  C   UNL     1       5.143   6.277  17.227  0.00  0.00    +0.000 A 
BRANCH  23  26
ATOM     26  O   UNL     1       8.329   8.010  17.428  0.00  0.00    +0.000 OA
BRANCH  26  27
ATOM     27  C   UNL     1       8.238   9.364  17.875  0.00  0.00    +0.000 C 
BRANCH  27  28
ATOM     28  C   UNL     1       9.236   9.581  19.010  0.00  0.00    +0.000 C 
BRANCH  28  29
ATOM     29  C   UNL     1       9.181  11.029  19.517  0.00  0.00    +0.000 C 
BRANCH  29  30
ATOM     30  N   UNL     1       9.837  11.993  18.623  0.00  0.00    +0.000 NA
ATOM     31  C   UNL     1      11.226  11.585  18.306  0.00  0.00    +0.000 C 
ATOM     32  C   UNL     1      12.231  11.872  19.435  0.00  0.00    +0.000 C 
ATOM     33  O   UNL     1      12.228  13.261  19.782  0.00  0.00    +0.000 OA
ATOM     34  C   UNL     1      10.918  13.669  20.197  0.00  0.00    +0.000 C 
ATOM     35  C   UNL     1       9.861  13.384  19.118  0.00  0.00    +0.000 C 
ENDBRANCH  29  30
ENDBRANCH  28  29
ENDBRANCH  27  28
ENDBRANCH  26  27
ENDBRANCH  23  26
ENDBRANCH  19  20
ENDBRANCH   1  19
TORSDOF 8
ENDMDL
MODEL 7
REMARK VINA RESULT:      -7.9      2.237      3.307
REMARK  Name = 
REMARK  9 active torsions:
REMARK  status: ('A' for Active; 'I' for Inactive)
REMARK    1  A    between atoms: C_1  and  C_2
REMARK    2  A    between atoms: C_6  and  C_7
REMARK    3  A    between atoms: C_7  and  O_9
REMARK    4  A    between atoms: O_9  and  C_10
REMARK    5  A    between atoms: C_13  and  O_14
REMARK    6  A    between atoms: O_14  and  C_15
REMARK    7  A    between atoms: C_15  and  C_16
REMARK    8  A    between atoms: C_16  and  C_17
REMARK    9  A    between atoms: C_17  and  N_18
REMARK                            x       y       z     vdW  Elec       q    Type
REMARK                         _______ _______ _______ _____ _____    ______ ____
ROOT
ATOM      1  C   UNL     1       0.018   8.862  21.067  0.00  0.00    +0.000 C 
ATOM      2  O   UNL     1      -0.906   8.200  21.526  0.00  0.00    +0.000 OA
ENDROOT
BRANCH   1   8
ATOM      3  C   UNL     1       0.051   9.582  17.942  0.00  0.00    +0.000 C 
ATOM      4  C   UNL     1      -0.150  10.439  19.133  0.00  0.00    +0.000 A 
ATOM      5  O   UNL     1      -0.384  11.753  18.875  0.00  0.00    +0.000 OA
ATOM      6  C   UNL     1      -0.569  12.355  20.072  0.00  0.00    +0.000 A 
ATOM      7  C   UNL     1      -0.465  11.449  21.103  0.00  0.00    +0.000 A 
ATOM      8  C   UNL     1      -0.185  10.187  20.500  0.00  0.00    +0.000 A 
ATOM      9  C   UNL     1      -0.611  11.899  22.478  0.00  0.00    +0.000 C 
ATOM     10  O   UNL     1      -0.492  11.138  23.428  0.00  0.00    +0.000 OA
ATOM     11  C   UNL     1      -0.891  13.379  22.656  0.00  0.00    +0.000 A 
ATOM     12  N   UNL     1      -1.035  13.804  23.941  0.00  0.00    +0.000 NA
ATOM     13  C   UNL     1      -1.266  15.122  24.140  0.00  0.00    +0.000 A 
ATOM     14  C   UNL     1      -1.360  16.051  23.116  0.00  0.00    +0.000 A 
ATOM     15  C   UNL     1      -1.216  15.608  21.806  0.00  0.00    +0.000 A 
ATOM     16  C   UNL     1      -0.980  14.249  21.564  0.00  0.00    +0.000 A 
ATOM     17  C   UNL     1      -0.823  13.761  20.174  0.00  0.00    +0.000 C 
ATOM     18  O   UNL     1      -0.912  14.543  19.235  0.00  0.00    +0.000 OA
ENDBRANCH   1   8
BRANCH   1  19
ATOM     19  O   UNL     1       1.360   8.509  21.123  0.00  0.00    +0.000 OA
BRANCH  19  20
ATOM     20  C   UNL     1       1.805   7.441  20.320  0.00  0.00    +0.000 A 
ATOM     21  C   UNL     1       1.607   6.157  20.817  0.00  0.00    +0.000 A 
ATOM     22  C   UNL     1       1.898   5.054  20.010  0.00  0.00    +0.000 A 
ATOM     23  C   UNL     1       2.346   5.229  18.699  0.00  0.00    +0.000 A 
ATOM     24  C   UNL     1       2.566   6.525  18.223  0.00  0.00    +0.000 A 
ATOM     25  C   UNL     1       2.291   7.633  19.027  0.00  0.00    +0.000 A 
BRANCH  23  26
ATOM     26  O   UNL     1       2.567   4.231  17.785  0.00  0.00    +0.000 OA
BRANCH  26  27
ATOM     27  C   UNL     1       3.779   3.485  17.911  0.00  0.00    +0.000 C 
BRANCH  27  28
ATOM     28  C   UNL     1       4.647   3.735  16.679  0.00  0.00    +0.000 C 
BRANCH  28  29
ATOM     29  C   UNL     1       5.939   4.470  17.060  0.00  0.00    +0.000 C 
BRANCH  29  30
ATOM     30  N   UNL     1       5.733   5.573  18.008  0.00  0.00    +0.000 NA
ATOM     31  C   UNL     1       6.072   6.883  17.403  0.00  0.00    +0.000 C 
ATOM     32  C   UNL     1       7.583   7.162  17.330  0.00  0.00    +0.000 C 
ATOM     33  O   UNL     1       8.181   7.087  18.628  0.00  0.00    +0.000 OA
ATOM     34  C   UNL     1       7.965   5.792  19.204  0.00  0.00    +0.000 C 
ATOM     35  C   UNL     1       6.469   5.443  19.282  0.00  0.00    +0.000 C 
ENDBRANCH  29  30
ENDBRANCH  28  29
ENDBRANCH  27  28
ENDBRANCH  26  27
ENDBRANCH  23  26
ENDBRANCH  19  20
ENDBRANCH   1  19
TORSDOF 8
ENDMDL
MODEL 8
REMARK VINA RESULT:      -7.8      2.061      3.785
REMARK  Name = 
REMARK  9 active torsions:
REMARK  status: ('A' for Active; 'I' for Inactive)
REMARK    1  A    between atoms: C_1  and  C_2
REMARK    2  A    between atoms: C_6  and  C_7
REMARK    3  A    between atoms: C_7  and  O_9
REMARK    4  A    between atoms: O_9  and  C_10
REMARK    5  A    between atoms: C_13  and  O_14
REMARK    6  A    between atoms: O_14  and  C_15
REMARK    7  A    between atoms: C_15  and  C_16
REMARK    8  A    between atoms: C_16  and  C_17
REMARK    9  A    between atoms: C_17  and  N_18
REMARK                            x       y       z     vdW  Elec       q    Type
REMARK                         _______ _______ _______ _____ _____    ______ ____
ROOT
ATOM      1  C   UNL     1       0.386  11.412  20.962  0.00  0.00    +0.000 C 
ATOM      2  O   UNL     1       1.471  11.877  21.294  0.00  0.00    +0.000 OA
ENDROOT
BRANCH   1   8
ATOM      3  C   UNL     1      -0.058  13.260  18.378  0.00  0.00    +0.000 C 
ATOM      4  C   UNL     1      -0.905  13.043  19.573  0.00  0.00    +0.000 A 
ATOM      5  O   UNL     1      -2.086  13.717  19.582  0.00  0.00    +0.000 OA
ATOM      6  C   UNL     1      -2.721  13.369  20.725  0.00  0.00    +0.000 A 
ATOM      7  C   UNL     1      -1.972  12.474  21.454  0.00  0.00    +0.000 A 
ATOM      8  C   UNL     1      -0.774  12.255  20.711  0.00  0.00    +0.000 A 
ATOM      9  C   UNL     1      -2.468  11.988  22.732  0.00  0.00    +0.000 C 
ATOM     10  O   UNL     1      -1.822  11.220  23.431  0.00  0.00    +0.000 OA
ATOM     11  C   UNL     1      -3.824  12.521  23.152  0.00  0.00    +0.000 A 
ATOM     12  N   UNL     1      -4.296  12.065  24.345  0.00  0.00    +0.000 NA
ATOM     13  C   UNL     1      -5.494  12.534  24.762  0.00  0.00    +0.000 A 
ATOM     14  C   UNL     1      -6.256  13.445  24.048  0.00  0.00    +0.000 A 
ATOM     15  C   UNL     1      -5.769  13.903  22.830  0.00  0.00    +0.000 A 
ATOM     16  C   UNL     1      -4.533  13.435  22.366  0.00  0.00    +0.000 A 
ATOM     17  C   UNL     1      -4.000  13.914  21.069  0.00  0.00    +0.000 C 
ATOM     18  O   UNL     1      -4.644  14.710  20.396  0.00  0.00    +0.000 OA
ENDBRANCH   1   8
BRANCH   1  19
ATOM     19  O   UNL     1       0.143  10.076  20.673  0.00  0.00    +0.000 OA
BRANCH  19  20
ATOM     20  C   UNL     1       1.069   9.384  19.869  0.00  0.00    +0.000 A 
ATOM     21  C   UNL     1       1.577   8.194  20.379  0.00  0.00    +0.000 A 
ATOM     22  C   UNL     1       2.390   7.391  19.574  0.00  0.00    +0.000 A 
ATOM     23  C   UNL     1       2.662   7.753  18.253  0.00  0.00    +0.000 A 
ATOM     24  C   UNL     1       2.168   8.965  17.764  0.00  0.00    +0.000 A 
ATOM     25  C   UNL     1       1.367   9.780  18.566  0.00  0.00    +0.000 A 
BRANCH  23  26
ATOM     26  O   UNL     1       3.360   7.001  17.342  0.00  0.00    +0.000 OA
BRANCH  26  27
ATOM     27  C   UNL     1       4.423   6.188  17.843  0.00  0.00    +0.000 C 
BRANCH  27  28
ATOM     28  C   UNL     1       4.387   4.834  17.137  0.00  0.00    +0.000 C 
BRANCH  28  29
ATOM     29  C   UNL     1       3.110   4.063  17.497  0.00  0.00    +0.000 C 
BRANCH  29  30
ATOM     30  N   UNL     1       3.291   3.098  18.589  0.00  0.00    +0.000 NA
ATOM     31  C   UNL     1       2.332   1.972  18.488  0.00  0.00    +0.000 C 
ATOM     32  C   UNL     1       0.911   2.321  18.964  0.00  0.00    +0.000 C 
ATOM     33  O   UNL     1       0.926   2.791  20.317  0.00  0.00    +0.000 OA
ATOM     34  C   UNL     1       1.764   3.948  20.435  0.00  0.00    +0.000 C 
ATOM     35  C   UNL     1       3.196   3.670  19.948  0.00  0.00    +0.000 C 
ENDBRANCH  29  30
ENDBRANCH  28  29
ENDBRANCH  27  28
ENDBRANCH  26  27
ENDBRANCH  23  26
ENDBRANCH  19  20
ENDBRANCH   1  19
TORSDOF 8
ENDMDL
MODEL 9
REMARK VINA RESULT:      -7.8      4.525      7.513
REMARK  Name = 
REMARK  9 active torsions:
REMARK  status: ('A' for Active; 'I' for Inactive)
REMARK    1  A    between atoms: C_1  and  C_2
REMARK    2  A    between atoms: C_6  and  C_7
REMARK    3  A    between atoms: C_7  and  O_9
REMARK    4  A    between atoms: O_9  and  C_10
REMARK    5  A    between atoms: C_13  and  O_14
REMARK    6  A    between atoms: O_14  and  C_15
REMARK    7  A    between atoms: C_15  and  C_16
REMARK    8  A    between atoms: C_16  and  C_17
REMARK    9  A    between atoms: C_17  and  N_18
REMARK                            x       y       z     vdW  Elec       q    Type
REMARK                         _______ _______ _______ _____ _____    ______ ____
ROOT
ATOM      1  C   UNL     1       3.408   3.582  18.382  0.00  0.00    +0.000 C 
ATOM      2  O   UNL     1       2.750   2.866  17.635  0.00  0.00    +0.000 OA
ENDROOT
BRANCH   1   8
ATOM      3  C   UNL     1       2.440   2.828  21.344  0.00  0.00    +0.000 C 
ATOM      4  C   UNL     1       2.376   4.106  20.599  0.00  0.00    +0.000 A 
ATOM      5  O   UNL     1       1.840   5.154  21.280  0.00  0.00    +0.000 OA
ATOM      6  C   UNL     1       1.897   6.222  20.452  0.00  0.00    +0.000 A 
ATOM      7  C   UNL     1       2.469   5.885  19.247  0.00  0.00    +0.000 A 
ATOM      8  C   UNL     1       2.784   4.495  19.328  0.00  0.00    +0.000 A 
ATOM      9  C   UNL     1       2.605   6.890  18.205  0.00  0.00    +0.000 C 
ATOM     10  O   UNL     1       3.075   6.628  17.106  0.00  0.00    +0.000 OA
ATOM     11  C   UNL     1       2.100   8.274  18.561  0.00  0.00    +0.000 A 
ATOM     12  N   UNL     1       2.231   9.220  17.591  0.00  0.00    +0.000 NA
ATOM     13  C   UNL     1       1.773  10.462  17.866  0.00  0.00    +0.000 A 
ATOM     14  C   UNL     1       1.181  10.818  19.068  0.00  0.00    +0.000 A 
ATOM     15  C   UNL     1       1.055   9.847  20.054  0.00  0.00    +0.000 A 
ATOM     16  C   UNL     1       1.522   8.551  19.805  0.00  0.00    +0.000 A 
ATOM     17  C   UNL     1       1.394   7.504  20.846  0.00  0.00    +0.000 C 
ATOM     18  O   UNL     1       0.891   7.775  21.930  0.00  0.00    +0.000 OA
ENDBRANCH   1   8
BRANCH   1  19
ATOM     19  O   UNL     1       4.790   3.547  18.512  0.00  0.00    +0.000 OA
BRANCH  19  20
ATOM     20  C   UNL     1       5.519   4.719  18.232  0.00  0.00    +0.000 A 
ATOM     21  C   UNL     1       6.288   5.242  19.267  0.00  0.00    +0.000 A 
ATOM     22  C   UNL     1       7.142   6.318  19.014  0.00  0.00    +0.000 A 
ATOM     23  C   UNL     1       7.260   6.846  17.726  0.00  0.00    +0.000 A 
ATOM     24  C   UNL     1       6.462   6.328  16.703  0.00  0.00    +0.000 A 
ATOM     25  C   UNL     1       5.596   5.261  16.949  0.00  0.00    +0.000 A 
BRANCH  23  26
ATOM     26  O   UNL     1       8.134   7.830  17.339  0.00  0.00    +0.000 OA
BRANCH  26  27
ATOM     27  C   UNL     1       8.728   8.620  18.370  0.00  0.00    +0.000 C 
BRANCH  27  28
ATOM     28  C   UNL     1       8.394  10.090  18.124  0.00  0.00    +0.000 C 
BRANCH  28  29
ATOM     29  C   UNL     1       9.062  10.986  19.176  0.00  0.00    +0.000 C 
BRANCH  29  30
ATOM     30  N   UNL     1      10.513  11.128  18.994  0.00  0.00    +0.000 NA
ATOM     31  C   UNL     1      11.125  11.919  20.088  0.00  0.00    +0.000 C 
ATOM     32  C   UNL     1      10.909  13.436  19.955  0.00  0.00    +0.000 C 
ATOM     33  O   UNL     1      11.412  13.917  18.704  0.00  0.00    +0.000 OA
ATOM     34  C   UNL     1      10.764  13.248  17.615  0.00  0.00    +0.000 C 
ATOM     35  C   UNL     1      10.923  11.721  17.705  0.00  0.00    +0.000 C 
ENDBRANCH  29  30
ENDBRANCH  28  29
ENDBRANCH  27  28
ENDBRANCH  26  27
ENDBRANCH  23  26
ENDBRANCH  19  20
ENDBRANCH   1  19
TORSDOF 8
ENDMDL
