MODEL 1
REMARK VINA RESULT:      -7.2      0.000      0.000
REMARK  Name = 
REMARK  7 active torsions:
REMARK  status: ('A' for Active; 'I' for Inactive)
REMARK    1  A    between atoms: C_1  and  N_2
REMARK    2  A    between atoms: N_2  and  C_3
REMARK    3  A    between atoms: C_3  and  C_4
REMARK    4  A    between atoms: C_4  and  N_5
REMARK    5  A    between atoms: C_6  and  C_8
REMARK    6  A    between atoms: C_14  and  C_15
REMARK    7  A    between atoms: C_20  and  C_21
REMARK                            x       y       z     vdW  Elec       q    Type
REMARK                         _______ _______ _______ _____ _____    ______ ____
ROOT
ATOM      1  C   UNL     1       1.034  10.622  19.205  0.00  0.00    +0.000 C 
ATOM      2  C   UNL     1       1.794  11.900  18.744  0.00  0.00    +0.000 C 
ATOM      3  C   UNL     1       0.959  13.118  18.899  0.00  0.00    +0.000 A 
ATOM      4  C   UNL     1      -0.360  13.046  19.285  0.00  0.00    +0.000 A 
ATOM      5  N   UNL     1      -0.850  14.325  19.338  0.00  0.00    +0.000 N 
ATOM      6  C   UNL     1       0.104  15.222  18.894  0.00  0.00    +0.000 A 
ATOM      7  C   UNL     1       0.029  16.615  18.704  0.00  0.00    +0.000 A 
ATOM      8  C   UNL     1      -1.198  17.445  18.962  0.00  0.00    +0.000 C 
ATOM      9  C   UNL     1       1.193  17.245  18.229  0.00  0.00    +0.000 A 
ATOM     10  C   UNL     1       2.360  16.529  17.958  0.00  0.00    +0.000 A 
ATOM     11  C   UNL     1       2.403  15.148  18.154  0.00  0.00    +0.000 A 
ATOM     12  C   UNL     1       1.260  14.480  18.627  0.00  0.00    +0.000 A 
ATOM     13  C   UNL     1      -1.127  11.797  19.591  0.00  0.00    +0.000 C 
ATOM     14  N   UNL     1      -0.450  10.631  18.961  0.00  0.00    +0.000 NA
ATOM     15  H   UNL     1      -1.793  14.582  19.598  0.00  0.00    +0.000 HD
ATOM     16  H   UNL     1      -0.561  10.732  17.953  0.00  0.00    +0.000 HD
ENDROOT
BRANCH  13  17
ATOM     17  C   UNL     1      -2.564  11.875  19.080  0.00  0.00    +0.000 A 
ATOM     18  C   UNL     1      -2.839  11.471  17.751  0.00  0.00    +0.000 A 
ATOM     19  C   UNL     1      -4.133  11.518  17.230  0.00  0.00    +0.000 A 
ATOM     20  C   UNL     1      -5.170  11.987  18.021  0.00  0.00    +0.000 A 
ATOM     21 CL   UNL     1      -6.765  12.058  17.377  0.00  0.00    +0.000 Cl
ATOM     22  C   UNL     1      -4.931  12.411  19.326  0.00  0.00    +0.000 A 
ATOM     23  C   UNL     1      -3.636  12.352  19.856  0.00  0.00    +0.000 A 
ATOM     24 CL   UNL     1      -3.427  12.916  21.475  0.00  0.00    +0.000 Cl
ENDBRANCH  13  17
BRANCH   1  26
ATOM     25  N   UNL     1       1.814   8.286  19.216  0.00  0.00    +0.000 N 
ATOM     26  C   UNL     1       1.654   9.423  18.451  0.00  0.00    +0.000 C 
ATOM     27  O   UNL     1       2.004   9.480  17.274  0.00  0.00    +0.000 OA
ATOM     28  H   UNL     1       1.380   8.303  20.135  0.00  0.00    +0.000 HD
BRANCH  25  29
ATOM     29  C   UNL     1       2.285   7.050  18.626  0.00  0.00    +0.000 C 
BRANCH  29  30
ATOM     30  C   UNL     1       3.021   6.139  19.618  0.00  0.00    +0.000 C 
BRANCH  30  32
ATOM     31  C   UNL     1       1.812   4.446  20.835  0.00  0.00    +0.000 C 
ATOM     32  N   UNL     1       2.201   5.849  20.801  0.00  0.00    +0.000 NA
ATOM     33  H   UNL     1       2.723   6.074  21.645  0.00  0.00    +0.000 HD
ENDBRANCH  30  32
ENDBRANCH  29  30
ENDBRANCH  25  29
ENDBRANCH   1  26
TORSDOF 5
ENDMDL
MODEL 2
REMARK VINA RESULT:      -7.2      5.019     10.596
REMARK  Name = 
REMARK  7 active torsions:
REMARK  status: ('A' for Active; 'I' for Inactive)
REMARK    1  A    between atoms: C_1  and  N_2
REMARK    2  A    between atoms: N_2  and  C_3
REMARK    3  A    between atoms: C_3  and  C_4
REMARK    4  A    between atoms: C_4  and  N_5
REMARK    5  A    between atoms: C_6  and  C_8
REMARK    6  A    between atoms: C_14  and  C_15
REMARK    7  A    between atoms: C_20  and  C_21
REMARK                            x       y       z     vdW  Elec       q    Type
REMARK                         _______ _______ _______ _____ _____    ______ ____
ROOT
ATOM      1  C   UNL     1       2.803   8.104  18.810  0.00  0.00    +0.000 C 
ATOM      2  C   UNL     1       2.062   7.016  19.638  0.00  0.00    +0.000 C 
ATOM      3  C   UNL     1       2.853   5.760  19.724  0.00  0.00    +0.000 A 
ATOM      4  C   UNL     1       4.027   5.598  19.027  0.00  0.00    +0.000 A 
ATOM      5  N   UNL     1       4.513   4.349  19.313  0.00  0.00    +0.000 N 
ATOM      6  C   UNL     1       3.617   3.657  20.108  0.00  0.00    +0.000 A 
ATOM      7  C   UNL     1       3.654   2.333  20.585  0.00  0.00    +0.000 A 
ATOM      8  C   UNL     1       4.752   1.350  20.288  0.00  0.00    +0.000 C 
ATOM      9  C   UNL     1       2.568   1.926  21.381  0.00  0.00    +0.000 A 
ATOM     10  C   UNL     1       1.511   2.786  21.681  0.00  0.00    +0.000 A 
ATOM     11  C   UNL     1       1.502   4.092  21.193  0.00  0.00    +0.000 A 
ATOM     12  C   UNL     1       2.569   4.539  20.392  0.00  0.00    +0.000 A 
ATOM     13  C   UNL     1       4.665   6.602  18.116  0.00  0.00    +0.000 C 
ATOM     14  N   UNL     1       3.643   7.589  17.673  0.00  0.00    +0.000 NA
ATOM     15  H   UNL     1       5.369   3.953  18.947  0.00  0.00    +0.000 HD
ATOM     16  H   UNL     1       2.997   7.093  17.059  0.00  0.00    +0.000 HD
ENDROOT
BRANCH  13  17
ATOM     17  C   UNL     1       5.284   5.939  16.888  0.00  0.00    +0.000 A 
ATOM     18  C   UNL     1       4.494   5.049  16.120  0.00  0.00    +0.000 A 
ATOM     19  C   UNL     1       5.005   4.416  14.987  0.00  0.00    +0.000 A 
ATOM     20  C   UNL     1       6.320   4.648  14.611  0.00  0.00    +0.000 A 
ATOM     21 CL   UNL     1       6.957   3.859  13.220  0.00  0.00    +0.000 Cl
ATOM     22  C   UNL     1       7.130   5.501  15.355  0.00  0.00    +0.000 A 
ATOM     23  C   UNL     1       6.616   6.148  16.485  0.00  0.00    +0.000 A 
ATOM     24 CL   UNL     1       7.696   7.174  17.359  0.00  0.00    +0.000 Cl
ENDBRANCH  13  17
BRANCH   1  26
ATOM     25  N   UNL     1       1.123   9.866  19.182  0.00  0.00    +0.000 N 
ATOM     26  C   UNL     1       1.728   9.059  18.240  0.00  0.00    +0.000 C 
ATOM     27  O   UNL     1       1.415   9.082  17.053  0.00  0.00    +0.000 OA
ATOM     28  H   UNL     1       1.539   9.859  20.109  0.00  0.00    +0.000 HD
BRANCH  25  29
ATOM     29  C   UNL     1       0.170  10.884  18.789  0.00  0.00    +0.000 C 
BRANCH  29  30
ATOM     30  C   UNL     1      -1.244  10.339  18.544  0.00  0.00    +0.000 C 
BRANCH  30  32
ATOM     31  C   UNL     1      -2.928   9.848  16.891  0.00  0.00    +0.000 C 
ATOM     32  N   UNL     1      -1.529  10.192  17.111  0.00  0.00    +0.000 NA
ATOM     33  H   UNL     1      -1.315  11.060  16.626  0.00  0.00    +0.000 HD
ENDBRANCH  30  32
ENDBRANCH  29  30
ENDBRANCH  25  29
ENDBRANCH   1  26
TORSDOF 5
ENDMDL
MODEL 3
REMARK VINA RESULT:      -7.1      7.299     11.358
REMARK  Name = 
REMARK  7 active torsions:
REMARK  status: ('A' for Active; 'I' for Inactive)
REMARK    1  A    between atoms: C_1  and  N_2
REMARK    2  A    between atoms: N_2  and  C_3
REMARK    3  A    between atoms: C_3  and  C_4
REMARK    4  A    between atoms: C_4  and  N_5
REMARK    5  A    between atoms: C_6  and  C_8
REMARK    6  A    between atoms: C_14  and  C_15
REMARK    7  A    between atoms: C_20  and  C_21
REMARK                            x       y       z     vdW  Elec       q    Type
REMARK                         _______ _______ _______ _____ _____    ______ ____
ROOT
ATOM      1  C   UNL     1       4.570   3.617  18.012  0.00  0.00    +0.000 C 
ATOM      2  C   UNL     1       4.373   3.434  16.480  0.00  0.00    +0.000 C 
ATOM      3  C   UNL     1       5.536   3.951  15.713  0.00  0.00    +0.000 A 
ATOM      4  C   UNL     1       6.569   4.617  16.330  0.00  0.00    +0.000 A 
ATOM      5  N   UNL     1       7.479   4.961  15.365  0.00  0.00    +0.000 N 
ATOM      6  C   UNL     1       7.002   4.619  14.113  0.00  0.00    +0.000 A 
ATOM      7  C   UNL     1       7.549   4.842  12.835  0.00  0.00    +0.000 A 
ATOM      8  C   UNL     1       8.847   5.555  12.576  0.00  0.00    +0.000 C 
ATOM      9  C   UNL     1       6.802   4.363  11.744  0.00  0.00    +0.000 A 
ATOM     10  C   UNL     1       5.584   3.705  11.916  0.00  0.00    +0.000 A 
ATOM     11  C   UNL     1       5.066   3.500  13.195  0.00  0.00    +0.000 A 
ATOM     12  C   UNL     1       5.782   3.964  14.314  0.00  0.00    +0.000 A 
ATOM     13  C   UNL     1       6.685   4.914  17.794  0.00  0.00    +0.000 C 
ATOM     14  N   UNL     1       5.337   4.845  18.422  0.00  0.00    +0.000 NA
ATOM     15  H   UNL     1       8.346   5.456  15.525  0.00  0.00    +0.000 HD
ATOM     16  H   UNL     1       4.801   5.634  18.064  0.00  0.00    +0.000 HD
ENDROOT
BRANCH  13  17
ATOM     17  C   UNL     1       7.281   6.298  18.045  0.00  0.00    +0.000 A 
ATOM     18  C   UNL     1       6.946   7.356  17.165  0.00  0.00    +0.000 A 
ATOM     19  C   UNL     1       7.459   8.641  17.346  0.00  0.00    +0.000 A 
ATOM     20  C   UNL     1       8.328   8.887  18.397  0.00  0.00    +0.000 A 
ATOM     21 CL   UNL     1       8.971  10.469  18.616  0.00  0.00    +0.000 Cl
ATOM     22  C   UNL     1       8.694   7.864  19.269  0.00  0.00    +0.000 A 
ATOM     23  C   UNL     1       8.171   6.577  19.098  0.00  0.00    +0.000 A 
ATOM     24 CL   UNL     1       8.693   5.366  20.213  0.00  0.00    +0.000 Cl
ENDBRANCH  13  17
BRANCH   1  26
ATOM     25  N   UNL     1       3.160   3.960  20.002  0.00  0.00    +0.000 N 
ATOM     26  C   UNL     1       3.164   3.674  18.653  0.00  0.00    +0.000 C 
ATOM     27  O   UNL     1       2.132   3.457  18.022  0.00  0.00    +0.000 OA
ATOM     28  H   UNL     1       4.051   4.245  20.400  0.00  0.00    +0.000 HD
BRANCH  25  29
ATOM     29  C   UNL     1       1.917   4.148  20.721  0.00  0.00    +0.000 C 
BRANCH  29  30
ATOM     30  C   UNL     1       1.472   5.615  20.801  0.00  0.00    +0.000 C 
BRANCH  30  32
ATOM     31  C   UNL     1       1.952   7.777  19.849  0.00  0.00    +0.000 C 
ATOM     32  N   UNL     1       2.524   6.528  20.336  0.00  0.00    +0.000 NA
ATOM     33  H   UNL     1       3.168   6.728  21.097  0.00  0.00    +0.000 HD
ENDBRANCH  30  32
ENDBRANCH  29  30
ENDBRANCH  25  29
ENDBRANCH   1  26
TORSDOF 5
ENDMDL
MODEL 4
REMARK VINA RESULT:      -7.1      4.805     10.649
REMARK  Name = 
REMARK  7 active torsions:
REMARK  status: ('A' for Active; 'I' for Inactive)
REMARK    1  A    between atoms: C_1  and  N_2
REMARK    2  A    between atoms: N_2  and  C_3
REMARK    3  A    between atoms: C_3  and  C_4
REMARK    4  A    between atoms: C_4  and  N_5
REMARK    5  A    between atoms: C_6  and  C_8
REMARK    6  A    between atoms: C_14  and  C_15
REMARK    7  A    between atoms: C_20  and  C_21
REMARK                            x       y       z     vdW  Elec       q    Type
REMARK                         _______ _______ _______ _____ _____    ______ ____
ROOT
ATOM      1  C   UNL     1       2.863   8.090  18.813  0.00  0.00    +0.000 C 
ATOM      2  C   UNL     1       2.112   7.012  19.646  0.00  0.00    +0.000 C 
ATOM      3  C   UNL     1       2.884   5.745  19.724  0.00  0.00    +0.000 A 
ATOM      4  C   UNL     1       4.051   5.566  19.018  0.00  0.00    +0.000 A 
ATOM      5  N   UNL     1       4.521   4.309  19.298  0.00  0.00    +0.000 N 
ATOM      6  C   UNL     1       3.621   3.630  20.099  0.00  0.00    +0.000 A 
ATOM      7  C   UNL     1       3.641   2.305  20.574  0.00  0.00    +0.000 A 
ATOM      8  C   UNL     1       4.722   1.306  20.268  0.00  0.00    +0.000 C 
ATOM      9  C   UNL     1       2.555   1.913  21.378  0.00  0.00    +0.000 A 
ATOM     10  C   UNL     1       1.513   2.788  21.687  0.00  0.00    +0.000 A 
ATOM     11  C   UNL     1       1.520   4.095  21.200  0.00  0.00    +0.000 A 
ATOM     12  C   UNL     1       2.588   4.527  20.392  0.00  0.00    +0.000 A 
ATOM     13  C   UNL     1       4.697   6.562  18.104  0.00  0.00    +0.000 C 
ATOM     14  N   UNL     1       3.686   7.564  17.669  0.00  0.00    +0.000 NA
ATOM     15  H   UNL     1       5.367   3.902  18.925  0.00  0.00    +0.000 HD
ATOM     16  H   UNL     1       3.029   7.079  17.059  0.00  0.00    +0.000 HD
ENDROOT
BRANCH  13  17
ATOM     17  C   UNL     1       5.297   5.892  16.869  0.00  0.00    +0.000 A 
ATOM     18  C   UNL     1       4.495   4.997  16.119  0.00  0.00    +0.000 A 
ATOM     19  C   UNL     1       4.988   4.358  14.982  0.00  0.00    +0.000 A 
ATOM     20  C   UNL     1       6.297   4.586  14.585  0.00  0.00    +0.000 A 
ATOM     21 CL   UNL     1       6.913   3.789  13.188  0.00  0.00    +0.000 Cl
ATOM     22  C   UNL     1       7.119   5.444  15.312  0.00  0.00    +0.000 A 
ATOM     23  C   UNL     1       6.622   6.097  16.445  0.00  0.00    +0.000 A 
ATOM     24 CL   UNL     1       7.716   7.128  17.296  0.00  0.00    +0.000 Cl
ENDBRANCH  13  17
BRANCH   1  26
ATOM     25  N   UNL     1       0.753   9.324  19.114  0.00  0.00    +0.000 N 
ATOM     26  C   UNL     1       1.798   9.062  18.253  0.00  0.00    +0.000 C 
ATOM     27  O   UNL     1       1.858   9.542  17.124  0.00  0.00    +0.000 OA
ATOM     28  H   UNL     1       0.861   8.979  20.065  0.00  0.00    +0.000 HD
BRANCH  25  29
ATOM     29  C   UNL     1      -0.269  10.293  18.774  0.00  0.00    +0.000 C 
BRANCH  29  30
ATOM     30  C   UNL     1       0.105  11.734  19.146  0.00  0.00    +0.000 C 
BRANCH  30  32
ATOM     31  C   UNL     1       1.981  13.091  18.474  0.00  0.00    +0.000 C 
ATOM     32  N   UNL     1       0.761  12.430  18.031  0.00  0.00    +0.000 NA
ATOM     33  H   UNL     1       0.986  11.766  17.295  0.00  0.00    +0.000 HD
ENDBRANCH  30  32
ENDBRANCH  29  30
ENDBRANCH  25  29
ENDBRANCH   1  26
TORSDOF 5
ENDMDL
MODEL 5
REMARK VINA RESULT:      -7.0      9.077     11.349
REMARK  Name = 
REMARK  7 active torsions:
REMARK  status: ('A' for Active; 'I' for Inactive)
REMARK    1  A    between atoms: C_1  and  N_2
REMARK    2  A    between atoms: N_2  and  C_3
REMARK    3  A    between atoms: C_3  and  C_4
REMARK    4  A    between atoms: C_4  and  N_5
REMARK    5  A    between atoms: C_6  and  C_8
REMARK    6  A    between atoms: C_14  and  C_15
REMARK    7  A    between atoms: C_20  and  C_21
REMARK                            x       y       z     vdW  Elec       q    Type
REMARK                         _______ _______ _______ _____ _____    ______ ____
ROOT
ATOM      1  C   UNL     1       4.423   3.847  17.708  0.00  0.00    +0.000 C 
ATOM      2  C   UNL     1       4.332   3.685  16.163  0.00  0.00    +0.000 C 
ATOM      3  C   UNL     1       5.569   4.160  15.490  0.00  0.00    +0.000 A 
ATOM      4  C   UNL     1       6.581   4.776  16.189  0.00  0.00    +0.000 A 
ATOM      5  N   UNL     1       7.573   5.090  15.297  0.00  0.00    +0.000 N 
ATOM      6  C   UNL     1       7.176   4.778  14.010  0.00  0.00    +0.000 A 
ATOM      7  C   UNL     1       7.825   4.989  12.778  0.00  0.00    +0.000 A 
ATOM      8  C   UNL     1       9.167   5.649  12.624  0.00  0.00    +0.000 C 
ATOM      9  C   UNL     1       7.141   4.552  11.629  0.00  0.00    +0.000 A 
ATOM     10  C   UNL     1       5.887   3.944  11.704  0.00  0.00    +0.000 A 
ATOM     11  C   UNL     1       5.268   3.750  12.939  0.00  0.00    +0.000 A 
ATOM     12  C   UNL     1       5.918   4.174  14.113  0.00  0.00    +0.000 A 
ATOM     13  C   UNL     1       6.599   5.056  17.660  0.00  0.00    +0.000 C 
ATOM     14  N   UNL     1       5.208   5.038  18.187  0.00  0.00    +0.000 NA
ATOM     15  H   UNL     1       8.445   5.546  15.527  0.00  0.00    +0.000 HD
ATOM     16  H   UNL     1       4.732   5.852  17.800  0.00  0.00    +0.000 HD
ENDROOT
BRANCH  13  17
ATOM     17  C   UNL     1       7.232   6.411  17.971  0.00  0.00    +0.000 A 
ATOM     18  C   UNL     1       6.918   7.517  17.144  0.00  0.00    +0.000 A 
ATOM     19  C   UNL     1       7.464   8.779  17.380  0.00  0.00    +0.000 A 
ATOM     20  C   UNL     1       8.347   8.953  18.435  0.00  0.00    +0.000 A 
ATOM     21 CL   UNL     1       9.032  10.507  18.721  0.00  0.00    +0.000 Cl
ATOM     22  C   UNL     1       8.694   7.882  19.254  0.00  0.00    +0.000 A 
ATOM     23  C   UNL     1       8.136   6.618  19.028  0.00  0.00    +0.000 A 
ATOM     24 CL   UNL     1       8.636   5.344  20.081  0.00  0.00    +0.000 Cl
ENDBRANCH  13  17
BRANCH   1  26
ATOM     25  N   UNL     1       2.217   2.817  18.082  0.00  0.00    +0.000 N 
ATOM     26  C   UNL     1       2.976   3.958  18.243  0.00  0.00    +0.000 C 
ATOM     27  O   UNL     1       2.525   4.984  18.747  0.00  0.00    +0.000 OA
ATOM     28  H   UNL     1       2.717   1.989  17.771  0.00  0.00    +0.000 HD
BRANCH  25  29
ATOM     29  C   UNL     1       0.877   2.731  18.625  0.00  0.00    +0.000 C 
BRANCH  29  30
ATOM     30  C   UNL     1       0.834   2.238  20.078  0.00  0.00    +0.000 C 
BRANCH  30  32
ATOM     31  C   UNL     1       2.149   3.217  21.845  0.00  0.00    +0.000 C 
ATOM     32  N   UNL     1       0.947   3.349  21.032  0.00  0.00    +0.000 NA
ATOM     33  H   UNL     1       0.976   4.233  20.530  0.00  0.00    +0.000 HD
ENDBRANCH  30  32
ENDBRANCH  29  30
ENDBRANCH  25  29
ENDBRANCH   1  26
TORSDOF 5
ENDMDL
MODEL 6
REMARK VINA RESULT:      -7.0      7.178     11.197
REMARK  Name = 
REMARK  7 active torsions:
REMARK  status: ('A' for Active; 'I' for Inactive)
REMARK    1  A    between atoms: C_1  and  N_2
REMARK    2  A    between atoms: N_2  and  C_3
REMARK    3  A    between atoms: C_3  and  C_4
REMARK    4  A    between atoms: C_4  and  N_5
REMARK    5  A    between atoms: C_6  and  C_8
REMARK    6  A    between atoms: C_14  and  C_15
REMARK    7  A    between atoms: C_20  and  C_21
REMARK                            x       y       z     vdW  Elec       q    Type
REMARK                         _______ _______ _______ _____ _____    ______ ____
ROOT
ATOM      1  C   UNL     1       4.790   3.724  18.194  0.00  0.00    +0.000 C 
ATOM      2  C   UNL     1       4.572   3.411  16.686  0.00  0.00    +0.000 C 
ATOM      3  C   UNL     1       5.661   3.973  15.847  0.00  0.00    +0.000 A 
ATOM      4  C   UNL     1       6.644   4.773  16.381  0.00  0.00    +0.000 A 
ATOM      5  N   UNL     1       7.493   5.127  15.365  0.00  0.00    +0.000 N 
ATOM      6  C   UNL     1       7.018   4.650  14.156  0.00  0.00    +0.000 A 
ATOM      7  C   UNL     1       7.509   4.827  12.849  0.00  0.00    +0.000 A 
ATOM      8  C   UNL     1       8.728   5.634  12.498  0.00  0.00    +0.000 C 
ATOM      9  C   UNL     1       6.782   4.203  11.819  0.00  0.00    +0.000 A 
ATOM     10  C   UNL     1       5.634   3.452  12.077  0.00  0.00    +0.000 A 
ATOM     11  C   UNL     1       5.171   3.296  13.384  0.00  0.00    +0.000 A 
ATOM     12  C   UNL     1       5.869   3.904  14.443  0.00  0.00    +0.000 A 
ATOM     13  C   UNL     1       6.769   5.188  17.815  0.00  0.00    +0.000 C 
ATOM     14  N   UNL     1       5.450   5.043  18.490  0.00  0.00    +0.000 NA
ATOM     15  H   UNL     1       8.314   5.708  15.461  0.00  0.00    +0.000 HD
ATOM     16  H   UNL     1       4.834   5.752  18.094  0.00  0.00    +0.000 HD
ENDROOT
BRANCH  13  17
ATOM     17  C   UNL     1       7.241   6.634  17.947  0.00  0.00    +0.000 A 
ATOM     18  C   UNL     1       8.365   6.914  18.762  0.00  0.00    +0.000 A 
ATOM     19  C   UNL     1       8.843   8.216  18.919  0.00  0.00    +0.000 A 
ATOM     20  C   UNL     1       8.195   9.262  18.280  0.00  0.00    +0.000 A 
ATOM     21 CL   UNL     1       8.775  10.870  18.482  0.00  0.00    +0.000 Cl
ATOM     22  C   UNL     1       7.074   9.024  17.488  0.00  0.00    +0.000 A 
ATOM     23  C   UNL     1       6.601   7.717  17.318  0.00  0.00    +0.000 A 
ATOM     24 CL   UNL     1       5.195   7.517  16.335  0.00  0.00    +0.000 Cl
ENDBRANCH  13  17
BRANCH   1  26
ATOM     25  N   UNL     1       3.341   4.373  20.077  0.00  0.00    +0.000 N 
ATOM     26  C   UNL     1       3.401   3.701  18.873  0.00  0.00    +0.000 C 
ATOM     27  O   UNL     1       2.433   3.112  18.399  0.00  0.00    +0.000 OA
ATOM     28  H   UNL     1       4.157   4.929  20.318  0.00  0.00    +0.000 HD
BRANCH  25  29
ATOM     29  C   UNL     1       2.086   4.528  20.783  0.00  0.00    +0.000 C 
BRANCH  29  30
ATOM     30  C   UNL     1       1.478   5.931  20.652  0.00  0.00    +0.000 C 
BRANCH  30  32
ATOM     31  C   UNL     1       2.314   7.447  18.974  0.00  0.00    +0.000 C 
ATOM     32  N   UNL     1       2.498   6.937  20.327  0.00  0.00    +0.000 NA
ATOM     33  H   UNL     1       2.444   7.708  20.987  0.00  0.00    +0.000 HD
ENDBRANCH  30  32
ENDBRANCH  29  30
ENDBRANCH  25  29
ENDBRANCH   1  26
TORSDOF 5
ENDMDL
MODEL 7
REMARK VINA RESULT:      -6.9      3.900      7.469
REMARK  Name = 
REMARK  7 active torsions:
REMARK  status: ('A' for Active; 'I' for Inactive)
REMARK    1  A    between atoms: C_1  and  N_2
REMARK    2  A    between atoms: N_2  and  C_3
REMARK    3  A    between atoms: C_3  and  C_4
REMARK    4  A    between atoms: C_4  and  N_5
REMARK    5  A    between atoms: C_6  and  C_8
REMARK    6  A    between atoms: C_14  and  C_15
REMARK    7  A    between atoms: C_20  and  C_21
REMARK                            x       y       z     vdW  Elec       q    Type
REMARK                         _______ _______ _______ _____ _____    ______ ____
ROOT
ATOM      1  C   UNL     1      -3.152  11.277  16.133  0.00  0.00    +0.000 C 
ATOM      2  C   UNL     1      -4.566  11.344  16.778  0.00  0.00    +0.000 C 
ATOM      3  C   UNL     1      -4.506  11.826  18.182  0.00  0.00    +0.000 A 
ATOM      4  C   UNL     1      -3.306  12.047  18.818  0.00  0.00    +0.000 A 
ATOM      5  N   UNL     1      -3.581  12.485  20.087  0.00  0.00    +0.000 N 
ATOM      6  C   UNL     1      -4.944  12.456  20.319  0.00  0.00    +0.000 A 
ATOM      7  C   UNL     1      -5.678  12.742  21.486  0.00  0.00    +0.000 A 
ATOM      8  C   UNL     1      -5.068  13.155  22.797  0.00  0.00    +0.000 C 
ATOM      9  C   UNL     1      -7.076  12.611  21.393  0.00  0.00    +0.000 A 
ATOM     10  C   UNL     1      -7.702  12.218  20.209  0.00  0.00    +0.000 A 
ATOM     11  C   UNL     1      -6.948  11.940  19.069  0.00  0.00    +0.000 A 
ATOM     12  C   UNL     1      -5.547  12.057  19.121  0.00  0.00    +0.000 A 
ATOM     13  C   UNL     1      -1.942  11.845  18.234  0.00  0.00    +0.000 C 
ATOM     14  N   UNL     1      -2.032  10.921  17.071  0.00  0.00    +0.000 NA
ATOM     15  H   UNL     1      -2.893  12.733  20.785  0.00  0.00    +0.000 HD
ATOM     16  H   UNL     1      -2.266  10.000  17.440  0.00  0.00    +0.000 HD
ENDROOT
BRANCH  13  17
ATOM     17  C   UNL     1      -0.968  11.266  19.257  0.00  0.00    +0.000 A 
ATOM     18  C   UNL     1      -1.022   9.880  19.545  0.00  0.00    +0.000 A 
ATOM     19  C   UNL     1      -0.156   9.294  20.468  0.00  0.00    +0.000 A 
ATOM     20  C   UNL     1       0.766  10.086  21.135  0.00  0.00    +0.000 A 
ATOM     21 CL   UNL     1       1.829   9.369  22.284  0.00  0.00    +0.000 Cl
ATOM     22  C   UNL     1       0.833  11.456  20.891  0.00  0.00    +0.000 A 
ATOM     23  C   UNL     1      -0.026  12.043  19.955  0.00  0.00    +0.000 A 
ATOM     24 CL   UNL     1       0.113  13.750  19.730  0.00  0.00    +0.000 Cl
ENDBRANCH  13  17
BRANCH   1  26
ATOM     25  N   UNL     1      -4.409  10.179  14.322  0.00  0.00    +0.000 N 
ATOM     26  C   UNL     1      -3.211  10.220  15.006  0.00  0.00    +0.000 C 
ATOM     27  O   UNL     1      -2.281   9.459  14.752  0.00  0.00    +0.000 OA
ATOM     28  H   UNL     1      -5.064  10.930  14.523  0.00  0.00    +0.000 HD
BRANCH  25  29
ATOM     29  C   UNL     1      -4.582   9.313  13.173  0.00  0.00    +0.000 C 
BRANCH  29  30
ATOM     30  C   UNL     1      -4.444  10.043  11.830  0.00  0.00    +0.000 C 
BRANCH  30  32
ATOM     31  C   UNL     1      -6.801   9.915  11.339  0.00  0.00    +0.000 C 
ATOM     32  N   UNL     1      -5.459   9.601  10.865  0.00  0.00    +0.000 NA
ATOM     33  H   UNL     1      -5.304  10.056   9.969  0.00  0.00    +0.000 HD
ENDBRANCH  30  32
ENDBRANCH  29  30
ENDBRANCH  25  29
ENDBRANCH   1  26
TORSDOF 5
ENDMDL
MODEL 8
REMARK VINA RESULT:      -6.8      5.166     10.562
REMARK  Name = 
REMARK  7 active torsions:
REMARK  status: ('A' for Active; 'I' for Inactive)
REMARK    1  A    between atoms: C_1  and  N_2
REMARK    2  A    between atoms: N_2  and  C_3
REMARK    3  A    between atoms: C_3  and  C_4
REMARK    4  A    between atoms: C_4  and  N_5
REMARK    5  A    between atoms: C_6  and  C_8
REMARK    6  A    between atoms: C_14  and  C_15
REMARK    7  A    between atoms: C_20  and  C_21
REMARK                            x       y       z     vdW  Elec       q    Type
REMARK                         _______ _______ _______ _____ _____    ______ ____
ROOT
ATOM      1  C   UNL     1       2.853   8.094  18.818  0.00  0.00    +0.000 C 
ATOM      2  C   UNL     1       2.107   7.012  19.651  0.00  0.00    +0.000 C 
ATOM      3  C   UNL     1       2.882   5.747  19.724  0.00  0.00    +0.000 A 
ATOM      4  C   UNL     1       4.047   5.572  19.013  0.00  0.00    +0.000 A 
ATOM      5  N   UNL     1       4.521   4.316  19.290  0.00  0.00    +0.000 N 
ATOM      6  C   UNL     1       3.625   3.633  20.093  0.00  0.00    +0.000 A 
ATOM      7  C   UNL     1       3.650   2.307  20.565  0.00  0.00    +0.000 A 
ATOM      8  C   UNL     1       4.733   1.311  20.254  0.00  0.00    +0.000 C 
ATOM      9  C   UNL     1       2.568   1.911  21.372  0.00  0.00    +0.000 A 
ATOM     10  C   UNL     1       1.525   2.783  21.687  0.00  0.00    +0.000 A 
ATOM     11  C   UNL     1       1.527   4.091  21.202  0.00  0.00    +0.000 A 
ATOM     12  C   UNL     1       2.591   4.527  20.391  0.00  0.00    +0.000 A 
ATOM     13  C   UNL     1       4.687   6.571  18.099  0.00  0.00    +0.000 C 
ATOM     14  N   UNL     1       3.673   7.572  17.670  0.00  0.00    +0.000 NA
ATOM     15  H   UNL     1       5.367   3.911  18.914  0.00  0.00    +0.000 HD
ATOM     16  H   UNL     1       3.014   7.087  17.061  0.00  0.00    +0.000 HD
ENDROOT
BRANCH  13  17
ATOM     17  C   UNL     1       5.285   5.905  16.862  0.00  0.00    +0.000 A 
ATOM     18  C   UNL     1       4.479   5.018  16.106  0.00  0.00    +0.000 A 
ATOM     19  C   UNL     1       4.969   4.382  14.966  0.00  0.00    +0.000 A 
ATOM     20  C   UNL     1       6.279   4.606  14.570  0.00  0.00    +0.000 A 
ATOM     21 CL   UNL     1       6.892   3.814  13.170  0.00  0.00    +0.000 Cl
ATOM     22  C   UNL     1       7.105   5.456  15.302  0.00  0.00    +0.000 A 
ATOM     23  C   UNL     1       6.611   6.106  16.439  0.00  0.00    +0.000 A 
ATOM     24 CL   UNL     1       7.710   7.127  17.295  0.00  0.00    +0.000 Cl
ENDBRANCH  13  17
BRANCH   1  26
ATOM     25  N   UNL     1       0.740   9.321  19.129  0.00  0.00    +0.000 N 
ATOM     26  C   UNL     1       1.783   9.064  18.263  0.00  0.00    +0.000 C 
ATOM     27  O   UNL     1       1.838   9.547  17.135  0.00  0.00    +0.000 OA
ATOM     28  H   UNL     1       0.852   8.974  20.078  0.00  0.00    +0.000 HD
BRANCH  25  29
ATOM     29  C   UNL     1      -0.285  10.288  18.794  0.00  0.00    +0.000 C 
BRANCH  29  30
ATOM     30  C   UNL     1      -0.711  11.165  19.979  0.00  0.00    +0.000 C 
BRANCH  30  32
ATOM     31  C   UNL     1      -0.817  11.243  22.386  0.00  0.00    +0.000 C 
ATOM     32  N   UNL     1      -0.094  10.718  21.235  0.00  0.00    +0.000 NA
ATOM     33  H   UNL     1      -0.092   9.702  21.275  0.00  0.00    +0.000 HD
ENDBRANCH  30  32
ENDBRANCH  29  30
ENDBRANCH  25  29
ENDBRANCH   1  26
TORSDOF 5
ENDMDL
MODEL 9
REMARK VINA RESULT:      -6.8      1.058      1.439
REMARK  Name = 
REMARK  7 active torsions:
REMARK  status: ('A' for Active; 'I' for Inactive)
REMARK    1  A    between atoms: C_1  and  N_2
REMARK    2  A    between atoms: N_2  and  C_3
REMARK    3  A    between atoms: C_3  and  C_4
REMARK    4  A    between atoms: C_4  and  N_5
REMARK    5  A    between atoms: C_6  and  C_8
REMARK    6  A    between atoms: C_14  and  C_15
REMARK    7  A    between atoms: C_20  and  C_21
REMARK                            x       y       z     vdW  Elec       q    Type
REMARK                         _______ _______ _______ _____ _____    ______ ____
ROOT
ATOM      1  C   UNL     1       1.114  10.351  19.087  0.00  0.00    +0.000 C 
ATOM      2  C   UNL     1       1.917  11.609  18.649  0.00  0.00    +0.000 C 
ATOM      3  C   UNL     1       1.122  12.852  18.819  0.00  0.00    +0.000 A 
ATOM      4  C   UNL     1      -0.200  12.818  19.198  0.00  0.00    +0.000 A 
ATOM      5  N   UNL     1      -0.647  14.112  19.269  0.00  0.00    +0.000 N 
ATOM      6  C   UNL     1       0.338  14.983  18.842  0.00  0.00    +0.000 A 
ATOM      7  C   UNL     1       0.310  16.381  18.673  0.00  0.00    +0.000 A 
ATOM      8  C   UNL     1      -0.890  17.247  18.938  0.00  0.00    +0.000 C 
ATOM      9  C   UNL     1       1.497  16.978  18.212  0.00  0.00    +0.000 A 
ATOM     10  C   UNL     1       2.640  16.228  17.935  0.00  0.00    +0.000 A 
ATOM     11  C   UNL     1       2.637  14.844  18.110  0.00  0.00    +0.000 A 
ATOM     12  C   UNL     1       1.470  14.207  18.569  0.00  0.00    +0.000 A 
ATOM     13  C   UNL     1      -1.009  11.591  19.483  0.00  0.00    +0.000 C 
ATOM     14  N   UNL     1      -0.369  10.413  18.837  0.00  0.00    +0.000 NA
ATOM     15  H   UNL     1      -1.582  14.396  19.529  0.00  0.00    +0.000 HD
ATOM     16  H   UNL     1      -0.471  10.532  17.830  0.00  0.00    +0.000 HD
ENDROOT
BRANCH  13  17
ATOM     17  C   UNL     1      -2.441  11.724  18.967  0.00  0.00    +0.000 A 
ATOM     18  C   UNL     1      -2.726  11.337  17.634  0.00  0.00    +0.000 A 
ATOM     19  C   UNL     1      -4.015  11.434  17.109  0.00  0.00    +0.000 A 
ATOM     20  C   UNL     1      -5.037  11.938  17.899  0.00  0.00    +0.000 A 
ATOM     21 CL   UNL     1      -6.626  12.070  17.250  0.00  0.00    +0.000 Cl
ATOM     22  C   UNL     1      -4.787  12.347  19.207  0.00  0.00    +0.000 A 
ATOM     23  C   UNL     1      -3.497  12.237  19.741  0.00  0.00    +0.000 A 
ATOM     24 CL   UNL     1      -3.274  12.786  21.363  0.00  0.00    +0.000 Cl
ENDBRANCH  13  17
BRANCH   1  26
ATOM     25  N   UNL     1       1.882   8.011  19.084  0.00  0.00    +0.000 N 
ATOM     26  C   UNL     1       1.697   9.143  18.317  0.00  0.00    +0.000 C 
ATOM     27  O   UNL     1       1.997   9.189  17.127  0.00  0.00    +0.000 OA
ATOM     28  H   UNL     1       1.487   8.037  20.021  0.00  0.00    +0.000 HD
BRANCH  25  29
ATOM     29  C   UNL     1       2.324   6.768  18.485  0.00  0.00    +0.000 C 
BRANCH  29  30
ATOM     30  C   UNL     1       3.851   6.634  18.406  0.00  0.00    +0.000 C 
BRANCH  30  32
ATOM     31  C   UNL     1       5.763   6.610  16.938  0.00  0.00    +0.000 C 
ATOM     32  N   UNL     1       4.358   6.974  17.070  0.00  0.00    +0.000 NA
ATOM     33  H   UNL     1       3.816   6.486  16.362  0.00  0.00    +0.000 HD
ENDBRANCH  30  32
ENDBRANCH  29  30
ENDBRANCH  25  29
ENDBRANCH   1  26
TORSDOF 5
ENDMDL
