MODEL 1
REMARK VINA RESULT:      -7.8      0.000      0.000
REMARK  Name = 
REMARK  3 active torsions:
REMARK  status: ('A' for Active; 'I' for Inactive)
REMARK    1  A    between atoms: C_2  and  O_3
REMARK    2  A    between atoms: C_2  and  C_4
REMARK    3  A    between atoms: C_11  and  C_12
REMARK                            x       y       z     vdW  Elec       q    Type
REMARK                         _______ _______ _______ _____ _____    ______ ____
ROOT
ATOM      1  C   UNL     1       5.792   4.732  15.435  0.00  0.00    +0.000 A 
ATOM      2  C   UNL     1       5.453   3.689  16.325  0.00  0.00    +0.000 A 
ATOM      3  N   UNL     1       4.693   4.095  17.346  0.00  0.00    +0.000 NA
ATOM      4  N   UNL     1       4.483   5.413  17.103  0.00  0.00    +0.000 N 
ATOM      5  C   UNL     1       3.659   6.232  17.929  0.00  0.00    +0.000 A 
ATOM      6  C   UNL     1       3.135   5.712  19.103  0.00  0.00    +0.000 A 
ATOM      7  C   UNL     1       2.340   6.540  19.902  0.00  0.00    +0.000 A 
ATOM      8  C   UNL     1       2.039   7.859  19.518  0.00  0.00    +0.000 A 
ATOM      9  C   UNL     1       2.594   8.256  18.300  0.00  0.00    +0.000 A 
ATOM     10  N   UNL     1       3.406   7.500  17.516  0.00  0.00    +0.000 NA
ATOM     11  C   UNL     1       5.150   5.832  15.967  0.00  0.00    +0.000 A 
ENDROOT
BRANCH   8  12
ATOM     12  C   UNL     1       1.151   8.727  20.339  0.00  0.00    +0.000 A 
ATOM     13  C   UNL     1       1.223   8.635  21.750  0.00  0.00    +0.000 A 
ATOM     14  C   UNL     1       0.435   9.425  22.594  0.00  0.00    +0.000 A 
ATOM     15  C   UNL     1      -0.477  10.318  22.055  0.00  0.00    +0.000 A 
ATOM     16  C   UNL     1      -0.588  10.432  20.673  0.00  0.00    +0.000 A 
ATOM     17  C   UNL     1       0.226   9.664  19.822  0.00  0.00    +0.000 A 
ATOM     18 CL   UNL     1       0.052  10.007  18.132  0.00  0.00    +0.000 Cl
ENDBRANCH   8  12
BRANCH   1  20
ATOM     19  O   UNL     1       6.415   3.790  13.377  0.00  0.00    +0.000 OA
ATOM     20  C   UNL     1       6.615   4.621  14.248  0.00  0.00    +0.000 C 
BRANCH  20  21
ATOM     21  O   UNL     1       7.645   5.507  14.167  0.00  0.00    +0.000 OA
ATOM     22  H   UNL     1       7.481   6.233  13.544  0.00  0.00    +0.000 HD
ENDBRANCH  20  21
ENDBRANCH   1  20
TORSDOF 3
ENDMDL
MODEL 2
REMARK VINA RESULT:      -7.7      5.323      8.630
REMARK  Name = 
REMARK  3 active torsions:
REMARK  status: ('A' for Active; 'I' for Inactive)
REMARK    1  A    between atoms: C_2  and  O_3
REMARK    2  A    between atoms: C_2  and  C_4
REMARK    3  A    between atoms: C_11  and  C_12
REMARK                            x       y       z     vdW  Elec       q    Type
REMARK                         _______ _______ _______ _____ _____    ______ ____
ROOT
ATOM      1  C   UNL     1      -0.740  11.674  21.659  0.00  0.00    +0.000 A 
ATOM      2  C   UNL     1      -0.854  12.186  20.348  0.00  0.00    +0.000 A 
ATOM      3  N   UNL     1      -0.172  11.477  19.445  0.00  0.00    +0.000 NA
ATOM      4  N   UNL     1       0.360  10.452  20.157  0.00  0.00    +0.000 N 
ATOM      5  C   UNL     1       1.125   9.408  19.561  0.00  0.00    +0.000 A 
ATOM      6  C   UNL     1       1.455   9.484  18.216  0.00  0.00    +0.000 A 
ATOM      7  C   UNL     1       2.217   8.453  17.658  0.00  0.00    +0.000 A 
ATOM      8  C   UNL     1       2.616   7.340  18.421  0.00  0.00    +0.000 A 
ATOM      9  C   UNL     1       2.194   7.360  19.752  0.00  0.00    +0.000 A 
ATOM     10  N   UNL     1       1.491   8.361  20.344  0.00  0.00    +0.000 NA
ATOM     11  C   UNL     1       0.051  10.554  21.502  0.00  0.00    +0.000 A 
ENDROOT
BRANCH   8  12
ATOM     12  C   UNL     1       3.383   6.215  17.819  0.00  0.00    +0.000 A 
ATOM     13  C   UNL     1       4.653   6.482  17.254  0.00  0.00    +0.000 A 
ATOM     14  C   UNL     1       5.445   5.481  16.682  0.00  0.00    +0.000 A 
ATOM     15  C   UNL     1       4.980   4.176  16.628  0.00  0.00    +0.000 A 
ATOM     16  C   UNL     1       3.732   3.873  17.162  0.00  0.00    +0.000 A 
ATOM     17  C   UNL     1       2.948   4.870  17.766  0.00  0.00    +0.000 A 
ATOM     18 CL   UNL     1       1.474   4.311  18.488  0.00  0.00    +0.000 Cl
ENDBRANCH   8  12
BRANCH   1  20
ATOM     19  O   UNL     1      -1.033  13.312  23.316  0.00  0.00    +0.000 OA
ATOM     20  C   UNL     1      -1.343  12.224  22.856  0.00  0.00    +0.000 C 
BRANCH  20  21
ATOM     21  O   UNL     1      -2.282  11.439  23.452  0.00  0.00    +0.000 OA
ATOM     22  H   UNL     1      -2.214  10.503  23.205  0.00  0.00    +0.000 HD
ENDBRANCH  20  21
ENDBRANCH   1  20
TORSDOF 3
ENDMDL
MODEL 3
REMARK VINA RESULT:      -7.7      3.212      4.123
REMARK  Name = 
REMARK  3 active torsions:
REMARK  status: ('A' for Active; 'I' for Inactive)
REMARK    1  A    between atoms: C_2  and  O_3
REMARK    2  A    between atoms: C_2  and  C_4
REMARK    3  A    between atoms: C_11  and  C_12
REMARK                            x       y       z     vdW  Elec       q    Type
REMARK                         _______ _______ _______ _____ _____    ______ ____
ROOT
ATOM      1  C   UNL     1       3.844   3.798  19.647  0.00  0.00    +0.000 A 
ATOM      2  C   UNL     1       4.341   4.147  18.372  0.00  0.00    +0.000 A 
ATOM      3  N   UNL     1       3.898   5.330  17.939  0.00  0.00    +0.000 NA
ATOM      4  N   UNL     1       3.138   5.796  18.962  0.00  0.00    +0.000 N 
ATOM      5  C   UNL     1       2.513   7.077  18.943  0.00  0.00    +0.000 A 
ATOM      6  C   UNL     1       2.571   7.850  17.792  0.00  0.00    +0.000 A 
ATOM      7  C   UNL     1       1.940   9.097  17.795  0.00  0.00    +0.000 A 
ATOM      8  C   UNL     1       1.289   9.587  18.942  0.00  0.00    +0.000 A 
ATOM      9  C   UNL     1       1.328   8.734  20.048  0.00  0.00    +0.000 A 
ATOM     10  N   UNL     1       1.892   7.498  20.074  0.00  0.00    +0.000 NA
ATOM     11  C   UNL     1       3.069   4.885  20.000  0.00  0.00    +0.000 A 
ENDROOT
BRANCH   8  12
ATOM     12  C   UNL     1       0.660  10.936  18.966  0.00  0.00    +0.000 A 
ATOM     13  C   UNL     1       1.408  12.028  19.466  0.00  0.00    +0.000 A 
ATOM     14  C   UNL     1       0.899  13.330  19.510  0.00  0.00    +0.000 A 
ATOM     15  C   UNL     1      -0.395  13.582  19.080  0.00  0.00    +0.000 A 
ATOM     16  C   UNL     1      -1.170  12.535  18.592  0.00  0.00    +0.000 A 
ATOM     17  C   UNL     1      -0.649  11.232  18.516  0.00  0.00    +0.000 A 
ATOM     18 CL   UNL     1      -1.694  10.063  17.775  0.00  0.00    +0.000 Cl
ENDBRANCH   8  12
BRANCH   1  20
ATOM     19  O   UNL     1       3.541   2.275  21.408  0.00  0.00    +0.000 OA
ATOM     20  C   UNL     1       4.120   2.578  20.378  0.00  0.00    +0.000 C 
BRANCH  20  21
ATOM     21  O   UNL     1       5.087   1.783  19.842  0.00  0.00    +0.000 OA
ATOM     22  H   UNL     1       5.827   2.281  19.458  0.00  0.00    +0.000 HD
ENDBRANCH  20  21
ENDBRANCH   1  20
TORSDOF 3
ENDMDL
MODEL 4
REMARK VINA RESULT:      -7.6      4.790      8.377
REMARK  Name = 
REMARK  3 active torsions:
REMARK  status: ('A' for Active; 'I' for Inactive)
REMARK    1  A    between atoms: C_2  and  O_3
REMARK    2  A    between atoms: C_2  and  C_4
REMARK    3  A    between atoms: C_11  and  C_12
REMARK                            x       y       z     vdW  Elec       q    Type
REMARK                         _______ _______ _______ _____ _____    ______ ____
ROOT
ATOM      1  C   UNL     1      -0.183  10.083  21.696  0.00  0.00    +0.000 A 
ATOM      2  C   UNL     1      -0.398  10.743  20.466  0.00  0.00    +0.000 A 
ATOM      3  N   UNL     1       0.340  10.251  19.469  0.00  0.00    +0.000 NA
ATOM      4  N   UNL     1       1.015   9.218  20.031  0.00  0.00    +0.000 N 
ATOM      5  C   UNL     1       1.886   8.365  19.291  0.00  0.00    +0.000 A 
ATOM      6  C   UNL     1       2.164   8.658  17.964  0.00  0.00    +0.000 A 
ATOM      7  C   UNL     1       3.032   7.814  17.264  0.00  0.00    +0.000 A 
ATOM      8  C   UNL     1       3.587   6.671  17.866  0.00  0.00    +0.000 A 
ATOM      9  C   UNL     1       3.205   6.462  19.193  0.00  0.00    +0.000 A 
ATOM     10  N   UNL     1       2.401   7.280  19.923  0.00  0.00    +0.000 NA
ATOM     11  C   UNL     1       0.736   9.103  21.381  0.00  0.00    +0.000 A 
ENDROOT
BRANCH   8  12
ATOM     12  C   UNL     1       4.470   5.740  17.109  0.00  0.00    +0.000 A 
ATOM     13  C   UNL     1       5.731   6.206  16.668  0.00  0.00    +0.000 A 
ATOM     14  C   UNL     1       6.627   5.393  15.966  0.00  0.00    +0.000 A 
ATOM     15  C   UNL     1       6.279   4.089  15.651  0.00  0.00    +0.000 A 
ATOM     16  C   UNL     1       5.043   3.595  16.056  0.00  0.00    +0.000 A 
ATOM     17  C   UNL     1       4.155   4.398  16.791  0.00  0.00    +0.000 A 
ATOM     18 CL   UNL     1       2.710   3.601  17.323  0.00  0.00    +0.000 Cl
ENDBRANCH   8  12
BRANCH   1  20
ATOM     19  O   UNL     1      -1.708  11.214  23.078  0.00  0.00    +0.000 OA
ATOM     20  C   UNL     1      -0.814  10.391  22.964  0.00  0.00    +0.000 C 
BRANCH  20  21
ATOM     21  O   UNL     1      -0.334   9.704  24.037  0.00  0.00    +0.000 OA
ATOM     22  H   UNL     1       0.205  10.249  24.634  0.00  0.00    +0.000 HD
ENDBRANCH  20  21
ENDBRANCH   1  20
TORSDOF 3
ENDMDL
MODEL 5
REMARK VINA RESULT:      -7.6      1.302      1.745
REMARK  Name = 
REMARK  3 active torsions:
REMARK  status: ('A' for Active; 'I' for Inactive)
REMARK    1  A    between atoms: C_2  and  O_3
REMARK    2  A    between atoms: C_2  and  C_4
REMARK    3  A    between atoms: C_11  and  C_12
REMARK                            x       y       z     vdW  Elec       q    Type
REMARK                         _______ _______ _______ _____ _____    ______ ____
ROOT
ATOM      1  C   UNL     1       5.537   5.140  16.346  0.00  0.00    +0.000 A 
ATOM      2  C   UNL     1       5.106   4.362  17.443  0.00  0.00    +0.000 A 
ATOM      3  N   UNL     1       4.248   5.004  18.239  0.00  0.00    +0.000 NA
ATOM      4  N   UNL     1       4.066   6.206  17.635  0.00  0.00    +0.000 N 
ATOM      5  C   UNL     1       3.164   7.194  18.127  0.00  0.00    +0.000 A 
ATOM      6  C   UNL     1       2.521   6.990  19.339  0.00  0.00    +0.000 A 
ATOM      7  C   UNL     1       1.651   7.980  19.806  0.00  0.00    +0.000 A 
ATOM      8  C   UNL     1       1.395   9.143  19.057  0.00  0.00    +0.000 A 
ATOM      9  C   UNL     1       2.072   9.217  17.838  0.00  0.00    +0.000 A 
ATOM     10  N   UNL     1       2.959   8.301  17.369  0.00  0.00    +0.000 NA
ATOM     11  C   UNL     1       4.848   6.326  16.500  0.00  0.00    +0.000 A 
ENDROOT
BRANCH   8  12
ATOM     12  C   UNL     1       0.430  10.175  19.525  0.00  0.00    +0.000 A 
ATOM     13  C   UNL     1       0.731  10.908  20.698  0.00  0.00    +0.000 A 
ATOM     14  C   UNL     1      -0.113  11.906  21.197  0.00  0.00    +0.000 A 
ATOM     15  C   UNL     1      -1.309  12.186  20.555  0.00  0.00    +0.000 A 
ATOM     16  C   UNL     1      -1.649  11.481  19.405  0.00  0.00    +0.000 A 
ATOM     17  C   UNL     1      -0.788  10.502  18.883  0.00  0.00    +0.000 A 
ATOM     18 CL   UNL     1      -1.298   9.799  17.382  0.00  0.00    +0.000 Cl
ENDBRANCH   8  12
BRANCH   1  20
ATOM     19  O   UNL     1       7.413   5.439  14.965  0.00  0.00    +0.000 OA
ATOM     20  C   UNL     1       6.477   4.739  15.319  0.00  0.00    +0.000 C 
BRANCH  20  21
ATOM     21  O   UNL     1       6.245   3.520  14.759  0.00  0.00    +0.000 OA
ATOM     22  H   UNL     1       6.204   2.799  15.409  0.00  0.00    +0.000 HD
ENDBRANCH  20  21
ENDBRANCH   1  20
TORSDOF 3
ENDMDL
MODEL 6
REMARK VINA RESULT:      -7.5      2.086      2.709
REMARK  Name = 
REMARK  3 active torsions:
REMARK  status: ('A' for Active; 'I' for Inactive)
REMARK    1  A    between atoms: C_2  and  O_3
REMARK    2  A    between atoms: C_2  and  C_4
REMARK    3  A    between atoms: C_11  and  C_12
REMARK                            x       y       z     vdW  Elec       q    Type
REMARK                         _______ _______ _______ _____ _____    ______ ____
ROOT
ATOM      1  C   UNL     1       6.088   5.084  17.698  0.00  0.00    +0.000 A 
ATOM      2  C   UNL     1       5.499   4.480  18.831  0.00  0.00    +0.000 A 
ATOM      3  N   UNL     1       4.456   5.163  19.309  0.00  0.00    +0.000 NA
ATOM      4  N   UNL     1       4.318   6.206  18.452  0.00  0.00    +0.000 N 
ATOM      5  C   UNL     1       3.270   7.165  18.559  0.00  0.00    +0.000 A 
ATOM      6  C   UNL     1       2.412   7.122  19.649  0.00  0.00    +0.000 A 
ATOM      7  C   UNL     1       1.400   8.082  19.738  0.00  0.00    +0.000 A 
ATOM      8  C   UNL     1       1.220   9.053  18.735  0.00  0.00    +0.000 A 
ATOM      9  C   UNL     1       2.122   8.973  17.673  0.00  0.00    +0.000 A 
ATOM     10  N   UNL     1       3.146   8.085  17.569  0.00  0.00    +0.000 NA
ATOM     11  C   UNL     1       5.302   6.197  17.479  0.00  0.00    +0.000 A 
ENDROOT
BRANCH   8  12
ATOM     12  C   UNL     1       0.112  10.045  18.800  0.00  0.00    +0.000 A 
ATOM     13  C   UNL     1      -0.937   9.958  17.854  0.00  0.00    +0.000 A 
ATOM     14  C   UNL     1      -2.023  10.840  17.854  0.00  0.00    +0.000 A 
ATOM     15  C   UNL     1      -2.083  11.864  18.786  0.00  0.00    +0.000 A 
ATOM     16  C   UNL     1      -1.067  11.993  19.727  0.00  0.00    +0.000 A 
ATOM     17  C   UNL     1       0.008  11.088  19.750  0.00  0.00    +0.000 A 
ATOM     18 CL   UNL     1       1.128  11.310  21.055  0.00  0.00    +0.000 Cl
ENDBRANCH   8  12
BRANCH   1  20
ATOM     19  O   UNL     1       7.335   4.680  15.749  0.00  0.00    +0.000 OA
ATOM     20  C   UNL     1       7.241   4.602  16.964  0.00  0.00    +0.000 C 
BRANCH  20  21
ATOM     21  O   UNL     1       8.223   4.041  17.722  0.00  0.00    +0.000 OA
ATOM     22  H   UNL     1       8.930   3.634  17.196  0.00  0.00    +0.000 HD
ENDBRANCH  20  21
ENDBRANCH   1  20
TORSDOF 3
ENDMDL
MODEL 7
REMARK VINA RESULT:      -7.4      5.301      8.550
REMARK  Name = 
REMARK  3 active torsions:
REMARK  status: ('A' for Active; 'I' for Inactive)
REMARK    1  A    between atoms: C_2  and  O_3
REMARK    2  A    between atoms: C_2  and  C_4
REMARK    3  A    between atoms: C_11  and  C_12
REMARK                            x       y       z     vdW  Elec       q    Type
REMARK                         _______ _______ _______ _____ _____    ______ ____
ROOT
ATOM      1  C   UNL     1      -0.506  11.850  21.409  0.00  0.00    +0.000 A 
ATOM      2  C   UNL     1      -0.631  12.263  20.064  0.00  0.00    +0.000 A 
ATOM      3  N   UNL     1      -0.014  11.450  19.204  0.00  0.00    +0.000 NA
ATOM      4  N   UNL     1       0.484  10.456  19.982  0.00  0.00    +0.000 N 
ATOM      5  C   UNL     1       1.174   9.327  19.452  0.00  0.00    +0.000 A 
ATOM      6  C   UNL     1       1.468   9.279  18.096  0.00  0.00    +0.000 A 
ATOM      7  C   UNL     1       2.157   8.167  17.603  0.00  0.00    +0.000 A 
ATOM      8  C   UNL     1       2.519   7.098  18.442  0.00  0.00    +0.000 A 
ATOM      9  C   UNL     1       2.138   7.245  19.778  0.00  0.00    +0.000 A 
ATOM     10  N   UNL     1       1.507   8.326  20.306  0.00  0.00    +0.000 NA
ATOM     11  C   UNL     1       0.221  10.679  21.321  0.00  0.00    +0.000 A 
ENDROOT
BRANCH   8  12
ATOM     12  C   UNL     1       3.207   5.889  17.912  0.00  0.00    +0.000 A 
ATOM     13  C   UNL     1       2.495   4.667  17.861  0.00  0.00    +0.000 A 
ATOM     14  C   UNL     1       3.062   3.488  17.364  0.00  0.00    +0.000 A 
ATOM     15  C   UNL     1       4.377   3.484  16.925  0.00  0.00    +0.000 A 
ATOM     16  C   UNL     1       5.116   4.661  16.968  0.00  0.00    +0.000 A 
ATOM     17  C   UNL     1       4.539   5.854  17.437  0.00  0.00    +0.000 A 
ATOM     18 CL   UNL     1       5.551   7.257  17.316  0.00  0.00    +0.000 Cl
ENDBRANCH   8  12
BRANCH   1  20
ATOM     19  O   UNL     1      -0.391  13.309  23.245  0.00  0.00    +0.000 OA
ATOM     20  C   UNL     1      -1.042  12.525  22.574  0.00  0.00    +0.000 C 
BRANCH  20  21
ATOM     21  O   UNL     1      -2.332  12.220  22.883  0.00  0.00    +0.000 OA
ATOM     22  H   UNL     1      -2.462  11.287  23.118  0.00  0.00    +0.000 HD
ENDBRANCH  20  21
ENDBRANCH   1  20
TORSDOF 3
ENDMDL
MODEL 8
REMARK VINA RESULT:      -7.3      3.886      5.047
REMARK  Name = 
REMARK  3 active torsions:
REMARK  status: ('A' for Active; 'I' for Inactive)
REMARK    1  A    between atoms: C_2  and  O_3
REMARK    2  A    between atoms: C_2  and  C_4
REMARK    3  A    between atoms: C_11  and  C_12
REMARK                            x       y       z     vdW  Elec       q    Type
REMARK                         _______ _______ _______ _____ _____    ______ ____
ROOT
ATOM      1  C   UNL     1       2.518   3.998  20.595  0.00  0.00    +0.000 A 
ATOM      2  C   UNL     1       3.162   4.081  19.341  0.00  0.00    +0.000 A 
ATOM      3  N   UNL     1       3.008   5.267  18.747  0.00  0.00    +0.000 NA
ATOM      4  N   UNL     1       2.296   5.998  19.641  0.00  0.00    +0.000 N 
ATOM      5  C   UNL     1       1.958   7.367  19.430  0.00  0.00    +0.000 A 
ATOM      6  C   UNL     1       2.255   7.965  18.214  0.00  0.00    +0.000 A 
ATOM      7  C   UNL     1       1.901   9.305  18.028  0.00  0.00    +0.000 A 
ATOM      8  C   UNL     1       1.293  10.052  19.053  0.00  0.00    +0.000 A 
ATOM      9  C   UNL     1       1.078   9.351  20.241  0.00  0.00    +0.000 A 
ATOM     10  N   UNL     1       1.365   8.039  20.449  0.00  0.00    +0.000 NA
ATOM     11  C   UNL     1       1.968   5.253  20.759  0.00  0.00    +0.000 A 
ENDROOT
BRANCH   8  12
ATOM     12  C   UNL     1       0.962  11.493  18.877  0.00  0.00    +0.000 A 
ATOM     13  C   UNL     1       2.020  12.427  18.770  0.00  0.00    +0.000 A 
ATOM     14  C   UNL     1       1.796  13.796  18.588  0.00  0.00    +0.000 A 
ATOM     15  C   UNL     1       0.500  14.285  18.535  0.00  0.00    +0.000 A 
ATOM     16  C   UNL     1      -0.569  13.403  18.647  0.00  0.00    +0.000 A 
ATOM     17  C   UNL     1      -0.348  12.023  18.796  0.00  0.00    +0.000 A 
ATOM     18 CL   UNL     1      -1.779  11.045  18.802  0.00  0.00    +0.000 Cl
ENDBRANCH   8  12
BRANCH   1  20
ATOM     19  O   UNL     1       1.486   2.518  22.098  0.00  0.00    +0.000 OA
ATOM     20  C   UNL     1       2.482   2.846  21.473  0.00  0.00    +0.000 C 
BRANCH  20  21
ATOM     21  O   UNL     1       3.647   2.147  21.567  0.00  0.00    +0.000 OA
ATOM     22  H   UNL     1       3.679   1.554  22.335  0.00  0.00    +0.000 HD
ENDBRANCH  20  21
ENDBRANCH   1  20
TORSDOF 3
ENDMDL
MODEL 9
REMARK VINA RESULT:      -7.3      1.317      1.926
REMARK  Name = 
REMARK  3 active torsions:
REMARK  status: ('A' for Active; 'I' for Inactive)
REMARK    1  A    between atoms: C_2  and  O_3
REMARK    2  A    between atoms: C_2  and  C_4
REMARK    3  A    between atoms: C_11  and  C_12
REMARK                            x       y       z     vdW  Elec       q    Type
REMARK                         _______ _______ _______ _____ _____    ______ ____
ROOT
ATOM      1  C   UNL     1       5.767   5.165  15.862  0.00  0.00    +0.000 A 
ATOM      2  C   UNL     1       5.411   4.278  16.902  0.00  0.00    +0.000 A 
ATOM      3  N   UNL     1       4.571   4.817  17.789  0.00  0.00    +0.000 NA
ATOM      4  N   UNL     1       4.325   6.060  17.304  0.00  0.00    +0.000 N 
ATOM      5  C   UNL     1       3.416   6.968  17.921  0.00  0.00    +0.000 A 
ATOM      6  C   UNL     1       2.837   6.636  19.137  0.00  0.00    +0.000 A 
ATOM      7  C   UNL     1       1.959   7.549  19.728  0.00  0.00    +0.000 A 
ATOM      8  C   UNL     1       1.633   8.765  19.099  0.00  0.00    +0.000 A 
ATOM      9  C   UNL     1       2.251   8.970  17.864  0.00  0.00    +0.000 A 
ATOM     10  N   UNL     1       3.142   8.130  17.276  0.00  0.00    +0.000 NA
ATOM     11  C   UNL     1       5.049   6.308  16.152  0.00  0.00    +0.000 A 
ENDROOT
BRANCH   8  12
ATOM     12  C   UNL     1       0.659   9.717  19.700  0.00  0.00    +0.000 A 
ATOM     13  C   UNL     1      -0.214  10.430  18.844  0.00  0.00    +0.000 A 
ATOM     14  C   UNL     1      -1.168  11.332  19.327  0.00  0.00    +0.000 A 
ATOM     15  C   UNL     1      -1.264  11.576  20.688  0.00  0.00    +0.000 A 
ATOM     16  C   UNL     1      -0.418  10.904  21.564  0.00  0.00    +0.000 A 
ATOM     17  C   UNL     1       0.519   9.973  21.084  0.00  0.00    +0.000 A 
ATOM     18 CL   UNL     1       1.415   9.134  22.309  0.00  0.00    +0.000 Cl
ENDBRANCH   8  12
BRANCH   1  20
ATOM     19  O   UNL     1       7.753   5.440  14.640  0.00  0.00    +0.000 OA
ATOM     20  C   UNL     1       6.670   4.889  14.764  0.00  0.00    +0.000 C 
BRANCH  20  21
ATOM     21  O   UNL     1       6.228   3.972  13.860  0.00  0.00    +0.000 OA
ATOM     22  H   UNL     1       5.529   4.310  13.278  0.00  0.00    +0.000 HD
ENDBRANCH  20  21
ENDBRANCH   1  20
TORSDOF 3
ENDMDL
