MODEL 1
REMARK VINA RESULT:      -7.5      0.000      0.000
REMARK  Name = 
REMARK  4 active torsions:
REMARK  status: ('A' for Active; 'I' for Inactive)
REMARK    1  A    between atoms: C_1  and  N_2
REMARK    2  A    between atoms: C_8  and  C_9
REMARK    3  A    between atoms: C_15  and  C_16
REMARK    4  A    between atoms: C_16  and  C_18
REMARK                            x       y       z     vdW  Elec       q    Type
REMARK                         _______ _______ _______ _____ _____    ______ ____
ROOT
ATOM      1  C   UNL     1      -1.698  12.278  22.650  0.00  0.00    +0.000 C 
ATOM      2  N   UNL     1      -0.456  11.544  22.420  0.00  0.00    +0.000 NA
ATOM      3  C   UNL     1      -0.113  11.550  20.981  0.00  0.00    +0.000 C 
ATOM      4  C   UNL     1       1.171  10.747  20.675  0.00  0.00    +0.000 C 
ATOM      5  N   UNL     1       1.023   9.383  21.182  0.00  0.00    +0.000 N 
ATOM      6  C   UNL     1       1.442   8.274  20.523  0.00  0.00    +0.000 A 
ATOM      7  N   UNL     1       1.380   7.066  21.030  0.00  0.00    +0.000 NA
ATOM      8  C   UNL     1       1.865   6.095  20.157  0.00  0.00    +0.000 A 
ATOM      9  C   UNL     1       2.369   6.599  18.965  0.00  0.00    +0.000 A 
ATOM     10  S   UNL     1       2.038   8.290  18.915  0.00  0.00    +0.000 S 
ATOM     11  C   UNL     1       0.682   9.301  22.607  0.00  0.00    +0.000 C 
ATOM     12  C   UNL     1      -0.585  10.142  22.886  0.00  0.00    +0.000 C 
ENDROOT
BRANCH   8  13
ATOM     13  C   UNL     1       1.800   4.702  20.605  0.00  0.00    +0.000 A 
ATOM     14  C   UNL     1       0.934   3.825  19.926  0.00  0.00    +0.000 A 
ATOM     15  C   UNL     1       0.747   2.510  20.361  0.00  0.00    +0.000 A 
ATOM     16  C   UNL     1       1.428   2.051  21.483  0.00  0.00    +0.000 A 
ATOM     17  C   UNL     1       2.300   2.904  22.160  0.00  0.00    +0.000 A 
ATOM     18  C   UNL     1       2.482   4.224  21.727  0.00  0.00    +0.000 A 
ENDBRANCH   8  13
BRANCH   9  19
ATOM     19  C   UNL     1       2.936   5.944  17.796  0.00  0.00    +0.000 C 
ATOM     20  O   UNL     1       2.340   5.067  17.179  0.00  0.00    +0.000 OA
BRANCH  19  21
ATOM     21  C   UNL     1       4.256   6.395  17.383  0.00  0.00    +0.000 A 
ATOM     22  C   UNL     1       4.646   7.163  16.294  0.00  0.00    +0.000 A 
ATOM     23  N   UNL     1       5.999   7.352  16.251  0.00  0.00    +0.000 NA
ATOM     24  C   UNL     1       6.464   6.743  17.318  0.00  0.00    +0.000 A 
ATOM     25  C   UNL     1       7.795   6.620  17.808  0.00  0.00    +0.000 A 
ATOM     26  C   UNL     1       8.030   5.942  18.948  0.00  0.00    +0.000 A 
ATOM     27  C   UNL     1       6.948   5.313  19.688  0.00  0.00    +0.000 A 
ATOM     28  C   UNL     1       5.689   5.424  19.230  0.00  0.00    +0.000 A 
ATOM     29  N   UNL     1       5.442   6.144  18.057  0.00  0.00    +0.000 N 
ENDBRANCH  19  21
ENDBRANCH   9  19
TORSDOF 3
ENDMDL
MODEL 2
REMARK VINA RESULT:      -7.4      1.665      2.778
REMARK  Name = 
REMARK  4 active torsions:
REMARK  status: ('A' for Active; 'I' for Inactive)
REMARK    1  A    between atoms: C_1  and  N_2
REMARK    2  A    between atoms: C_8  and  C_9
REMARK    3  A    between atoms: C_15  and  C_16
REMARK    4  A    between atoms: C_16  and  C_18
REMARK                            x       y       z     vdW  Elec       q    Type
REMARK                         _______ _______ _______ _____ _____    ______ ____
ROOT
ATOM      1  C   UNL     1      -2.457  12.764  22.083  0.00  0.00    +0.000 C 
ATOM      2  N   UNL     1      -1.176  12.063  22.104  0.00  0.00    +0.000 NA
ATOM      3  C   UNL     1      -0.537  12.116  20.771  0.00  0.00    +0.000 C 
ATOM      4  C   UNL     1       0.803  11.348  20.726  0.00  0.00    +0.000 C 
ATOM      5  N   UNL     1       0.587   9.968  21.159  0.00  0.00    +0.000 N 
ATOM      6  C   UNL     1       1.165   8.886  20.579  0.00  0.00    +0.000 A 
ATOM      7  N   UNL     1       1.029   7.664  21.034  0.00  0.00    +0.000 NA
ATOM      8  C   UNL     1       1.712   6.728  20.262  0.00  0.00    +0.000 A 
ATOM      9  C   UNL     1       2.443   7.275  19.216  0.00  0.00    +0.000 A 
ATOM     10  S   UNL     1       2.086   8.959  19.134  0.00  0.00    +0.000 S 
ATOM     11  C   UNL     1      -0.045   9.840  22.477  0.00  0.00    +0.000 C 
ATOM     12  C   UNL     1      -1.364  10.646  22.502  0.00  0.00    +0.000 C 
ENDROOT
BRANCH   8  13
ATOM     13  C   UNL     1       1.591   5.322  20.654  0.00  0.00    +0.000 A 
ATOM     14  C   UNL     1       2.553   4.793  21.536  0.00  0.00    +0.000 A 
ATOM     15  C   UNL     1       2.557   3.437  21.874  0.00  0.00    +0.000 A 
ATOM     16  C   UNL     1       1.595   2.588  21.336  0.00  0.00    +0.000 A 
ATOM     17  C   UNL     1       0.628   3.099  20.472  0.00  0.00    +0.000 A 
ATOM     18  C   UNL     1       0.627   4.457  20.128  0.00  0.00    +0.000 A 
ENDBRANCH   8  13
BRANCH   9  19
ATOM     19  C   UNL     1       3.261   6.664  18.178  0.00  0.00    +0.000 C 
ATOM     20  O   UNL     1       3.325   7.116  17.039  0.00  0.00    +0.000 OA
BRANCH  19  21
ATOM     21  C   UNL     1       4.019   5.485  18.568  0.00  0.00    +0.000 A 
ATOM     22  C   UNL     1       5.206   5.371  19.277  0.00  0.00    +0.000 A 
ATOM     23  N   UNL     1       5.603   4.070  19.419  0.00  0.00    +0.000 NA
ATOM     24  C   UNL     1       4.662   3.361  18.838  0.00  0.00    +0.000 A 
ATOM     25  C   UNL     1       4.523   1.951  18.690  0.00  0.00    +0.000 A 
ATOM     26  C   UNL     1       3.451   1.447  18.050  0.00  0.00    +0.000 A 
ATOM     27  C   UNL     1       2.430   2.316  17.489  0.00  0.00    +0.000 A 
ATOM     28  C   UNL     1       2.555   3.647  17.624  0.00  0.00    +0.000 A 
ATOM     29  N   UNL     1       3.659   4.171  18.304  0.00  0.00    +0.000 N 
ENDBRANCH  19  21
ENDBRANCH   9  19
TORSDOF 3
ENDMDL
MODEL 3
REMARK VINA RESULT:      -7.3      2.209      2.731
REMARK  Name = 
REMARK  4 active torsions:
REMARK  status: ('A' for Active; 'I' for Inactive)
REMARK    1  A    between atoms: C_1  and  N_2
REMARK    2  A    between atoms: C_8  and  C_9
REMARK    3  A    between atoms: C_15  and  C_16
REMARK    4  A    between atoms: C_16  and  C_18
REMARK                            x       y       z     vdW  Elec       q    Type
REMARK                         _______ _______ _______ _____ _____    ______ ____
ROOT
ATOM      1  C   UNL     1      -1.257  12.047  19.721  0.00  0.00    +0.000 C 
ATOM      2  N   UNL     1       0.007  11.319  19.795  0.00  0.00    +0.000 NA
ATOM      3  C   UNL     1       0.474  10.959  18.439  0.00  0.00    +0.000 C 
ATOM      4  C   UNL     1       1.787  10.145  18.463  0.00  0.00    +0.000 C 
ATOM      5  N   UNL     1       1.609   8.958  19.298  0.00  0.00    +0.000 N 
ATOM      6  C   UNL     1       2.095   7.729  18.992  0.00  0.00    +0.000 A 
ATOM      7  N   UNL     1       2.000   6.696  19.793  0.00  0.00    +0.000 NA
ATOM      8  C   UNL     1       2.569   5.546  19.251  0.00  0.00    +0.000 A 
ATOM      9  C   UNL     1       3.170   5.735  18.014  0.00  0.00    +0.000 A 
ATOM     10  S   UNL     1       2.829   7.342  17.491  0.00  0.00    +0.000 S 
ATOM     11  C   UNL     1       1.146   9.242  20.661  0.00  0.00    +0.000 C 
ATOM     12  C   UNL     1      -0.149  10.086  20.604  0.00  0.00    +0.000 C 
ENDROOT
BRANCH   8  13
ATOM     13  C   UNL     1       2.479   4.318  20.044  0.00  0.00    +0.000 A 
ATOM     14  C   UNL     1       1.246   4.005  20.648  0.00  0.00    +0.000 A 
ATOM     15  C   UNL     1       1.115   2.904  21.499  0.00  0.00    +0.000 A 
ATOM     16  C   UNL     1       2.217   2.097  21.758  0.00  0.00    +0.000 A 
ATOM     17  C   UNL     1       3.442   2.385  21.158  0.00  0.00    +0.000 A 
ATOM     18  C   UNL     1       3.576   3.493  20.310  0.00  0.00    +0.000 A 
ENDBRANCH   8  13
BRANCH   9  19
ATOM     19  C   UNL     1       3.843   4.814  17.109  0.00  0.00    +0.000 C 
ATOM     20  O   UNL     1       3.339   3.753  16.755  0.00  0.00    +0.000 OA
BRANCH  19  21
ATOM     21  C   UNL     1       5.154   5.226  16.630  0.00  0.00    +0.000 A 
ATOM     22  C   UNL     1       6.135   5.996  17.240  0.00  0.00    +0.000 A 
ATOM     23  N   UNL     1       7.228   6.173  16.438  0.00  0.00    +0.000 NA
ATOM     24  C   UNL     1       6.963   5.495  15.344  0.00  0.00    +0.000 A 
ATOM     25  C   UNL     1       7.738   5.297  14.166  0.00  0.00    +0.000 A 
ATOM     26  C   UNL     1       7.251   4.544  13.161  0.00  0.00    +0.000 A 
ATOM     27  C   UNL     1       5.934   3.936  13.245  0.00  0.00    +0.000 A 
ATOM     28  C   UNL     1       5.196   4.120  14.354  0.00  0.00    +0.000 A 
ATOM     29  N   UNL     1       5.708   4.886  15.405  0.00  0.00    +0.000 N 
ENDBRANCH  19  21
ENDBRANCH   9  19
TORSDOF 3
ENDMDL
MODEL 4
REMARK VINA RESULT:      -7.2      0.904      1.284
REMARK  Name = 
REMARK  4 active torsions:
REMARK  status: ('A' for Active; 'I' for Inactive)
REMARK    1  A    between atoms: C_1  and  N_2
REMARK    2  A    between atoms: C_8  and  C_9
REMARK    3  A    between atoms: C_15  and  C_16
REMARK    4  A    between atoms: C_16  and  C_18
REMARK                            x       y       z     vdW  Elec       q    Type
REMARK                         _______ _______ _______ _____ _____    ______ ____
ROOT
ATOM      1  C   UNL     1      -1.898  12.657  20.544  0.00  0.00    +0.000 C 
ATOM      2  N   UNL     1      -0.653  11.896  20.617  0.00  0.00    +0.000 NA
ATOM      3  C   UNL     1      -0.120  11.649  19.259  0.00  0.00    +0.000 C 
ATOM      4  C   UNL     1       1.175  10.807  19.277  0.00  0.00    +0.000 C 
ATOM      5  N   UNL     1       0.931   9.553  19.989  0.00  0.00    +0.000 N 
ATOM      6  C   UNL     1       1.411   8.347  19.598  0.00  0.00    +0.000 A 
ATOM      7  N   UNL     1       1.254   7.247  20.295  0.00  0.00    +0.000 NA
ATOM      8  C   UNL     1       1.831   6.138  19.680  0.00  0.00    +0.000 A 
ATOM      9  C   UNL     1       2.501   6.425  18.498  0.00  0.00    +0.000 A 
ATOM     10  S   UNL     1       2.217   8.080  18.108  0.00  0.00    +0.000 S 
ATOM     11  C   UNL     1       0.400   9.724  21.347  0.00  0.00    +0.000 C 
ATOM     12  C   UNL     1      -0.874  10.598  21.300  0.00  0.00    +0.000 C 
ENDROOT
BRANCH   8  13
ATOM     13  C   UNL     1       1.676   4.847  20.352  0.00  0.00    +0.000 A 
ATOM     14  C   UNL     1       2.480   4.581  21.477  0.00  0.00    +0.000 A 
ATOM     15  C   UNL     1       2.457   3.334  22.106  0.00  0.00    +0.000 A 
ATOM     16  C   UNL     1       1.626   2.331  21.620  0.00  0.00    +0.000 A 
ATOM     17  C   UNL     1       0.814   2.581  20.515  0.00  0.00    +0.000 A 
ATOM     18  C   UNL     1       0.841   3.829  19.879  0.00  0.00    +0.000 A 
ENDBRANCH   8  13
BRANCH   9  19
ATOM     19  C   UNL     1       3.205   5.575  17.550  0.00  0.00    +0.000 C 
ATOM     20  O   UNL     1       2.701   4.564  17.072  0.00  0.00    +0.000 OA
BRANCH  19  21
ATOM     21  C   UNL     1       4.548   5.996  17.182  0.00  0.00    +0.000 A 
ATOM     22  C   UNL     1       5.020   6.589  16.019  0.00  0.00    +0.000 A 
ATOM     23  N   UNL     1       6.368   6.813  16.062  0.00  0.00    +0.000 NA
ATOM     24  C   UNL     1       6.746   6.402  17.251  0.00  0.00    +0.000 A 
ATOM     25  C   UNL     1       8.030   6.404  17.867  0.00  0.00    +0.000 A 
ATOM     26  C   UNL     1       8.174   5.928  19.118  0.00  0.00    +0.000 A 
ATOM     27  C   UNL     1       7.042   5.393  19.856  0.00  0.00    +0.000 A 
ATOM     28  C   UNL     1       5.827   5.386  19.280  0.00  0.00    +0.000 A 
ATOM     29  N   UNL     1       5.673   5.897  17.988  0.00  0.00    +0.000 N 
ENDBRANCH  19  21
ENDBRANCH   9  19
TORSDOF 3
ENDMDL
MODEL 5
REMARK VINA RESULT:      -7.2      0.861      1.715
REMARK  Name = 
REMARK  4 active torsions:
REMARK  status: ('A' for Active; 'I' for Inactive)
REMARK    1  A    between atoms: C_1  and  N_2
REMARK    2  A    between atoms: C_8  and  C_9
REMARK    3  A    between atoms: C_15  and  C_16
REMARK    4  A    between atoms: C_16  and  C_18
REMARK                            x       y       z     vdW  Elec       q    Type
REMARK                         _______ _______ _______ _____ _____    ______ ____
ROOT
ATOM      1  C   UNL     1      -2.000  12.400  23.060  0.00  0.00    +0.000 C 
ATOM      2  N   UNL     1      -0.752  11.665  22.869  0.00  0.00    +0.000 NA
ATOM      3  C   UNL     1      -0.286  11.796  21.471  0.00  0.00    +0.000 C 
ATOM      4  C   UNL     1       1.010  10.999  21.202  0.00  0.00    +0.000 C 
ATOM      5  N   UNL     1       0.803   9.597  21.566  0.00  0.00    +0.000 N 
ATOM      6  C   UNL     1       1.264   8.545  20.845  0.00  0.00    +0.000 A 
ATOM      7  N   UNL     1       1.144   7.298  21.231  0.00  0.00    +0.000 NA
ATOM      8  C   UNL     1       1.691   6.401  20.316  0.00  0.00    +0.000 A 
ATOM      9  C   UNL     1       2.302   7.002  19.224  0.00  0.00    +0.000 A 
ATOM     10  S   UNL     1       1.997   8.696  19.302  0.00  0.00    +0.000 S 
ATOM     11  C   UNL     1       0.339   9.393  22.943  0.00  0.00    +0.000 C 
ATOM     12  C   UNL     1      -0.937  10.230  23.191  0.00  0.00    +0.000 C 
ENDROOT
BRANCH   8  13
ATOM     13  C   UNL     1       1.572   4.975  20.626  0.00  0.00    +0.000 A 
ATOM     14  C   UNL     1       2.343   4.457  21.684  0.00  0.00    +0.000 A 
ATOM     15  C   UNL     1       2.354   3.090  21.972  0.00  0.00    +0.000 A 
ATOM     16  C   UNL     1       1.592   2.217  21.203  0.00  0.00    +0.000 A 
ATOM     17  C   UNL     1       0.812   2.715  20.159  0.00  0.00    +0.000 A 
ATOM     18  C   UNL     1       0.805   4.085  19.867  0.00  0.00    +0.000 A 
ENDBRANCH   8  13
BRANCH   9  19
ATOM     19  C   UNL     1       2.960   6.445  18.051  0.00  0.00    +0.000 C 
ATOM     20  O   UNL     1       2.525   6.603  16.915  0.00  0.00    +0.000 OA
BRANCH  19  21
ATOM     21  C   UNL     1       4.182   5.694  18.295  0.00  0.00    +0.000 A 
ATOM     22  C   UNL     1       4.366   4.378  18.696  0.00  0.00    +0.000 A 
ATOM     23  N   UNL     1       5.688   4.057  18.833  0.00  0.00    +0.000 NA
ATOM     24  C   UNL     1       6.341   5.144  18.488  0.00  0.00    +0.000 A 
ATOM     25  C   UNL     1       7.739   5.401  18.416  0.00  0.00    +0.000 A 
ATOM     26  C   UNL     1       8.180   6.611  18.023  0.00  0.00    +0.000 A 
ATOM     27  C   UNL     1       7.252   7.677  17.683  0.00  0.00    +0.000 A 
ATOM     28  C   UNL     1       5.930   7.442  17.751  0.00  0.00    +0.000 A 
ATOM     29  N   UNL     1       5.472   6.180  18.141  0.00  0.00    +0.000 N 
ENDBRANCH  19  21
ENDBRANCH   9  19
TORSDOF 3
ENDMDL
MODEL 6
REMARK VINA RESULT:      -7.0      2.053      2.961
REMARK  Name = 
REMARK  4 active torsions:
REMARK  status: ('A' for Active; 'I' for Inactive)
REMARK    1  A    between atoms: C_1  and  N_2
REMARK    2  A    between atoms: C_8  and  C_9
REMARK    3  A    between atoms: C_15  and  C_16
REMARK    4  A    between atoms: C_16  and  C_18
REMARK                            x       y       z     vdW  Elec       q    Type
REMARK                         _______ _______ _______ _____ _____    ______ ____
ROOT
ATOM      1  C   UNL     1      -2.601  12.740  19.505  0.00  0.00    +0.000 C 
ATOM      2  N   UNL     1      -1.312  12.142  19.846  0.00  0.00    +0.000 NA
ATOM      3  C   UNL     1      -0.475  11.997  18.635  0.00  0.00    +0.000 C 
ATOM      4  C   UNL     1       0.884  11.326  18.933  0.00  0.00    +0.000 C 
ATOM      5  N   UNL     1       0.658  10.035  19.582  0.00  0.00    +0.000 N 
ATOM      6  C   UNL     1       1.361   8.908  19.307  0.00  0.00    +0.000 A 
ATOM      7  N   UNL     1       1.203   7.782  19.959  0.00  0.00    +0.000 NA
ATOM      8  C   UNL     1       2.035   6.770  19.487  0.00  0.00    +0.000 A 
ATOM      9  C   UNL     1       2.899   7.167  18.475  0.00  0.00    +0.000 A 
ATOM     10  S   UNL     1       2.494   8.781  18.026  0.00  0.00    +0.000 S 
ATOM     11  C   UNL     1      -0.167  10.105  20.793  0.00  0.00    +0.000 C 
ATOM     12  C   UNL     1      -1.504  10.811  20.471  0.00  0.00    +0.000 C 
ENDROOT
BRANCH   8  13
ATOM     13  C   UNL     1       1.909   5.453  20.116  0.00  0.00    +0.000 A 
ATOM     14  C   UNL     1       0.911   4.582  19.640  0.00  0.00    +0.000 A 
ATOM     15  C   UNL     1       0.669   3.352  20.258  0.00  0.00    +0.000 A 
ATOM     16  C   UNL     1       1.425   2.973  21.362  0.00  0.00    +0.000 A 
ATOM     17  C   UNL     1       2.426   3.819  21.837  0.00  0.00    +0.000 A 
ATOM     18  C   UNL     1       2.665   5.055  21.222  0.00  0.00    +0.000 A 
ENDBRANCH   8  13
BRANCH   9  19
ATOM     19  C   UNL     1       3.893   6.436  17.703  0.00  0.00    +0.000 C 
ATOM     20  O   UNL     1       4.253   6.794  16.586  0.00  0.00    +0.000 OA
BRANCH  19  21
ATOM     21  C   UNL     1       4.454   5.252  18.335  0.00  0.00    +0.000 A 
ATOM     22  C   UNL     1       5.515   5.121  19.220  0.00  0.00    +0.000 A 
ATOM     23  N   UNL     1       5.741   3.818  19.570  0.00  0.00    +0.000 NA
ATOM     24  C   UNL     1       4.813   3.131  18.943  0.00  0.00    +0.000 A 
ATOM     25  C   UNL     1       4.538   1.733  18.941  0.00  0.00    +0.000 A 
ATOM     26  C   UNL     1       3.512   1.252  18.214  0.00  0.00    +0.000 A 
ATOM     27  C   UNL     1       2.680   2.133  17.411  0.00  0.00    +0.000 A 
ATOM     28  C   UNL     1       2.934   3.452  17.407  0.00  0.00    +0.000 A 
ATOM     29  N   UNL     1       3.988   3.955  18.176  0.00  0.00    +0.000 N 
ENDBRANCH  19  21
ENDBRANCH   9  19
TORSDOF 3
ENDMDL
MODEL 7
REMARK VINA RESULT:      -6.9      4.353      8.845
REMARK  Name = 
REMARK  4 active torsions:
REMARK  status: ('A' for Active; 'I' for Inactive)
REMARK    1  A    between atoms: C_1  and  N_2
REMARK    2  A    between atoms: C_8  and  C_9
REMARK    3  A    between atoms: C_15  and  C_16
REMARK    4  A    between atoms: C_16  and  C_18
REMARK                            x       y       z     vdW  Elec       q    Type
REMARK                         _______ _______ _______ _____ _____    ______ ____
ROOT
ATOM      1  C   UNL     1       5.910  17.488  19.360  0.00  0.00    +0.000 C 
ATOM      2  N   UNL     1       4.867  16.744  18.657  0.00  0.00    +0.000 NA
ATOM      3  C   UNL     1       3.560  16.939  19.320  0.00  0.00    +0.000 C 
ATOM      4  C   UNL     1       2.427  16.135  18.643  0.00  0.00    +0.000 C 
ATOM      5  N   UNL     1       2.796  14.720  18.595  0.00  0.00    +0.000 N 
ATOM      6  C   UNL     1       1.937  13.699  18.836  0.00  0.00    +0.000 A 
ATOM      7  N   UNL     1       2.263  12.436  18.705  0.00  0.00    +0.000 NA
ATOM      8  C   UNL     1       1.210  11.578  19.016  0.00  0.00    +0.000 A 
ATOM      9  C   UNL     1       0.024  12.223  19.338  0.00  0.00    +0.000 A 
ATOM     10  S   UNL     1       0.337  13.916  19.415  0.00  0.00    +0.000 S 
ATOM     11  C   UNL     1       4.086  14.453  17.949  0.00  0.00    +0.000 C 
ATOM     12  C   UNL     1       5.191  15.297  18.626  0.00  0.00    +0.000 C 
ENDROOT
BRANCH   8  13
ATOM     13  C   UNL     1       1.478  10.140  18.947  0.00  0.00    +0.000 A 
ATOM     14  C   UNL     1       1.320   9.376  20.119  0.00  0.00    +0.000 A 
ATOM     15  C   UNL     1       1.653   8.019  20.151  0.00  0.00    +0.000 A 
ATOM     16  C   UNL     1       2.149   7.404  19.007  0.00  0.00    +0.000 A 
ATOM     17  C   UNL     1       2.300   8.142  17.834  0.00  0.00    +0.000 A 
ATOM     18  C   UNL     1       1.972   9.504  17.803  0.00  0.00    +0.000 A 
ENDBRANCH   8  13
BRANCH   9  19
ATOM     19  C   UNL     1      -1.280  11.716  19.739  0.00  0.00    +0.000 C 
ATOM     20  O   UNL     1      -2.096  11.284  18.930  0.00  0.00    +0.000 OA
BRANCH  19  21
ATOM     21  C   UNL     1      -1.566  11.733  21.165  0.00  0.00    +0.000 A 
ATOM     22  C   UNL     1      -0.820  11.268  22.239  0.00  0.00    +0.000 A 
ATOM     23  N   UNL     1      -1.457  11.459  23.434  0.00  0.00    +0.000 NA
ATOM     24  C   UNL     1      -2.580  12.070  23.129  0.00  0.00    +0.000 A 
ATOM     25  C   UNL     1      -3.635  12.538  23.963  0.00  0.00    +0.000 A 
ATOM     26  C   UNL     1      -4.701  13.151  23.414  0.00  0.00    +0.000 A 
ATOM     27  C   UNL     1      -4.808  13.335  21.976  0.00  0.00    +0.000 A 
ATOM     28  C   UNL     1      -3.816  12.894  21.183  0.00  0.00    +0.000 A 
ATOM     29  N   UNL     1      -2.700  12.273  21.754  0.00  0.00    +0.000 N 
ENDBRANCH  19  21
ENDBRANCH   9  19
TORSDOF 3
ENDMDL
MODEL 8
REMARK VINA RESULT:      -6.7      1.418      2.005
REMARK  Name = 
REMARK  4 active torsions:
REMARK  status: ('A' for Active; 'I' for Inactive)
REMARK    1  A    between atoms: C_1  and  N_2
REMARK    2  A    between atoms: C_8  and  C_9
REMARK    3  A    between atoms: C_15  and  C_16
REMARK    4  A    between atoms: C_16  and  C_18
REMARK                            x       y       z     vdW  Elec       q    Type
REMARK                         _______ _______ _______ _____ _____    ______ ____
ROOT
ATOM      1  C   UNL     1      -1.985  12.520  19.557  0.00  0.00    +0.000 C 
ATOM      2  N   UNL     1      -0.736  11.827  19.863  0.00  0.00    +0.000 NA
ATOM      3  C   UNL     1       0.049  11.611  18.628  0.00  0.00    +0.000 C 
ATOM      4  C   UNL     1       1.362  10.840  18.890  0.00  0.00    +0.000 C 
ATOM      5  N   UNL     1       1.059   9.574  19.556  0.00  0.00    +0.000 N 
ATOM      6  C   UNL     1       1.666   8.396  19.270  0.00  0.00    +0.000 A 
ATOM      7  N   UNL     1       1.443   7.289  19.935  0.00  0.00    +0.000 NA
ATOM      8  C   UNL     1       2.180   6.213  19.446  0.00  0.00    +0.000 A 
ATOM      9  C   UNL     1       3.040   6.538  18.405  0.00  0.00    +0.000 A 
ATOM     10  S   UNL     1       2.745   8.175  17.955  0.00  0.00    +0.000 S 
ATOM     11  C   UNL     1       0.280   9.714  20.792  0.00  0.00    +0.000 C 
ATOM     12  C   UNL     1      -1.009  10.518  20.505  0.00  0.00    +0.000 C 
ENDROOT
BRANCH   8  13
ATOM     13  C   UNL     1       1.975   4.914  20.089  0.00  0.00    +0.000 A 
ATOM     14  C   UNL     1       1.138   3.980  19.449  0.00  0.00    +0.000 A 
ATOM     15  C   UNL     1       0.818   2.761  20.052  0.00  0.00    +0.000 A 
ATOM     16  C   UNL     1       1.332   2.456  21.308  0.00  0.00    +0.000 A 
ATOM     17  C   UNL     1       2.173   3.365  21.950  0.00  0.00    +0.000 A 
ATOM     18  C   UNL     1       2.489   4.590  21.348  0.00  0.00    +0.000 A 
ENDBRANCH   8  13
BRANCH   9  19
ATOM     19  C   UNL     1       3.950   5.728  17.608  0.00  0.00    +0.000 C 
ATOM     20  O   UNL     1       3.607   5.187  16.562  0.00  0.00    +0.000 OA
BRANCH  19  21
ATOM     21  C   UNL     1       5.308   5.601  18.115  0.00  0.00    +0.000 A 
ATOM     22  C   UNL     1       5.948   4.529  18.719  0.00  0.00    +0.000 A 
ATOM     23  N   UNL     1       7.236   4.824  19.071  0.00  0.00    +0.000 NA
ATOM     24  C   UNL     1       7.427   6.059  18.665  0.00  0.00    +0.000 A 
ATOM     25  C   UNL     1       8.580   6.891  18.740  0.00  0.00    +0.000 A 
ATOM     26  C   UNL     1       8.538   8.141  18.240  0.00  0.00    +0.000 A 
ATOM     27  C   UNL     1       7.328   8.671  17.634  0.00  0.00    +0.000 A 
ATOM     28  C   UNL     1       6.236   7.891  17.561  0.00  0.00    +0.000 A 
ATOM     29  N   UNL     1       6.283   6.587  18.063  0.00  0.00    +0.000 N 
ENDBRANCH  19  21
ENDBRANCH   9  19
TORSDOF 3
ENDMDL
MODEL 9
REMARK VINA RESULT:      -6.7      2.115      3.016
REMARK  Name = 
REMARK  4 active torsions:
REMARK  status: ('A' for Active; 'I' for Inactive)
REMARK    1  A    between atoms: C_1  and  N_2
REMARK    2  A    between atoms: C_8  and  C_9
REMARK    3  A    between atoms: C_15  and  C_16
REMARK    4  A    between atoms: C_16  and  C_18
REMARK                            x       y       z     vdW  Elec       q    Type
REMARK                         _______ _______ _______ _____ _____    ______ ____
ROOT
ATOM      1  C   UNL     1      -1.981  12.985  19.961  0.00  0.00    +0.000 C 
ATOM      2  N   UNL     1      -0.751  12.245  20.227  0.00  0.00    +0.000 NA
ATOM      3  C   UNL     1      -0.008  12.013  18.969  0.00  0.00    +0.000 C 
ATOM      4  C   UNL     1       1.283  11.191  19.187  0.00  0.00    +0.000 C 
ATOM      5  N   UNL     1       0.951   9.931  19.850  0.00  0.00    +0.000 N 
ATOM      6  C   UNL     1       1.506   8.734  19.536  0.00  0.00    +0.000 A 
ATOM      7  N   UNL     1       1.260   7.629  20.197  0.00  0.00    +0.000 NA
ATOM      8  C   UNL     1       1.944   6.532  19.678  0.00  0.00    +0.000 A 
ATOM      9  C   UNL     1       2.787   6.835  18.617  0.00  0.00    +0.000 A 
ATOM     10  S   UNL     1       2.540   8.487  18.190  0.00  0.00    +0.000 S 
ATOM     11  C   UNL     1       0.211  10.086  21.108  0.00  0.00    +0.000 C 
ATOM     12  C   UNL     1      -1.054  10.940  20.864  0.00  0.00    +0.000 C 
ENDROOT
BRANCH   8  13
ATOM     13  C   UNL     1       1.708   5.235  20.314  0.00  0.00    +0.000 A 
ATOM     14  C   UNL     1       2.555   4.847  21.370  0.00  0.00    +0.000 A 
ATOM     15  C   UNL     1       2.451   3.583  21.956  0.00  0.00    +0.000 A 
ATOM     16  C   UNL     1       1.494   2.686  21.496  0.00  0.00    +0.000 A 
ATOM     17  C   UNL     1       0.638   3.058  20.460  0.00  0.00    +0.000 A 
ATOM     18  C   UNL     1       0.747   4.323  19.868  0.00  0.00    +0.000 A 
ENDBRANCH   8  13
BRANCH   9  19
ATOM     19  C   UNL     1       3.645   6.001  17.788  0.00  0.00    +0.000 C 
ATOM     20  O   UNL     1       4.644   6.439  17.226  0.00  0.00    +0.000 OA
BRANCH  19  21
ATOM     21  C   UNL     1       3.263   4.602  17.671  0.00  0.00    +0.000 A 
ATOM     22  C   UNL     1       2.328   3.990  16.848  0.00  0.00    +0.000 A 
ATOM     23  N   UNL     1       2.255   2.641  17.061  0.00  0.00    +0.000 NA
ATOM     24  C   UNL     1       3.157   2.391  17.984  0.00  0.00    +0.000 A 
ATOM     25  C   UNL     1       3.545   1.163  18.591  0.00  0.00    +0.000 A 
ATOM     26  C   UNL     1       4.516   1.153  19.525  0.00  0.00    +0.000 A 
ATOM     27  C   UNL     1       5.171   2.381  19.943  0.00  0.00    +0.000 A 
ATOM     28  C   UNL     1       4.808   3.545  19.376  0.00  0.00    +0.000 A 
ATOM     29  N   UNL     1       3.814   3.553  18.393  0.00  0.00    +0.000 N 
ENDBRANCH  19  21
ENDBRANCH   9  19
TORSDOF 3
ENDMDL
