MODEL 1
REMARK VINA RESULT:      -9.0      0.000      0.000
REMARK  Name = 
REMARK  2 active torsions:
REMARK  status: ('A' for Active; 'I' for Inactive)
REMARK    1  A    between atoms: C_5  and  C_6
REMARK    2  A    between atoms: C_10  and  C_11
REMARK                            x       y       z     vdW  Elec       q    Type
REMARK                         _______ _______ _______ _____ _____    ______ ____
ROOT
ATOM      1  C   UNL     1       1.398   7.119  20.363  0.00  0.00    +0.000 C 
ATOM      2  O   UNL     1       0.356   6.795  20.941  0.00  0.00    +0.000 OA
ATOM      3  N   UNL     1       2.398   6.175  20.088  0.00  0.00    +0.000 N 
ATOM      4  C   UNL     1       3.635   6.388  19.339  0.00  0.00    +0.000 C 
ATOM      5  C   UNL     1       4.130   4.981  18.927  0.00  0.00    +0.000 C 
ATOM      6  C   UNL     1       2.772   4.230  18.717  0.00  0.00    +0.000 C 
ATOM      7  C   UNL     1       1.895   4.840  19.826  0.00  0.00    +0.000 C 
ATOM      8  C   UNL     1       1.776   3.815  20.984  0.00  0.00    +0.000 C 
ATOM      9  C   UNL     1       0.749   2.813  20.421  0.00  0.00    +0.000 C 
ATOM     10  C   UNL     1       1.275   2.325  19.041  0.00  0.00    +0.000 C 
ATOM     11  N   UNL     1       2.699   2.738  18.781  0.00  0.00    +0.000 NA
ATOM     12  C   UNL     1       3.490   2.255  19.926  0.00  0.00    +0.000 C 
ATOM     13  C   UNL     1       3.044   2.953  21.226  0.00  0.00    +0.000 C 
ENDROOT
BRANCH   1  18
ATOM     14  N   UNL     1       1.602  12.304  18.176  0.00  0.00    +0.000 N 
ATOM     15  C   UNL     1       1.527  11.013  18.688  0.00  0.00    +0.000 A 
ATOM     16  C   UNL     1       1.921   9.929  17.919  0.00  0.00    +0.000 A 
ATOM     17  C   UNL     1       1.867   8.654  18.480  0.00  0.00    +0.000 A 
ATOM     18  C   UNL     1       1.434   8.489  19.802  0.00  0.00    +0.000 A 
ATOM     19  C   UNL     1       1.044   9.624  20.479  0.00  0.00    +0.000 A 
ATOM     20  N   UNL     1       1.097  10.881  19.957  0.00  0.00    +0.000 NA
ATOM     21  H   UNL     1       1.118  12.390  17.289  0.00  0.00    +0.000 HD
ATOM     22  H   UNL     1       1.222  12.931  18.880  0.00  0.00    +0.000 HD
ENDBRANCH   1  18
BRANCH   5  23
ATOM     23  C   UNL     1       5.135   5.035  17.795  0.00  0.00    +0.000 A 
ATOM     24  C   UNL     1       6.114   6.049  17.788  0.00  0.00    +0.000 A 
ATOM     25  C   UNL     1       7.045   6.136  16.754  0.00  0.00    +0.000 A 
ATOM     26  F   UNL     1       7.957   7.120  16.775  0.00  0.00    +0.000 F 
ATOM     27  C   UNL     1       7.044   5.231  15.707  0.00  0.00    +0.000 A 
ATOM     28  C   UNL     1       6.100   4.213  15.723  0.00  0.00    +0.000 A 
ATOM     29  F   UNL     1       6.087   3.319  14.726  0.00  0.00    +0.000 F 
ATOM     30  C   UNL     1       5.160   4.103  16.749  0.00  0.00    +0.000 A 
ENDBRANCH   5  23
TORSDOF 2
ENDMDL
MODEL 2
REMARK VINA RESULT:      -8.8      0.099      1.551
REMARK  Name = 
REMARK  2 active torsions:
REMARK  status: ('A' for Active; 'I' for Inactive)
REMARK    1  A    between atoms: C_5  and  C_6
REMARK    2  A    between atoms: C_10  and  C_11
REMARK                            x       y       z     vdW  Elec       q    Type
REMARK                         _______ _______ _______ _____ _____    ______ ____
ROOT
ATOM      1  C   UNL     1       1.338   7.178  20.378  0.00  0.00    +0.000 C 
ATOM      2  O   UNL     1       0.285   6.846  20.930  0.00  0.00    +0.000 OA
ATOM      3  N   UNL     1       2.348   6.240  20.118  0.00  0.00    +0.000 N 
ATOM      4  C   UNL     1       3.600   6.463  19.398  0.00  0.00    +0.000 C 
ATOM      5  C   UNL     1       4.109   5.062  18.987  0.00  0.00    +0.000 C 
ATOM      6  C   UNL     1       2.760   4.307  18.740  0.00  0.00    +0.000 C 
ATOM      7  C   UNL     1       1.856   4.905  19.834  0.00  0.00    +0.000 C 
ATOM      8  C   UNL     1       1.714   3.871  20.981  0.00  0.00    +0.000 C 
ATOM      9  C   UNL     1       0.704   2.869  20.387  0.00  0.00    +0.000 C 
ATOM     10  C   UNL     1       1.263   2.395  19.015  0.00  0.00    +0.000 C 
ATOM     11  N   UNL     1       2.691   2.815  18.790  0.00  0.00    +0.000 NA
ATOM     12  C   UNL     1       3.458   2.325  19.949  0.00  0.00    +0.000 C 
ATOM     13  C   UNL     1       2.980   3.011  21.244  0.00  0.00    +0.000 C 
ENDROOT
BRANCH   1  18
ATOM     14  N   UNL     1       1.570  12.381  18.236  0.00  0.00    +0.000 N 
ATOM     15  C   UNL     1       1.488  11.086  18.737  0.00  0.00    +0.000 A 
ATOM     16  C   UNL     1       1.870  10.006  17.957  0.00  0.00    +0.000 A 
ATOM     17  C   UNL     1       1.810   8.726  18.507  0.00  0.00    +0.000 A 
ATOM     18  C   UNL     1       1.382   8.552  19.829  0.00  0.00    +0.000 A 
ATOM     19  C   UNL     1       1.003   9.685  20.518  0.00  0.00    +0.000 A 
ATOM     20  N   UNL     1       1.063  10.946  20.007  0.00  0.00    +0.000 NA
ATOM     21  H   UNL     1       1.082  12.478  17.352  0.00  0.00    +0.000 HD
ATOM     22  H   UNL     1       1.197  13.005  18.947  0.00  0.00    +0.000 HD
ENDBRANCH   1  18
BRANCH   5  23
ATOM     23  C   UNL     1       5.140   5.128  17.878  0.00  0.00    +0.000 A 
ATOM     24  C   UNL     1       5.131   4.146  16.867  0.00  0.00    +0.000 A 
ATOM     25  C   UNL     1       6.073   4.168  15.840  0.00  0.00    +0.000 A 
ATOM     26  F   UNL     1       6.040   3.211  14.900  0.00  0.00    +0.000 F 
ATOM     27  C   UNL     1       7.043   5.153  15.775  0.00  0.00    +0.000 A 
ATOM     28  C   UNL     1       7.040   6.139  16.753  0.00  0.00    +0.000 A 
ATOM     29  F   UNL     1       7.962   7.110  16.704  0.00  0.00    +0.000 F 
ATOM     30  C   UNL     1       6.104   6.141  17.789  0.00  0.00    +0.000 A 
ENDBRANCH   5  23
TORSDOF 2
ENDMDL
MODEL 3
REMARK VINA RESULT:      -8.6      0.978      1.229
REMARK  Name = 
REMARK  2 active torsions:
REMARK  status: ('A' for Active; 'I' for Inactive)
REMARK    1  A    between atoms: C_5  and  C_6
REMARK    2  A    between atoms: C_10  and  C_11
REMARK                            x       y       z     vdW  Elec       q    Type
REMARK                         _______ _______ _______ _____ _____    ______ ____
ROOT
ATOM      1  C   UNL     1       1.250   7.275  20.414  0.00  0.00    +0.000 C 
ATOM      2  O   UNL     1       0.183   6.983  20.961  0.00  0.00    +0.000 OA
ATOM      3  N   UNL     1       2.239   6.306  20.190  0.00  0.00    +0.000 N 
ATOM      4  C   UNL     1       3.505   6.480  19.482  0.00  0.00    +0.000 C 
ATOM      5  C   UNL     1       3.984   5.057  19.111  0.00  0.00    +0.000 C 
ATOM      6  C   UNL     1       2.619   4.330  18.864  0.00  0.00    +0.000 C 
ATOM      7  C   UNL     1       1.717   4.977  19.932  0.00  0.00    +0.000 C 
ATOM      8  C   UNL     1       1.535   3.975  21.101  0.00  0.00    +0.000 C 
ATOM      9  C   UNL     1       0.507   2.985  20.519  0.00  0.00    +0.000 C 
ATOM     10  C   UNL     1       1.070   2.464  19.166  0.00  0.00    +0.000 C 
ATOM     11  N   UNL     1       2.511   2.842  18.950  0.00  0.00    +0.000 NA
ATOM     12  C   UNL     1       3.251   2.361  20.130  0.00  0.00    +0.000 C 
ATOM     13  C   UNL     1       2.775   3.090  21.401  0.00  0.00    +0.000 C 
ENDROOT
BRANCH   1  18
ATOM     14  N   UNL     1       1.641  12.417  18.151  0.00  0.00    +0.000 N 
ATOM     15  C   UNL     1       1.520  11.137  18.683  0.00  0.00    +0.000 A 
ATOM     16  C   UNL     1       1.878  10.029  17.932  0.00  0.00    +0.000 A 
ATOM     17  C   UNL     1       1.779   8.764  18.511  0.00  0.00    +0.000 A 
ATOM     18  C   UNL     1       1.336   8.634  19.834  0.00  0.00    +0.000 A 
ATOM     19  C   UNL     1       0.983   9.793  20.492  0.00  0.00    +0.000 A 
ATOM     20  N   UNL     1       1.081  11.039  19.952  0.00  0.00    +0.000 NA
ATOM     21  H   UNL     1       1.163  12.506  17.261  0.00  0.00    +0.000 HD
ATOM     22  H   UNL     1       1.280  13.067  18.844  0.00  0.00    +0.000 HD
ENDBRANCH   1  18
BRANCH   5  23
ATOM     23  C   UNL     1       5.030   5.070  18.014  0.00  0.00    +0.000 A 
ATOM     24  C   UNL     1       4.691   5.578  16.743  0.00  0.00    +0.000 A 
ATOM     25  C   UNL     1       5.624   5.592  15.707  0.00  0.00    +0.000 A 
ATOM     26  F   UNL     1       5.265   6.074  14.508  0.00  0.00    +0.000 F 
ATOM     27  C   UNL     1       6.910   5.114  15.891  0.00  0.00    +0.000 A 
ATOM     28  C   UNL     1       7.257   4.637  17.148  0.00  0.00    +0.000 A 
ATOM     29  F   UNL     1       8.499   4.180  17.353  0.00  0.00    +0.000 F 
ATOM     30  C   UNL     1       6.342   4.617  18.202  0.00  0.00    +0.000 A 
ENDBRANCH   5  23
TORSDOF 2
ENDMDL
MODEL 4
REMARK VINA RESULT:      -8.5      1.052      1.294
REMARK  Name = 
REMARK  2 active torsions:
REMARK  status: ('A' for Active; 'I' for Inactive)
REMARK    1  A    between atoms: C_5  and  C_6
REMARK    2  A    between atoms: C_10  and  C_11
REMARK                            x       y       z     vdW  Elec       q    Type
REMARK                         _______ _______ _______ _____ _____    ______ ____
ROOT
ATOM      1  C   UNL     1       1.329   7.251  20.287  0.00  0.00    +0.000 C 
ATOM      2  O   UNL     1       0.268   6.986  20.859  0.00  0.00    +0.000 OA
ATOM      3  N   UNL     1       2.305   6.266  20.076  0.00  0.00    +0.000 N 
ATOM      4  C   UNL     1       3.562   6.406  19.343  0.00  0.00    +0.000 C 
ATOM      5  C   UNL     1       4.021   4.968  19.008  0.00  0.00    +0.000 C 
ATOM      6  C   UNL     1       2.645   4.247  18.806  0.00  0.00    +0.000 C 
ATOM      7  C   UNL     1       1.767   4.935  19.867  0.00  0.00    +0.000 C 
ATOM      8  C   UNL     1       1.595   3.971  21.070  0.00  0.00    +0.000 C 
ATOM      9  C   UNL     1       0.548   2.974  20.534  0.00  0.00    +0.000 C 
ATOM     10  C   UNL     1       1.084   2.406  19.190  0.00  0.00    +0.000 C 
ATOM     11  N   UNL     1       2.525   2.764  18.938  0.00  0.00    +0.000 NA
ATOM     12  C   UNL     1       3.280   2.312  20.121  0.00  0.00    +0.000 C 
ATOM     13  C   UNL     1       2.831   3.084  21.377  0.00  0.00    +0.000 C 
ENDROOT
BRANCH   1  18
ATOM     14  N   UNL     1       1.601  12.374  17.964  0.00  0.00    +0.000 N 
ATOM     15  C   UNL     1       1.557  11.121  18.566  0.00  0.00    +0.000 A 
ATOM     16  C   UNL     1       1.042  10.975  19.845  0.00  0.00    +0.000 A 
ATOM     17  C   UNL     1       0.980   9.698  20.401  0.00  0.00    +0.000 A 
ATOM     18  C   UNL     1       1.419   8.591  19.663  0.00  0.00    +0.000 A 
ATOM     19  C   UNL     1       1.933   8.840  18.408  0.00  0.00    +0.000 A 
ATOM     20  N   UNL     1       1.995  10.076  17.840  0.00  0.00    +0.000 NA
ATOM     21  H   UNL     1       2.074  13.058  18.545  0.00  0.00    +0.000 HD
ATOM     22  H   UNL     1       2.055  12.260  17.062  0.00  0.00    +0.000 HD
ENDBRANCH   1  18
BRANCH   5  23
ATOM     23  C   UNL     1       5.049   4.937  17.894  0.00  0.00    +0.000 A 
ATOM     24  C   UNL     1       6.373   4.556  18.188  0.00  0.00    +0.000 A 
ATOM     25  C   UNL     1       7.347   4.531  17.191  0.00  0.00    +0.000 A 
ATOM     26  F   UNL     1       8.601   4.172  17.509  0.00  0.00    +0.000 F 
ATOM     27  C   UNL     1       7.048   4.873  15.884  0.00  0.00    +0.000 A 
ATOM     28  C   UNL     1       5.738   5.223  15.583  0.00  0.00    +0.000 A 
ATOM     29  F   UNL     1       5.421   5.547  14.323  0.00  0.00    +0.000 F 
ATOM     30  C   UNL     1       4.744   5.251  16.564  0.00  0.00    +0.000 A 
ENDBRANCH   5  23
TORSDOF 2
ENDMDL
MODEL 5
REMARK VINA RESULT:      -8.3      3.632      6.058
REMARK  Name = 
REMARK  2 active torsions:
REMARK  status: ('A' for Active; 'I' for Inactive)
REMARK    1  A    between atoms: C_5  and  C_6
REMARK    2  A    between atoms: C_10  and  C_11
REMARK                            x       y       z     vdW  Elec       q    Type
REMARK                         _______ _______ _______ _____ _____    ______ ____
ROOT
ATOM      1  C   UNL     1       5.524   5.116  18.322  0.00  0.00    +0.000 C 
ATOM      2  O   UNL     1       6.044   3.998  18.370  0.00  0.00    +0.000 OA
ATOM      3  N   UNL     1       4.161   5.295  18.603  0.00  0.00    +0.000 N 
ATOM      4  C   UNL     1       3.430   6.558  18.673  0.00  0.00    +0.000 C 
ATOM      5  C   UNL     1       2.130   6.253  19.455  0.00  0.00    +0.000 C 
ATOM      6  C   UNL     1       2.625   5.154  20.454  0.00  0.00    +0.000 C 
ATOM      7  C   UNL     1       3.636   4.374  19.593  0.00  0.00    +0.000 C 
ATOM      8  C   UNL     1       2.980   3.042  19.142  0.00  0.00    +0.000 C 
ATOM      9  C   UNL     1       3.078   2.187  20.420  0.00  0.00    +0.000 C 
ATOM     10  C   UNL     1       2.419   2.992  21.576  0.00  0.00    +0.000 C 
ATOM     11  N   UNL     1       1.665   4.201  21.089  0.00  0.00    +0.000 NA
ATOM     12  C   UNL     1       0.708   3.717  20.078  0.00  0.00    +0.000 C 
ATOM     13  C   UNL     1       1.455   3.127  18.866  0.00  0.00    +0.000 C 
ENDROOT
BRANCH   1  18
ATOM     14  N   UNL     1       9.066   9.462  17.791  0.00  0.00    +0.000 N 
ATOM     15  C   UNL     1       8.220   8.364  17.914  0.00  0.00    +0.000 A 
ATOM     16  C   UNL     1       8.468   7.391  18.870  0.00  0.00    +0.000 A 
ATOM     17  C   UNL     1       7.577   6.326  18.988  0.00  0.00    +0.000 A 
ATOM     18  C   UNL     1       6.449   6.261  18.160  0.00  0.00    +0.000 A 
ATOM     19  C   UNL     1       6.300   7.265  17.227  0.00  0.00    +0.000 A 
ATOM     20  N   UNL     1       7.150   8.321  17.099  0.00  0.00    +0.000 NA
ATOM     21  H   UNL     1      10.034   9.184  17.674  0.00  0.00    +0.000 HD
ATOM     22  H   UNL     1       8.731  10.015  17.007  0.00  0.00    +0.000 HD
ENDBRANCH   1  18
BRANCH   5  23
ATOM     23  C   UNL     1       1.475   7.510  19.994  0.00  0.00    +0.000 A 
ATOM     24  C   UNL     1       1.482   8.682  19.211  0.00  0.00    +0.000 A 
ATOM     25  C   UNL     1       0.902   9.859  19.682  0.00  0.00    +0.000 A 
ATOM     26  F   UNL     1       0.935  10.958  18.914  0.00  0.00    +0.000 F 
ATOM     27  C   UNL     1       0.299   9.915  20.926  0.00  0.00    +0.000 A 
ATOM     28  C   UNL     1       0.264   8.756  21.690  0.00  0.00    +0.000 A 
ATOM     29  F   UNL     1      -0.324   8.784  22.893  0.00  0.00    +0.000 F 
ATOM     30  C   UNL     1       0.835   7.565  21.238  0.00  0.00    +0.000 A 
ENDBRANCH   5  23
TORSDOF 2
ENDMDL
MODEL 6
REMARK VINA RESULT:      -8.3      0.997      1.002
REMARK  Name = 
REMARK  2 active torsions:
REMARK  status: ('A' for Active; 'I' for Inactive)
REMARK    1  A    between atoms: C_5  and  C_6
REMARK    2  A    between atoms: C_10  and  C_11
REMARK                            x       y       z     vdW  Elec       q    Type
REMARK                         _______ _______ _______ _____ _____    ______ ____
ROOT
ATOM      1  C   UNL     1       1.462   7.283  20.564  0.00  0.00    +0.000 C 
ATOM      2  O   UNL     1       0.573   6.989  21.367  0.00  0.00    +0.000 OA
ATOM      3  N   UNL     1       2.361   6.315  20.090  0.00  0.00    +0.000 N 
ATOM      4  C   UNL     1       3.400   6.492  19.078  0.00  0.00    +0.000 C 
ATOM      5  C   UNL     1       3.768   5.070  18.594  0.00  0.00    +0.000 C 
ATOM      6  C   UNL     1       2.387   4.341  18.709  0.00  0.00    +0.000 C 
ATOM      7  C   UNL     1       1.792   4.986  19.974  0.00  0.00    +0.000 C 
ATOM      8  C   UNL     1       1.920   3.983  21.150  0.00  0.00    +0.000 C 
ATOM      9  C   UNL     1       0.778   2.992  20.853  0.00  0.00    +0.000 C 
ATOM     10  C   UNL     1       0.972   2.472  19.400  0.00  0.00    +0.000 C 
ATOM     11  N   UNL     1       2.307   2.853  18.818  0.00  0.00    +0.000 NA
ATOM     12  C   UNL     1       3.329   2.373  19.766  0.00  0.00    +0.000 C 
ATOM     13  C   UNL     1       3.197   3.100  21.118  0.00  0.00    +0.000 C 
ENDROOT
BRANCH   1  18
ATOM     14  N   UNL     1       1.260  12.431  18.291  0.00  0.00    +0.000 N 
ATOM     15  C   UNL     1       1.284  11.148  18.827  0.00  0.00    +0.000 A 
ATOM     16  C   UNL     1       1.676  10.070  18.048  0.00  0.00    +0.000 A 
ATOM     17  C   UNL     1       1.724   8.804  18.630  0.00  0.00    +0.000 A 
ATOM     18  C   UNL     1       1.393   8.642  19.981  0.00  0.00    +0.000 A 
ATOM     19  C   UNL     1       0.995   9.770  20.668  0.00  0.00    +0.000 A 
ATOM     20  N   UNL     1       0.950  11.019  20.124  0.00  0.00    +0.000 NA
ATOM     21  H   UNL     1       0.712  12.477  17.439  0.00  0.00    +0.000 HD
ATOM     22  H   UNL     1       0.898  13.052  19.011  0.00  0.00    +0.000 HD
ENDBRANCH   1  18
BRANCH   5  23
ATOM     23  C   UNL     1       4.494   5.085  17.264  0.00  0.00    +0.000 A 
ATOM     24  C   UNL     1       4.548   6.281  16.520  0.00  0.00    +0.000 A 
ATOM     25  C   UNL     1       5.194   6.328  15.286  0.00  0.00    +0.000 A 
ATOM     26  F   UNL     1       5.218   7.481  14.601  0.00  0.00    +0.000 F 
ATOM     27  C   UNL     1       5.807   5.207  14.753  0.00  0.00    +0.000 A 
ATOM     28  C   UNL     1       5.781   4.033  15.494  0.00  0.00    +0.000 A 
ATOM     29  F   UNL     1       6.378   2.938  15.004  0.00  0.00    +0.000 F 
ATOM     30  C   UNL     1       5.144   3.963  16.734  0.00  0.00    +0.000 A 
ENDBRANCH   5  23
TORSDOF 2
ENDMDL
MODEL 7
REMARK VINA RESULT:      -8.2      3.654      6.102
REMARK  Name = 
REMARK  2 active torsions:
REMARK  status: ('A' for Active; 'I' for Inactive)
REMARK    1  A    between atoms: C_5  and  C_6
REMARK    2  A    between atoms: C_10  and  C_11
REMARK                            x       y       z     vdW  Elec       q    Type
REMARK                         _______ _______ _______ _____ _____    ______ ____
ROOT
ATOM      1  C   UNL     1       5.546   5.138  18.353  0.00  0.00    +0.000 C 
ATOM      2  O   UNL     1       6.071   4.024  18.437  0.00  0.00    +0.000 OA
ATOM      3  N   UNL     1       4.177   5.316  18.605  0.00  0.00    +0.000 N 
ATOM      4  C   UNL     1       3.438   6.576  18.632  0.00  0.00    +0.000 C 
ATOM      5  C   UNL     1       2.126   6.283  19.397  0.00  0.00    +0.000 C 
ATOM      6  C   UNL     1       2.609   5.211  20.431  0.00  0.00    +0.000 C 
ATOM      7  C   UNL     1       3.639   4.416  19.607  0.00  0.00    +0.000 C 
ATOM      8  C   UNL     1       2.998   3.070  19.177  0.00  0.00    +0.000 C 
ATOM      9  C   UNL     1       3.077   2.247  20.478  0.00  0.00    +0.000 C 
ATOM     10  C   UNL     1       2.394   3.076  21.602  0.00  0.00    +0.000 C 
ATOM     11  N   UNL     1       1.643   4.269  21.072  0.00  0.00    +0.000 NA
ATOM     12  C   UNL     1       0.707   3.755  20.056  0.00  0.00    +0.000 C 
ATOM     13  C   UNL     1       1.478   3.140  18.872  0.00  0.00    +0.000 C 
ENDROOT
BRANCH   1  18
ATOM     14  N   UNL     1       9.076   9.488  17.780  0.00  0.00    +0.000 N 
ATOM     15  C   UNL     1       8.233   8.390  17.914  0.00  0.00    +0.000 A 
ATOM     16  C   UNL     1       8.479   7.431  18.884  0.00  0.00    +0.000 A 
ATOM     17  C   UNL     1       7.591   6.363  19.013  0.00  0.00    +0.000 A 
ATOM     18  C   UNL     1       6.468   6.283  18.180  0.00  0.00    +0.000 A 
ATOM     19  C   UNL     1       6.320   7.274  17.232  0.00  0.00    +0.000 A 
ATOM     20  N   UNL     1       7.167   8.331  17.094  0.00  0.00    +0.000 NA
ATOM     21  H   UNL     1      10.046   9.212  17.672  0.00  0.00    +0.000 HD
ATOM     22  H   UNL     1       8.743  10.030  16.986  0.00  0.00    +0.000 HD
ENDBRANCH   1  18
BRANCH   5  23
ATOM     23  C   UNL     1       1.456   7.548  19.894  0.00  0.00    +0.000 A 
ATOM     24  C   UNL     1       0.756   7.525  21.117  0.00  0.00    +0.000 A 
ATOM     25  C   UNL     1       0.116   8.666  21.596  0.00  0.00    +0.000 A 
ATOM     26  F   UNL     1      -0.548   8.604  22.761  0.00  0.00    +0.000 F 
ATOM     27  C   UNL     1       0.148   9.857  20.893  0.00  0.00    +0.000 A 
ATOM     28  C   UNL     1       0.859   9.895  19.701  0.00  0.00    +0.000 A 
ATOM     29  F   UNL     1       0.914  11.040  19.009  0.00  0.00    +0.000 F 
ATOM     30  C   UNL     1       1.512   8.766  19.202  0.00  0.00    +0.000 A 
ENDBRANCH   5  23
TORSDOF 2
ENDMDL
MODEL 8
REMARK VINA RESULT:      -8.1      0.893      1.169
REMARK  Name = 
REMARK  2 active torsions:
REMARK  status: ('A' for Active; 'I' for Inactive)
REMARK    1  A    between atoms: C_5  and  C_6
REMARK    2  A    between atoms: C_10  and  C_11
REMARK                            x       y       z     vdW  Elec       q    Type
REMARK                         _______ _______ _______ _____ _____    ______ ____
ROOT
ATOM      1  C   UNL     1       1.832   6.862  20.131  0.00  0.00    +0.000 C 
ATOM      2  O   UNL     1       0.908   6.526  20.876  0.00  0.00    +0.000 OA
ATOM      3  N   UNL     1       2.794   5.936  19.705  0.00  0.00    +0.000 N 
ATOM      4  C   UNL     1       3.886   6.163  18.760  0.00  0.00    +0.000 C 
ATOM      5  C   UNL     1       4.337   4.762  18.287  0.00  0.00    +0.000 C 
ATOM      6  C   UNL     1       2.981   3.979  18.311  0.00  0.00    +0.000 C 
ATOM      7  C   UNL     1       2.285   4.587  19.543  0.00  0.00    +0.000 C 
ATOM      8  C   UNL     1       2.381   3.576  20.716  0.00  0.00    +0.000 C 
ATOM      9  C   UNL     1       1.298   2.545  20.341  0.00  0.00    +0.000 C 
ATOM     10  C   UNL     1       1.601   2.050  18.898  0.00  0.00    +0.000 C 
ATOM     11  N   UNL     1       2.953   2.488  18.402  0.00  0.00    +0.000 NA
ATOM     12  C   UNL     1       3.933   2.037  19.406  0.00  0.00    +0.000 C 
ATOM     13  C   UNL     1       3.691   2.744  20.754  0.00  0.00    +0.000 C 
ENDROOT
BRANCH   1  18
ATOM     14  N   UNL     1       1.432  12.060  18.001  0.00  0.00    +0.000 N 
ATOM     15  C   UNL     1       1.552  10.790  18.556  0.00  0.00    +0.000 A 
ATOM     16  C   UNL     1       1.074  10.534  19.831  0.00  0.00    +0.000 A 
ATOM     17  C   UNL     1       1.179   9.240  20.339  0.00  0.00    +0.000 A 
ATOM     18  C   UNL     1       1.745   8.225  19.558  0.00  0.00    +0.000 A 
ATOM     19  C   UNL     1       2.210   8.582  18.310  0.00  0.00    +0.000 A 
ATOM     20  N   UNL     1       2.110   9.836  17.788  0.00  0.00    +0.000 NA
ATOM     21  H   UNL     1       1.822  12.777  18.603  0.00  0.00    +0.000 HD
ATOM     22  H   UNL     1       1.887  12.037  17.092  0.00  0.00    +0.000 HD
ENDBRANCH   1  18
BRANCH   5  23
ATOM     23  C   UNL     1       5.141   4.820  17.003  0.00  0.00    +0.000 A 
ATOM     24  C   UNL     1       6.295   5.627  16.948  0.00  0.00    +0.000 A 
ATOM     25  C   UNL     1       7.050   5.715  15.779  0.00  0.00    +0.000 A 
ATOM     26  F   UNL     1       8.137   6.501  15.759  0.00  0.00    +0.000 F 
ATOM     27  C   UNL     1       6.697   5.012  14.640  0.00  0.00    +0.000 A 
ATOM     28  C   UNL     1       5.577   4.193  14.698  0.00  0.00    +0.000 A 
ATOM     29  F   UNL     1       5.222   3.494  13.612  0.00  0.00    +0.000 F 
ATOM     30  C   UNL     1       4.808   4.086  15.858  0.00  0.00    +0.000 A 
ENDBRANCH   5  23
TORSDOF 2
ENDMDL
MODEL 9
REMARK VINA RESULT:      -8.0      3.333      6.124
REMARK  Name = 
REMARK  2 active torsions:
REMARK  status: ('A' for Active; 'I' for Inactive)
REMARK    1  A    between atoms: C_5  and  C_6
REMARK    2  A    between atoms: C_10  and  C_11
REMARK                            x       y       z     vdW  Elec       q    Type
REMARK                         _______ _______ _______ _____ _____    ______ ____
ROOT
ATOM      1  C   UNL     1       4.494   3.283  17.085  0.00  0.00    +0.000 C 
ATOM      2  O   UNL     1       4.757   2.119  17.397  0.00  0.00    +0.000 OA
ATOM      3  N   UNL     1       3.422   3.968  17.677  0.00  0.00    +0.000 N 
ATOM      4  C   UNL     1       3.047   5.367  17.477  0.00  0.00    +0.000 C 
ATOM      5  C   UNL     1       2.136   5.736  18.671  0.00  0.00    +0.000 C 
ATOM      6  C   UNL     1       2.760   4.865  19.813  0.00  0.00    +0.000 C 
ATOM      7  C   UNL     1       3.165   3.589  19.053  0.00  0.00    +0.000 C 
ATOM      8  C   UNL     1       2.134   2.474  19.370  0.00  0.00    +0.000 C 
ATOM      9  C   UNL     1       2.563   2.032  20.783  0.00  0.00    +0.000 C 
ATOM     10  C   UNL     1       2.596   3.300  21.682  0.00  0.00    +0.000 C 
ATOM     11  N   UNL     1       1.966   4.499  21.024  0.00  0.00    +0.000 NA
ATOM     12  C   UNL     1       0.610   4.088  20.620  0.00  0.00    +0.000 C 
ATOM     13  C   UNL     1       0.675   2.970  19.561  0.00  0.00    +0.000 C 
ENDROOT
BRANCH   1  18
ATOM     14  N   UNL     1       8.252   5.824  13.749  0.00  0.00    +0.000 N 
ATOM     15  C   UNL     1       7.296   5.215  14.555  0.00  0.00    +0.000 A 
ATOM     16  C   UNL     1       6.322   4.403  13.995  0.00  0.00    +0.000 A 
ATOM     17  C   UNL     1       5.403   3.780  14.838  0.00  0.00    +0.000 A 
ATOM     18  C   UNL     1       5.484   3.968  16.224  0.00  0.00    +0.000 A 
ATOM     19  C   UNL     1       6.475   4.811  16.683  0.00  0.00    +0.000 A 
ATOM     20  N   UNL     1       7.390   5.423  15.881  0.00  0.00    +0.000 NA
ATOM     21  H   UNL     1       7.831   6.357  12.996  0.00  0.00    +0.000 HD
ATOM     22  H   UNL     1       8.829   6.407  14.351  0.00  0.00    +0.000 HD
ENDBRANCH   1  18
BRANCH   5  23
ATOM     23  C   UNL     1       2.015   7.235  18.859  0.00  0.00    +0.000 A 
ATOM     24  C   UNL     1       1.647   7.746  20.120  0.00  0.00    +0.000 A 
ATOM     25  C   UNL     1       1.512   9.118  20.325  0.00  0.00    +0.000 A 
ATOM     26  F   UNL     1       1.152   9.568  21.536  0.00  0.00    +0.000 F 
ATOM     27  C   UNL     1       1.739  10.023  19.302  0.00  0.00    +0.000 A 
ATOM     28  C   UNL     1       2.129   9.528  18.065  0.00  0.00    +0.000 A 
ATOM     29  F   UNL     1       2.365  10.385  17.063  0.00  0.00    +0.000 F 
ATOM     30  C   UNL     1       2.274   8.158  17.837  0.00  0.00    +0.000 A 
ENDBRANCH   5  23
TORSDOF 2
ENDMDL
