MODEL 1
REMARK VINA RESULT:      -7.3      0.000      0.000
REMARK  Name = 
REMARK  5 active torsions:
REMARK  status: ('A' for Active; 'I' for Inactive)
REMARK    1  A    between atoms: C_2  and  C_4
REMARK    2  A    between atoms: C_5  and  N_6
REMARK    3  A    between atoms: C_7  and  C_9
REMARK    4  A    between atoms: C_12  and  N_13
REMARK    5  A    between atoms: N_25  and  C_26
REMARK                            x       y       z     vdW  Elec       q    Type
REMARK                         _______ _______ _______ _____ _____    ______ ____
ROOT
ATOM      1  C   UNL     1       1.418   9.083  19.460  0.00  0.00    +0.000 A 
ATOM      2  C   UNL     1       1.774   7.965  20.200  0.00  0.00    +0.000 A 
ATOM      3  S   UNL     1       1.336   8.092  21.844  0.00  0.00    +0.000 S 
ATOM      4  C   UNL     1       0.685   9.646  21.615  0.00  0.00    +0.000 A 
ATOM      5  C   UNL     1       0.850  10.100  20.319  0.00  0.00    +0.000 A 
ATOM      6  C   UNL     1       0.340  11.461  19.920  0.00  0.00    +0.000 C 
ATOM      7  C   UNL     1       0.050  12.325  21.166  0.00  0.00    +0.000 C 
ATOM      8  N   UNL     1      -0.714  11.555  22.162  0.00  0.00    +0.000 N 
ATOM      9  C   UNL     1      -1.976  11.832  22.667  0.00  0.00    +0.000 C 
ATOM     10  O   UNL     1      -2.451  11.134  23.560  0.00  0.00    +0.000 OA
ATOM     11  N   UNL     1      -2.638  12.901  22.096  0.00  0.00    +0.000 N 
ATOM     12  C   UNL     1       0.002  10.394  22.728  0.00  0.00    +0.000 C 
ATOM     13  H   UNL     1      -2.315  13.205  21.194  0.00  0.00    +0.000 HD
ENDROOT
BRANCH  11  14
ATOM     14  C   UNL     1      -3.928  13.364  22.461  0.00  0.00    +0.000 A 
ATOM     15  C   UNL     1      -5.108  12.878  21.892  0.00  0.00    +0.000 A 
ATOM     16  C   UNL     1      -6.343  13.461  22.192  0.00  0.00    +0.000 A 
ATOM     17  C   UNL     1      -6.408  14.522  23.088  0.00  0.00    +0.000 A 
ATOM     18 CL   UNL     1      -7.916  15.284  23.403  0.00  0.00    +0.000 Cl
ATOM     19  C   UNL     1      -5.252  14.971  23.721  0.00  0.00    +0.000 A 
ATOM     20  C   UNL     1      -4.015  14.385  23.418  0.00  0.00    +0.000 A 
ENDBRANCH  11  14
BRANCH   1  22
ATOM     21  N   UNL     1       0.420   9.772  17.406  0.00  0.00    +0.000 N 
ATOM     22  C   UNL     1       1.506   9.190  18.007  0.00  0.00    +0.000 C 
ATOM     23  O   UNL     1       2.500   8.899  17.358  0.00  0.00    +0.000 OA
ATOM     24  H   UNL     1       0.576  10.087  16.456  0.00  0.00    +0.000 HD
ATOM     25  H   UNL     1      -0.207  10.333  17.970  0.00  0.00    +0.000 HD
ENDBRANCH   1  22
BRANCH   2  26
ATOM     26  N   UNL     1       2.496   6.841  19.822  0.00  0.00    +0.000 N 
ATOM     27  C   UNL     1       1.985   5.561  20.017  0.00  0.00    +0.000 C 
ATOM     28  O   UNL     1       0.900   5.324  20.542  0.00  0.00    +0.000 OA
ATOM     29  H   UNL     1       3.158   6.933  19.056  0.00  0.00    +0.000 HD
BRANCH  27  30
ATOM     30  C   UNL     1       2.795   4.500  19.447  0.00  0.00    +0.000 A 
ATOM     31  C   UNL     1       3.164   4.246  18.129  0.00  0.00    +0.000 A 
ATOM     32  C   UNL     1       3.970   3.078  18.134  0.00  0.00    +0.000 A 
ATOM     33  C   UNL     1       4.048   2.702  19.451  0.00  0.00    +0.000 A 
ATOM     34  O   UNL     1       3.354   3.546  20.263  0.00  0.00    +0.000 OA
BRANCH  33  35
ATOM     35  N   UNL     1       4.724   1.615  20.092  0.00  0.00    +0.000 N 
ATOM     36  O   UNL     1       5.099   1.809  21.253  0.00  0.00    +0.000 OA
ATOM     37  O   UNL     1       4.873   0.573  19.442  0.00  0.00    +0.000 OA
ENDBRANCH  33  35
ENDBRANCH  27  30
ENDBRANCH   2  26
TORSDOF 5
ENDMDL
MODEL 2
REMARK VINA RESULT:      -7.2      6.956     10.948
REMARK  Name = 
REMARK  5 active torsions:
REMARK  status: ('A' for Active; 'I' for Inactive)
REMARK    1  A    between atoms: C_2  and  C_4
REMARK    2  A    between atoms: C_5  and  N_6
REMARK    3  A    between atoms: C_7  and  C_9
REMARK    4  A    between atoms: C_12  and  N_13
REMARK    5  A    between atoms: N_25  and  C_26
REMARK                            x       y       z     vdW  Elec       q    Type
REMARK                         _______ _______ _______ _____ _____    ______ ____
ROOT
ATOM      1  C   UNL     1       0.388  12.931  20.349  0.00  0.00    +0.000 A 
ATOM      2  C   UNL     1      -0.575  13.457  19.500  0.00  0.00    +0.000 A 
ATOM      3  S   UNL     1      -0.027  14.823  18.640  0.00  0.00    +0.000 S 
ATOM      4  C   UNL     1       1.498  14.762  19.392  0.00  0.00    +0.000 A 
ATOM      5  C   UNL     1       1.578  13.756  20.337  0.00  0.00    +0.000 A 
ATOM      6  C   UNL     1       2.851  13.544  21.116  0.00  0.00    +0.000 C 
ATOM      7  C   UNL     1       3.771  14.779  21.009  0.00  0.00    +0.000 C 
ATOM      8  N   UNL     1       3.871  15.230  19.611  0.00  0.00    +0.000 N 
ATOM      9  C   UNL     1       5.009  15.313  18.822  0.00  0.00    +0.000 C 
ATOM     10  O   UNL     1       4.944  15.787  17.690  0.00  0.00    +0.000 OA
ATOM     11  N   UNL     1       6.173  14.822  19.381  0.00  0.00    +0.000 N 
ATOM     12  C   UNL     1       2.604  15.712  19.023  0.00  0.00    +0.000 C 
ATOM     13  H   UNL     1       6.073  14.191  20.157  0.00  0.00    +0.000 HD
ENDROOT
BRANCH  11  14
ATOM     14  C   UNL     1       7.448  14.814  18.760  0.00  0.00    +0.000 A 
ATOM     15  C   UNL     1       8.029  13.667  18.212  0.00  0.00    +0.000 A 
ATOM     16  C   UNL     1       9.341  13.685  17.732  0.00  0.00    +0.000 A 
ATOM     17  C   UNL     1      10.075  14.865  17.771  0.00  0.00    +0.000 A 
ATOM     18 CL   UNL     1      11.712  14.872  17.245  0.00  0.00    +0.000 Cl
ATOM     19  C   UNL     1       9.489  16.036  18.246  0.00  0.00    +0.000 A 
ATOM     20  C   UNL     1       8.173  16.014  18.728  0.00  0.00    +0.000 A 
ENDBRANCH  11  14
BRANCH   1  22
ATOM     21  N   UNL     1       0.576  10.554  20.347  0.00  0.00    +0.000 N 
ATOM     22  C   UNL     1       0.269  11.672  21.077  0.00  0.00    +0.000 C 
ATOM     23  O   UNL     1       0.028  11.593  22.273  0.00  0.00    +0.000 OA
ATOM     24  H   UNL     1       0.751   9.720  20.895  0.00  0.00    +0.000 HD
ATOM     25  H   UNL     1       1.120  10.659  19.499  0.00  0.00    +0.000 HD
ENDBRANCH   1  22
BRANCH   2  26
ATOM     26  N   UNL     1      -1.906  13.095  19.334  0.00  0.00    +0.000 N 
ATOM     27  C   UNL     1      -2.261  12.016  18.530  0.00  0.00    +0.000 C 
ATOM     28  O   UNL     1      -1.458  11.328  17.904  0.00  0.00    +0.000 OA
ATOM     29  H   UNL     1      -2.558  13.314  20.082  0.00  0.00    +0.000 HD
BRANCH  27  30
ATOM     30  C   UNL     1      -3.673  11.682  18.566  0.00  0.00    +0.000 A 
ATOM     31  C   UNL     1      -4.466  10.985  17.659  0.00  0.00    +0.000 A 
ATOM     32  C   UNL     1      -5.779  10.941  18.193  0.00  0.00    +0.000 A 
ATOM     33  C   UNL     1      -5.702  11.603  19.393  0.00  0.00    +0.000 A 
ATOM     34  O   UNL     1      -4.442  12.055  19.643  0.00  0.00    +0.000 OA
BRANCH  33  35
ATOM     35  N   UNL     1      -6.687  11.879  20.393  0.00  0.00    +0.000 N 
ATOM     36  O   UNL     1      -7.007  13.064  20.539  0.00  0.00    +0.000 OA
ATOM     37  O   UNL     1      -7.143  10.919  21.025  0.00  0.00    +0.000 OA
ENDBRANCH  33  35
ENDBRANCH  27  30
ENDBRANCH   2  26
TORSDOF 5
ENDMDL
MODEL 3
REMARK VINA RESULT:      -7.2      6.911     10.872
REMARK  Name = 
REMARK  5 active torsions:
REMARK  status: ('A' for Active; 'I' for Inactive)
REMARK    1  A    between atoms: C_2  and  C_4
REMARK    2  A    between atoms: C_5  and  N_6
REMARK    3  A    between atoms: C_7  and  C_9
REMARK    4  A    between atoms: C_12  and  N_13
REMARK    5  A    between atoms: N_25  and  C_26
REMARK                            x       y       z     vdW  Elec       q    Type
REMARK                         _______ _______ _______ _____ _____    ______ ____
ROOT
ATOM      1  C   UNL     1       0.513  13.094  20.335  0.00  0.00    +0.000 A 
ATOM      2  C   UNL     1      -0.572  13.672  19.692  0.00  0.00    +0.000 A 
ATOM      3  S   UNL     1      -0.260  15.265  19.168  0.00  0.00    +0.000 S 
ATOM      4  C   UNL     1       1.317  15.232  19.803  0.00  0.00    +0.000 A 
ATOM      5  C   UNL     1       1.593  14.050  20.466  0.00  0.00    +0.000 A 
ATOM      6  C   UNL     1       2.941  13.832  21.102  0.00  0.00    +0.000 C 
ATOM      7  C   UNL     1       3.697  15.169  21.256  0.00  0.00    +0.000 C 
ATOM      8  N   UNL     1       3.629  15.948  20.009  0.00  0.00    +0.000 N 
ATOM      9  C   UNL     1       4.681  16.369  19.208  0.00  0.00    +0.000 C 
ATOM     10  O   UNL     1       4.468  17.085  18.233  0.00  0.00    +0.000 OA
ATOM     11  N   UNL     1       5.936  15.919  19.568  0.00  0.00    +0.000 N 
ATOM     12  C   UNL     1       2.270  16.382  19.624  0.00  0.00    +0.000 C 
ATOM     13  H   UNL     1       5.975  15.114  20.169  0.00  0.00    +0.000 HD
ENDROOT
BRANCH  11  14
ATOM     14  C   UNL     1       7.148  16.230  18.901  0.00  0.00    +0.000 A 
ATOM     15  C   UNL     1       7.835  15.321  18.091  0.00  0.00    +0.000 A 
ATOM     16  C   UNL     1       9.091  15.634  17.564  0.00  0.00    +0.000 A 
ATOM     17  C   UNL     1       9.659  16.876  17.822  0.00  0.00    +0.000 A 
ATOM     18 CL   UNL     1      11.233  17.236  17.232  0.00  0.00    +0.000 Cl
ATOM     19  C   UNL     1       8.958  17.822  18.566  0.00  0.00    +0.000 A 
ATOM     20  C   UNL     1       7.699  17.505  19.094  0.00  0.00    +0.000 A 
ENDBRANCH  11  14
BRANCH   1  22
ATOM     21  N   UNL     1       0.895  10.822  19.718  0.00  0.00    +0.000 N 
ATOM     22  C   UNL     1       0.603  11.694  20.735  0.00  0.00    +0.000 C 
ATOM     23  O   UNL     1       0.542  11.307  21.893  0.00  0.00    +0.000 OA
ATOM     24  H   UNL     1       1.214   9.909  20.017  0.00  0.00    +0.000 HD
ATOM     25  H   UNL     1       1.303  11.186  18.866  0.00  0.00    +0.000 HD
ENDBRANCH   1  22
BRANCH   2  26
ATOM     26  N   UNL     1      -1.860  13.186  19.510  0.00  0.00    +0.000 N 
ATOM     27  C   UNL     1      -2.140  12.253  18.516  0.00  0.00    +0.000 C 
ATOM     28  O   UNL     1      -1.306  11.810  17.729  0.00  0.00    +0.000 OA
ATOM     29  H   UNL     1      -2.482  13.167  20.313  0.00  0.00    +0.000 HD
BRANCH  27  30
ATOM     30  C   UNL     1      -3.499  11.742  18.541  0.00  0.00    +0.000 A 
ATOM     31  C   UNL     1      -4.132  10.804  17.730  0.00  0.00    +0.000 A 
ATOM     32  C   UNL     1      -5.465  10.672  18.200  0.00  0.00    +0.000 A 
ATOM     33  C   UNL     1      -5.555  11.528  19.269  0.00  0.00    +0.000 A 
ATOM     34  O   UNL     1      -4.382  12.180  19.499  0.00  0.00    +0.000 OA
BRANCH  33  35
ATOM     35  N   UNL     1      -6.635  11.829  20.158  0.00  0.00    +0.000 N 
ATOM     36  O   UNL     1      -6.442  11.600  21.357  0.00  0.00    +0.000 OA
ATOM     37  O   UNL     1      -7.667  12.299  19.664  0.00  0.00    +0.000 OA
ENDBRANCH  33  35
ENDBRANCH  27  30
ENDBRANCH   2  26
TORSDOF 5
ENDMDL
MODEL 4
REMARK VINA RESULT:      -7.1      4.748     11.613
REMARK  Name = 
REMARK  5 active torsions:
REMARK  status: ('A' for Active; 'I' for Inactive)
REMARK    1  A    between atoms: C_2  and  C_4
REMARK    2  A    between atoms: C_5  and  N_6
REMARK    3  A    between atoms: C_7  and  C_9
REMARK    4  A    between atoms: C_12  and  N_13
REMARK    5  A    between atoms: N_25  and  C_26
REMARK                            x       y       z     vdW  Elec       q    Type
REMARK                         _______ _______ _______ _____ _____    ______ ____
ROOT
ATOM      1  C   UNL     1       0.087  12.597  20.485  0.00  0.00    +0.000 A 
ATOM      2  C   UNL     1      -0.338  12.422  21.794  0.00  0.00    +0.000 A 
ATOM      3  S   UNL     1      -0.366  10.785  22.270  0.00  0.00    +0.000 S 
ATOM      4  C   UNL     1       0.165  10.267  20.739  0.00  0.00    +0.000 A 
ATOM      5  C   UNL     1       0.304  11.315  19.848  0.00  0.00    +0.000 A 
ATOM      6  C   UNL     1       0.763  11.056  18.436  0.00  0.00    +0.000 C 
ATOM      7  C   UNL     1       0.626   9.560  18.081  0.00  0.00    +0.000 C 
ATOM      8  N   UNL     1       1.172   8.720  19.160  0.00  0.00    +0.000 N 
ATOM      9  C   UNL     1       2.221   7.816  19.087  0.00  0.00    +0.000 C 
ATOM     10  O   UNL     1       2.511   7.126  20.061  0.00  0.00    +0.000 OA
ATOM     11  N   UNL     1       2.901   7.769  17.886  0.00  0.00    +0.000 N 
ATOM     12  C   UNL     1       0.451   8.819  20.445  0.00  0.00    +0.000 C 
ATOM     13  H   UNL     1       2.800   8.562  17.276  0.00  0.00    +0.000 HD
ENDROOT
BRANCH  11  14
ATOM     14  C   UNL     1       3.996   6.918  17.589  0.00  0.00    +0.000 A 
ATOM     15  C   UNL     1       5.308   7.377  17.441  0.00  0.00    +0.000 A 
ATOM     16  C   UNL     1       6.326   6.517  17.018  0.00  0.00    +0.000 A 
ATOM     17  C   UNL     1       6.042   5.180  16.766  0.00  0.00    +0.000 A 
ATOM     18 CL   UNL     1       7.278   4.139  16.180  0.00  0.00    +0.000 Cl
ATOM     19  C   UNL     1       4.756   4.688  16.978  0.00  0.00    +0.000 A 
ATOM     20  C   UNL     1       3.737   5.553  17.401  0.00  0.00    +0.000 A 
ENDBRANCH  11  14
BRANCH   1  22
ATOM     21  N   UNL     1      -0.700  14.490  19.267  0.00  0.00    +0.000 N 
ATOM     22  C   UNL     1       0.376  13.883  19.861  0.00  0.00    +0.000 C 
ATOM     23  O   UNL     1       1.453  14.458  19.943  0.00  0.00    +0.000 OA
ATOM     24  H   UNL     1      -0.579  15.476  19.069  0.00  0.00    +0.000 HD
ATOM     25  H   UNL     1      -1.632  14.193  19.528  0.00  0.00    +0.000 HD
ENDBRANCH   1  22
BRANCH   2  26
ATOM     26  N   UNL     1      -0.819  13.355  22.705  0.00  0.00    +0.000 N 
ATOM     27  C   UNL     1      -2.079  13.925  22.548  0.00  0.00    +0.000 C 
ATOM     28  O   UNL     1      -2.838  13.679  21.613  0.00  0.00    +0.000 OA
ATOM     29  H   UNL     1      -0.477  13.310  23.660  0.00  0.00    +0.000 HD
BRANCH  27  30
ATOM     30  C   UNL     1      -2.492  14.774  23.651  0.00  0.00    +0.000 A 
ATOM     31  C   UNL     1      -1.836  15.117  24.830  0.00  0.00    +0.000 A 
ATOM     32  C   UNL     1      -2.694  15.985  25.553  0.00  0.00    +0.000 A 
ATOM     33  C   UNL     1      -3.811  16.123  24.767  0.00  0.00    +0.000 A 
ATOM     34  O   UNL     1      -3.711  15.408  23.613  0.00  0.00    +0.000 OA
BRANCH  33  35
ATOM     35  N   UNL     1      -5.014  16.876  24.947  0.00  0.00    +0.000 N 
ATOM     36  O   UNL     1      -4.979  17.777  25.792  0.00  0.00    +0.000 OA
ATOM     37  O   UNL     1      -5.987  16.574  24.245  0.00  0.00    +0.000 OA
ENDBRANCH  33  35
ENDBRANCH  27  30
ENDBRANCH   2  26
TORSDOF 5
ENDMDL
MODEL 5
REMARK VINA RESULT:      -7.1      6.899     10.884
REMARK  Name = 
REMARK  5 active torsions:
REMARK  status: ('A' for Active; 'I' for Inactive)
REMARK    1  A    between atoms: C_2  and  C_4
REMARK    2  A    between atoms: C_5  and  N_6
REMARK    3  A    between atoms: C_7  and  C_9
REMARK    4  A    between atoms: C_12  and  N_13
REMARK    5  A    between atoms: N_25  and  C_26
REMARK                            x       y       z     vdW  Elec       q    Type
REMARK                         _______ _______ _______ _____ _____    ______ ____
ROOT
ATOM      1  C   UNL     1       0.392  13.118  20.430  0.00  0.00    +0.000 A 
ATOM      2  C   UNL     1      -0.640  13.680  19.693  0.00  0.00    +0.000 A 
ATOM      3  S   UNL     1      -0.253  15.223  19.079  0.00  0.00    +0.000 S 
ATOM      4  C   UNL     1       1.288  15.191  19.799  0.00  0.00    +0.000 A 
ATOM      5  C   UNL     1       1.493  14.050  20.554  0.00  0.00    +0.000 A 
ATOM      6  C   UNL     1       2.800  13.840  21.274  0.00  0.00    +0.000 C 
ATOM      7  C   UNL     1       3.588  15.163  21.377  0.00  0.00    +0.000 C 
ATOM      8  N   UNL     1       3.608  15.856  20.078  0.00  0.00    +0.000 N 
ATOM      9  C   UNL     1       4.712  16.191  19.308  0.00  0.00    +0.000 C 
ATOM     10  O   UNL     1       4.572  16.844  18.277  0.00  0.00    +0.000 OA
ATOM     11  N   UNL     1       5.933  15.733  19.764  0.00  0.00    +0.000 N 
ATOM     12  C   UNL     1       2.285  16.299  19.593  0.00  0.00    +0.000 C 
ATOM     13  H   UNL     1       5.915  14.971  20.420  0.00  0.00    +0.000 HD
ENDROOT
BRANCH  11  14
ATOM     14  C   UNL     1       7.186  15.964  19.143  0.00  0.00    +0.000 A 
ATOM     15  C   UNL     1       7.747  17.235  18.992  0.00  0.00    +0.000 A 
ATOM     16  C   UNL     1       8.921  17.419  18.256  0.00  0.00    +0.000 A 
ATOM     17  C   UNL     1       9.559  16.324  17.686  0.00  0.00    +0.000 A 
ATOM     18 CL   UNL     1      10.964  16.558  16.723  0.00  0.00    +0.000 Cl
ATOM     19  C   UNL     1       9.056  15.041  17.887  0.00  0.00    +0.000 A 
ATOM     20  C   UNL     1       7.878  14.859  18.625  0.00  0.00    +0.000 A 
ENDBRANCH  11  14
BRANCH   1  22
ATOM     21  N   UNL     1       0.824  10.809  20.014  0.00  0.00    +0.000 N 
ATOM     22  C   UNL     1       0.418  11.747  20.928  0.00  0.00    +0.000 C 
ATOM     23  O   UNL     1       0.211  11.437  22.093  0.00  0.00    +0.000 OA
ATOM     24  H   UNL     1       1.095   9.917  20.409  0.00  0.00    +0.000 HD
ATOM     25  H   UNL     1       1.337  11.116  19.197  0.00  0.00    +0.000 HD
ENDBRANCH   1  22
BRANCH   2  26
ATOM     26  N   UNL     1      -1.932  13.218  19.475  0.00  0.00    +0.000 N 
ATOM     27  C   UNL     1      -2.186  12.212  18.548  0.00  0.00    +0.000 C 
ATOM     28  O   UNL     1      -1.325  11.681  17.850  0.00  0.00    +0.000 OA
ATOM     29  H   UNL     1      -2.598  13.284  20.239  0.00  0.00    +0.000 HD
BRANCH  27  30
ATOM     30  C   UNL     1      -3.561  11.745  18.534  0.00  0.00    +0.000 A 
ATOM     31  C   UNL     1      -4.217  10.876  17.667  0.00  0.00    +0.000 A 
ATOM     32  C   UNL     1      -5.557  10.761  18.119  0.00  0.00    +0.000 A 
ATOM     33  C   UNL     1      -5.629  11.557  19.235  0.00  0.00    +0.000 A 
ATOM     34  O   UNL     1      -4.438  12.157  19.509  0.00  0.00    +0.000 OA
BRANCH  33  35
ATOM     35  N   UNL     1      -6.706  11.843  20.132  0.00  0.00    +0.000 N 
ATOM     36  O   UNL     1      -7.572  12.623  19.722  0.00  0.00    +0.000 OA
ATOM     37  O   UNL     1      -6.693  11.286  21.236  0.00  0.00    +0.000 OA
ENDBRANCH  33  35
ENDBRANCH  27  30
ENDBRANCH   2  26
TORSDOF 5
ENDMDL
MODEL 6
REMARK VINA RESULT:      -7.0      4.763     11.280
REMARK  Name = 
REMARK  5 active torsions:
REMARK  status: ('A' for Active; 'I' for Inactive)
REMARK    1  A    between atoms: C_2  and  C_4
REMARK    2  A    between atoms: C_5  and  N_6
REMARK    3  A    between atoms: C_7  and  C_9
REMARK    4  A    between atoms: C_12  and  N_13
REMARK    5  A    between atoms: N_25  and  C_26
REMARK                            x       y       z     vdW  Elec       q    Type
REMARK                         _______ _______ _______ _____ _____    ______ ____
ROOT
ATOM      1  C   UNL     1       0.264  12.595  20.463  0.00  0.00    +0.000 A 
ATOM      2  C   UNL     1      -0.094  12.442  21.795  0.00  0.00    +0.000 A 
ATOM      3  S   UNL     1      -0.109  10.812  22.294  0.00  0.00    +0.000 S 
ATOM      4  C   UNL     1       0.338  10.268  20.746  0.00  0.00    +0.000 A 
ATOM      5  C   UNL     1       0.438  11.303  19.833  0.00  0.00    +0.000 A 
ATOM      6  C   UNL     1       0.821  11.021  18.404  0.00  0.00    +0.000 C 
ATOM      7  C   UNL     1       0.654   9.522  18.077  0.00  0.00    +0.000 C 
ATOM      8  N   UNL     1       1.248   8.692  19.138  0.00  0.00    +0.000 N 
ATOM      9  C   UNL     1       2.286   7.778  19.024  0.00  0.00    +0.000 C 
ATOM     10  O   UNL     1       2.621   7.099  19.991  0.00  0.00    +0.000 OA
ATOM     11  N   UNL     1       2.902   7.709  17.790  0.00  0.00    +0.000 N 
ATOM     12  C   UNL     1       0.597   8.815  20.458  0.00  0.00    +0.000 C 
ATOM     13  H   UNL     1       2.775   8.494  17.175  0.00  0.00    +0.000 HD
ENDROOT
BRANCH  11  14
ATOM     14  C   UNL     1       3.973   6.845  17.448  0.00  0.00    +0.000 A 
ATOM     15  C   UNL     1       3.841   5.457  17.354  0.00  0.00    +0.000 A 
ATOM     16  C   UNL     1       4.956   4.641  17.143  0.00  0.00    +0.000 A 
ATOM     17  C   UNL     1       6.214   5.214  16.999  0.00  0.00    +0.000 A 
ATOM     18 CL   UNL     1       7.596   4.208  16.810  0.00  0.00    +0.000 Cl
ATOM     19  C   UNL     1       6.356   6.599  17.017  0.00  0.00    +0.000 A 
ATOM     20  C   UNL     1       5.236   7.415  17.228  0.00  0.00    +0.000 A 
ENDBRANCH  11  14
BRANCH   1  22
ATOM     21  N   UNL     1      -0.533  14.399  19.121  0.00  0.00    +0.000 N 
ATOM     22  C   UNL     1       0.530  13.871  19.807  0.00  0.00    +0.000 C 
ATOM     23  O   UNL     1       1.570  14.502  19.933  0.00  0.00    +0.000 OA
ATOM     24  H   UNL     1      -0.448  15.381  18.891  0.00  0.00    +0.000 HD
ATOM     25  H   UNL     1      -1.465  14.064  19.335  0.00  0.00    +0.000 HD
ENDBRANCH   1  22
BRANCH   2  26
ATOM     26  N   UNL     1      -0.520  13.391  22.716  0.00  0.00    +0.000 N 
ATOM     27  C   UNL     1      -1.869  13.699  22.856  0.00  0.00    +0.000 C 
ATOM     28  O   UNL     1      -2.767  13.191  22.186  0.00  0.00    +0.000 OA
ATOM     29  H   UNL     1       0.050  13.543  23.543  0.00  0.00    +0.000 HD
BRANCH  27  30
ATOM     30  C   UNL     1      -2.166  14.606  23.950  0.00  0.00    +0.000 A 
ATOM     31  C   UNL     1      -3.377  15.126  24.396  0.00  0.00    +0.000 A 
ATOM     32  C   UNL     1      -3.094  15.959  25.509  0.00  0.00    +0.000 A 
ATOM     33  C   UNL     1      -1.733  15.886  25.676  0.00  0.00    +0.000 A 
ATOM     34  O   UNL     1      -1.151  15.072  24.752  0.00  0.00    +0.000 OA
BRANCH  33  35
ATOM     35  N   UNL     1      -0.858  16.491  26.631  0.00  0.00    +0.000 N 
ATOM     36  O   UNL     1       0.014  15.763  27.119  0.00  0.00    +0.000 OA
ATOM     37  O   UNL     1      -1.033  17.688  26.889  0.00  0.00    +0.000 OA
ENDBRANCH  33  35
ENDBRANCH  27  30
ENDBRANCH   2  26
TORSDOF 5
ENDMDL
MODEL 7
REMARK VINA RESULT:      -7.0      4.732     11.620
REMARK  Name = 
REMARK  5 active torsions:
REMARK  status: ('A' for Active; 'I' for Inactive)
REMARK    1  A    between atoms: C_2  and  C_4
REMARK    2  A    between atoms: C_5  and  N_6
REMARK    3  A    between atoms: C_7  and  C_9
REMARK    4  A    between atoms: C_12  and  N_13
REMARK    5  A    between atoms: N_25  and  C_26
REMARK                            x       y       z     vdW  Elec       q    Type
REMARK                         _______ _______ _______ _____ _____    ______ ____
ROOT
ATOM      1  C   UNL     1       0.040  12.668  20.543  0.00  0.00    +0.000 A 
ATOM      2  C   UNL     1      -0.418  12.535  21.845  0.00  0.00    +0.000 A 
ATOM      3  S   UNL     1      -0.496  10.910  22.358  0.00  0.00    +0.000 S 
ATOM      4  C   UNL     1       0.057  10.344  20.852  0.00  0.00    +0.000 A 
ATOM      5  C   UNL     1       0.240  11.368  19.940  0.00  0.00    +0.000 A 
ATOM      6  C   UNL     1       0.724  11.065  18.545  0.00  0.00    +0.000 C 
ATOM      7  C   UNL     1       0.559   9.565  18.221  0.00  0.00    +0.000 C 
ATOM      8  N   UNL     1       1.060   8.738  19.331  0.00  0.00    +0.000 N 
ATOM      9  C   UNL     1       2.089   7.808  19.303  0.00  0.00    +0.000 C 
ATOM     10  O   UNL     1       2.341   7.134  20.300  0.00  0.00    +0.000 OA
ATOM     11  N   UNL     1       2.795   7.717  18.119  0.00  0.00    +0.000 N 
ATOM     12  C   UNL     1       0.314   8.884  20.598  0.00  0.00    +0.000 C 
ATOM     13  H   UNL     1       2.726   8.498  17.489  0.00  0.00    +0.000 HD
ENDROOT
BRANCH  11  14
ATOM     14  C   UNL     1       3.875   6.834  17.867  0.00  0.00    +0.000 A 
ATOM     15  C   UNL     1       4.054   5.625  18.545  0.00  0.00    +0.000 A 
ATOM     16  C   UNL     1       5.205   4.856  18.351  0.00  0.00    +0.000 A 
ATOM     17  C   UNL     1       6.177   5.281  17.453  0.00  0.00    +0.000 A 
ATOM     18 CL   UNL     1       7.625   4.372  17.265  0.00  0.00    +0.000 Cl
ATOM     19  C   UNL     1       5.983   6.445  16.714  0.00  0.00    +0.000 A 
ATOM     20  C   UNL     1       4.828   7.214  16.910  0.00  0.00    +0.000 A 
ENDBRANCH  11  14
BRANCH   1  22
ATOM     21  N   UNL     1      -0.687  14.583  19.321  0.00  0.00    +0.000 N 
ATOM     22  C   UNL     1       0.374  13.933  19.896  0.00  0.00    +0.000 C 
ATOM     23  O   UNL     1       1.478  14.457  19.945  0.00  0.00    +0.000 OA
ATOM     24  H   UNL     1      -0.525  15.560  19.108  0.00  0.00    +0.000 HD
ATOM     25  H   UNL     1      -1.625  14.334  19.608  0.00  0.00    +0.000 HD
ENDBRANCH   1  22
BRANCH   2  26
ATOM     26  N   UNL     1      -0.897  13.499  22.723  0.00  0.00    +0.000 N 
ATOM     27  C   UNL     1      -2.163  14.052  22.559  0.00  0.00    +0.000 C 
ATOM     28  O   UNL     1      -2.931  13.762  21.644  0.00  0.00    +0.000 OA
ATOM     29  H   UNL     1      -0.543  13.496  23.675  0.00  0.00    +0.000 HD
BRANCH  27  30
ATOM     30  C   UNL     1      -2.571  14.942  23.631  0.00  0.00    +0.000 A 
ATOM     31  C   UNL     1      -1.891  15.364  24.770  0.00  0.00    +0.000 A 
ATOM     32  C   UNL     1      -2.756  16.239  25.478  0.00  0.00    +0.000 A 
ATOM     33  C   UNL     1      -3.900  16.302  24.722  0.00  0.00    +0.000 A 
ATOM     34  O   UNL     1      -3.812  15.533  23.601  0.00  0.00    +0.000 OA
BRANCH  33  35
ATOM     35  N   UNL     1      -5.122  17.024  24.903  0.00  0.00    +0.000 N 
ATOM     36  O   UNL     1      -6.037  16.763  24.115  0.00  0.00    +0.000 OA
ATOM     37  O   UNL     1      -5.170  17.840  25.832  0.00  0.00    +0.000 OA
ENDBRANCH  33  35
ENDBRANCH  27  30
ENDBRANCH   2  26
TORSDOF 5
ENDMDL
MODEL 8
REMARK VINA RESULT:      -6.9      4.752     11.280
REMARK  Name = 
REMARK  5 active torsions:
REMARK  status: ('A' for Active; 'I' for Inactive)
REMARK    1  A    between atoms: C_2  and  C_4
REMARK    2  A    between atoms: C_5  and  N_6
REMARK    3  A    between atoms: C_7  and  C_9
REMARK    4  A    between atoms: C_12  and  N_13
REMARK    5  A    between atoms: N_25  and  C_26
REMARK                            x       y       z     vdW  Elec       q    Type
REMARK                         _______ _______ _______ _____ _____    ______ ____
ROOT
ATOM      1  C   UNL     1       0.137  12.526  20.410  0.00  0.00    +0.000 A 
ATOM      2  C   UNL     1      -0.150  12.415  21.763  0.00  0.00    +0.000 A 
ATOM      3  S   UNL     1      -0.096  10.805  22.323  0.00  0.00    +0.000 S 
ATOM      4  C   UNL     1       0.288  10.214  20.775  0.00  0.00    +0.000 A 
ATOM      5  C   UNL     1       0.315  11.216  19.821  0.00  0.00    +0.000 A 
ATOM      6  C   UNL     1       0.633  10.889  18.385  0.00  0.00    +0.000 C 
ATOM      7  C   UNL     1       0.492   9.374  18.123  0.00  0.00    +0.000 C 
ATOM      8  N   UNL     1       1.161   8.601  19.182  0.00  0.00    +0.000 N 
ATOM      9  C   UNL     1       2.216   7.710  19.050  0.00  0.00    +0.000 C 
ATOM     10  O   UNL     1       2.617   7.077  20.024  0.00  0.00    +0.000 OA
ATOM     11  N   UNL     1       2.772   7.610  17.790  0.00  0.00    +0.000 N 
ATOM     12  C   UNL     1       0.573   8.758  20.528  0.00  0.00    +0.000 C 
ATOM     13  H   UNL     1       2.593   8.368  17.153  0.00  0.00    +0.000 HD
ENDROOT
BRANCH  11  14
ATOM     14  C   UNL     1       3.848   6.761  17.426  0.00  0.00    +0.000 A 
ATOM     15  C   UNL     1       5.120   7.233  17.092  0.00  0.00    +0.000 A 
ATOM     16  C   UNL     1       6.106   6.364  16.614  0.00  0.00    +0.000 A 
ATOM     17  C   UNL     1       5.832   5.007  16.493  0.00  0.00    +0.000 A 
ATOM     18 CL   UNL     1       7.021   3.950  15.841  0.00  0.00    +0.000 Cl
ATOM     19  C   UNL     1       4.595   4.507  16.891  0.00  0.00    +0.000 A 
ATOM     20  C   UNL     1       3.608   5.380  17.369  0.00  0.00    +0.000 A 
ENDBRANCH  11  14
BRANCH   1  22
ATOM     21  N   UNL     1      -0.622  14.067  18.756  0.00  0.00    +0.000 N 
ATOM     22  C   UNL     1       0.335  13.782  19.695  0.00  0.00    +0.000 C 
ATOM     23  O   UNL     1       1.209  14.594  19.965  0.00  0.00    +0.000 OA
ATOM     24  H   UNL     1      -0.645  15.031  18.448  0.00  0.00    +0.000 HD
ATOM     25  H   UNL     1      -1.513  13.588  18.807  0.00  0.00    +0.000 HD
ENDBRANCH   1  22
BRANCH   2  26
ATOM     26  N   UNL     1      -0.556  13.388  22.669  0.00  0.00    +0.000 N 
ATOM     27  C   UNL     1      -1.903  13.585  22.952  0.00  0.00    +0.000 C 
ATOM     28  O   UNL     1      -2.819  12.954  22.429  0.00  0.00    +0.000 OA
ATOM     29  H   UNL     1       0.088  13.648  23.410  0.00  0.00    +0.000 HD
BRANCH  27  30
ATOM     30  C   UNL     1      -2.157  14.540  24.016  0.00  0.00    +0.000 A 
ATOM     31  C   UNL     1      -3.347  15.107  24.464  0.00  0.00    +0.000 A 
ATOM     32  C   UNL     1      -3.022  15.974  25.540  0.00  0.00    +0.000 A 
ATOM     33  C   UNL     1      -1.661  15.872  25.685  0.00  0.00    +0.000 A 
ATOM     34  O   UNL     1      -1.117  15.010  24.782  0.00  0.00    +0.000 OA
BRANCH  33  35
ATOM     35  N   UNL     1      -0.753  16.491  26.601  0.00  0.00    +0.000 N 
ATOM     36  O   UNL     1      -0.966  17.678  26.869  0.00  0.00    +0.000 OA
ATOM     37  O   UNL     1       0.163  15.794  27.056  0.00  0.00    +0.000 OA
ENDBRANCH  33  35
ENDBRANCH  27  30
ENDBRANCH   2  26
TORSDOF 5
ENDMDL
MODEL 9
REMARK VINA RESULT:      -6.9      6.919     11.093
REMARK  Name = 
REMARK  5 active torsions:
REMARK  status: ('A' for Active; 'I' for Inactive)
REMARK    1  A    between atoms: C_2  and  C_4
REMARK    2  A    between atoms: C_5  and  N_6
REMARK    3  A    between atoms: C_7  and  C_9
REMARK    4  A    between atoms: C_12  and  N_13
REMARK    5  A    between atoms: N_25  and  C_26
REMARK                            x       y       z     vdW  Elec       q    Type
REMARK                         _______ _______ _______ _____ _____    ______ ____
ROOT
ATOM      1  C   UNL     1       0.749  12.963  20.066  0.00  0.00    +0.000 A 
ATOM      2  C   UNL     1      -0.353  13.532  19.444  0.00  0.00    +0.000 A 
ATOM      3  S   UNL     1      -0.109  15.168  19.030  0.00  0.00    +0.000 S 
ATOM      4  C   UNL     1       1.459  15.166  19.689  0.00  0.00    +0.000 A 
ATOM      5  C   UNL     1       1.781  13.956  20.277  0.00  0.00    +0.000 A 
ATOM      6  C   UNL     1       3.129  13.759  20.921  0.00  0.00    +0.000 C 
ATOM      7  C   UNL     1       3.819  15.116  21.174  0.00  0.00    +0.000 C 
ATOM      8  N   UNL     1       3.732  15.972  19.979  0.00  0.00    +0.000 N 
ATOM      9  C   UNL     1       4.774  16.492  19.226  0.00  0.00    +0.000 C 
ATOM     10  O   UNL     1       4.542  17.260  18.295  0.00  0.00    +0.000 OA
ATOM     11  N   UNL     1       6.044  16.078  19.577  0.00  0.00    +0.000 N 
ATOM     12  C   UNL     1       2.360  16.367  19.600  0.00  0.00    +0.000 C 
ATOM     13  H   UNL     1       6.112  15.237  20.125  0.00  0.00    +0.000 HD
ENDROOT
BRANCH  11  14
ATOM     14  C   UNL     1       7.249  16.486  18.952  0.00  0.00    +0.000 A 
ATOM     15  C   UNL     1       7.938  15.701  18.023  0.00  0.00    +0.000 A 
ATOM     16  C   UNL     1       9.188  16.094  17.537  0.00  0.00    +0.000 A 
ATOM     17  C   UNL     1       9.748  17.294  17.959  0.00  0.00    +0.000 A 
ATOM     18 CL   UNL     1      11.316  17.745  17.415  0.00  0.00    +0.000 Cl
ATOM     19  C   UNL     1       9.044  18.125  18.827  0.00  0.00    +0.000 A 
ATOM     20  C   UNL     1       7.791  17.729  19.313  0.00  0.00    +0.000 A 
ENDBRANCH  11  14
BRANCH   1  22
ATOM     21  N   UNL     1       1.084  10.734  19.287  0.00  0.00    +0.000 N 
ATOM     22  C   UNL     1       0.898  11.545  20.376  0.00  0.00    +0.000 C 
ATOM     23  O   UNL     1       0.972  11.096  21.511  0.00  0.00    +0.000 OA
ATOM     24  H   UNL     1       1.445   9.812  19.497  0.00  0.00    +0.000 HD
ATOM     25  H   UNL     1       1.390  11.150  18.416  0.00  0.00    +0.000 HD
ENDBRANCH   1  22
BRANCH   2  26
ATOM     26  N   UNL     1      -1.615  13.000  19.209  0.00  0.00    +0.000 N 
ATOM     27  C   UNL     1      -2.525  12.830  20.246  0.00  0.00    +0.000 C 
ATOM     28  O   UNL     1      -2.293  13.104  21.422  0.00  0.00    +0.000 OA
ATOM     29  H   UNL     1      -2.023  13.130  18.288  0.00  0.00    +0.000 HD
BRANCH  27  30
ATOM     30  C   UNL     1      -3.843  12.393  19.821  0.00  0.00    +0.000 A 
ATOM     31  C   UNL     1      -4.289  11.916  18.591  0.00  0.00    +0.000 A 
ATOM     32  C   UNL     1      -5.672  11.628  18.728  0.00  0.00    +0.000 A 
ATOM     33  C   UNL     1      -5.977  11.937  20.030  0.00  0.00    +0.000 A 
ATOM     34  O   UNL     1      -4.890  12.396  20.711  0.00  0.00    +0.000 OA
BRANCH  33  35
ATOM     35  N   UNL     1      -7.200  11.852  20.767  0.00  0.00    +0.000 N 
ATOM     36  O   UNL     1      -7.915  12.859  20.766  0.00  0.00    +0.000 OA
ATOM     37  O   UNL     1      -7.449  10.783  21.338  0.00  0.00    +0.000 OA
ENDBRANCH  33  35
ENDBRANCH  27  30
ENDBRANCH   2  26
TORSDOF 5
ENDMDL
