MODEL 1
REMARK VINA RESULT:      -7.6      0.000      0.000
REMARK  Name = 
REMARK  4 active torsions:
REMARK  status: ('A' for Active; 'I' for Inactive)
REMARK    1  A    between atoms: N_1  and  C_2
REMARK    2  A    between atoms: N_5  and  C_6
REMARK    3  A    between atoms: C_14  and  C_15
REMARK    4  A    between atoms: C_15  and  C_17
REMARK                            x       y       z     vdW  Elec       q    Type
REMARK                         _______ _______ _______ _____ _____    ______ ____
ROOT
ATOM      1  C   UNL     1       1.521   9.214  18.771  0.00  0.00    +0.000 A 
ATOM      2  N   UNL     1       1.992   7.977  19.074  0.00  0.00    +0.000 NA
ATOM      3  C   UNL     1       1.668   7.644  20.304  0.00  0.00    +0.000 A 
ATOM      4  N   UNL     1       2.010   6.480  20.909  0.00  0.00    +0.000 N 
ATOM      5  S   UNL     1       0.771   8.848  21.148  0.00  0.00    +0.000 S 
ATOM      6  C   UNL     1       0.751   9.832  19.731  0.00  0.00    +0.000 A 
ATOM      7  H   UNL     1       1.925   6.407  21.916  0.00  0.00    +0.000 HD
ENDROOT
BRANCH   4   8
ATOM      8  C   UNL     1       2.387   5.301  20.242  0.00  0.00    +0.000 A 
ATOM      9  C   UNL     1       1.463   4.256  20.105  0.00  0.00    +0.000 A 
ATOM     10  C   UNL     1       1.840   3.038  19.526  0.00  0.00    +0.000 A 
ATOM     11  C   UNL     1       3.143   2.859  19.069  0.00  0.00    +0.000 A 
ATOM     12 CL   UNL     1       3.611   1.361  18.365  0.00  0.00    +0.000 Cl
ATOM     13  C   UNL     1       4.074   3.883  19.191  0.00  0.00    +0.000 A 
ATOM     14  C   UNL     1       3.697   5.088  19.785  0.00  0.00    +0.000 A 
ENDBRANCH   4   8
BRANCH   1  15
ATOM     15  N   UNL     1       1.867   9.679  17.561  0.00  0.00    +0.000 N 
ATOM     16  H   UNL     1       1.894  10.692  17.473  0.00  0.00    +0.000 HD
ATOM     17  H   UNL     1       1.562   9.226  16.706  0.00  0.00    +0.000 HD
ENDBRANCH   1  15
BRANCH   6  18
ATOM     18  C   UNL     1       0.023  11.084  19.743  0.00  0.00    +0.000 C 
ATOM     19  O   UNL     1       0.477  12.128  20.214  0.00  0.00    +0.000 OA
BRANCH  18  20
ATOM     20  C   UNL     1      -1.356  11.162  19.169  0.00  0.00    +0.000 A 
ATOM     21  C   UNL     1      -2.255  12.097  19.707  0.00  0.00    +0.000 A 
ATOM     22  C   UNL     1      -3.558  12.193  19.210  0.00  0.00    +0.000 A 
ATOM     23  C   UNL     1      -3.970  11.352  18.177  0.00  0.00    +0.000 A 
ATOM     24 CL   UNL     1      -5.572  11.468  17.565  0.00  0.00    +0.000 Cl
ATOM     25  C   UNL     1      -3.092  10.410  17.644  0.00  0.00    +0.000 A 
ATOM     26  C   UNL     1      -1.792  10.303  18.149  0.00  0.00    +0.000 A 
ENDBRANCH  18  20
ENDBRANCH   6  18
TORSDOF 4
ENDMDL
MODEL 2
REMARK VINA RESULT:      -7.6      0.080      1.012
REMARK  Name = 
REMARK  4 active torsions:
REMARK  status: ('A' for Active; 'I' for Inactive)
REMARK    1  A    between atoms: N_1  and  C_2
REMARK    2  A    between atoms: N_5  and  C_6
REMARK    3  A    between atoms: C_14  and  C_15
REMARK    4  A    between atoms: C_15  and  C_17
REMARK                            x       y       z     vdW  Elec       q    Type
REMARK                         _______ _______ _______ _____ _____    ______ ____
ROOT
ATOM      1  C   UNL     1       1.501   9.287  18.780  0.00  0.00    +0.000 A 
ATOM      2  N   UNL     1       1.970   8.047  19.075  0.00  0.00    +0.000 NA
ATOM      3  C   UNL     1       1.640   7.704  20.301  0.00  0.00    +0.000 A 
ATOM      4  N   UNL     1       1.978   6.536  20.899  0.00  0.00    +0.000 N 
ATOM      5  S   UNL     1       0.742   8.904  21.152  0.00  0.00    +0.000 S 
ATOM      6  C   UNL     1       0.729   9.898  19.742  0.00  0.00    +0.000 A 
ATOM      7  H   UNL     1       1.889   6.455  21.905  0.00  0.00    +0.000 HD
ENDROOT
BRANCH   4   8
ATOM      8  C   UNL     1       2.356   5.361  20.224  0.00  0.00    +0.000 A 
ATOM      9  C   UNL     1       1.436   4.312  20.089  0.00  0.00    +0.000 A 
ATOM     10  C   UNL     1       1.815   3.099  19.501  0.00  0.00    +0.000 A 
ATOM     11  C   UNL     1       3.116   2.928  19.035  0.00  0.00    +0.000 A 
ATOM     12 CL   UNL     1       3.586   1.435  18.321  0.00  0.00    +0.000 Cl
ATOM     13  C   UNL     1       4.043   3.956  19.156  0.00  0.00    +0.000 A 
ATOM     14  C   UNL     1       3.664   5.157  19.758  0.00  0.00    +0.000 A 
ENDBRANCH   4   8
BRANCH   1  15
ATOM     15  N   UNL     1       1.854   9.761  17.575  0.00  0.00    +0.000 N 
ATOM     16  H   UNL     1       1.655  10.746  17.418  0.00  0.00    +0.000 HD
ATOM     17  H   UNL     1       1.750   9.207  16.732  0.00  0.00    +0.000 HD
ENDBRANCH   1  15
BRANCH   6  18
ATOM     18  C   UNL     1       0.002  11.151  19.761  0.00  0.00    +0.000 C 
ATOM     19  O   UNL     1       0.479  12.205  20.188  0.00  0.00    +0.000 OA
BRANCH  18  20
ATOM     20  C   UNL     1      -1.402  11.219  19.249  0.00  0.00    +0.000 A 
ATOM     21  C   UNL     1      -1.784  10.344  18.220  0.00  0.00    +0.000 A 
ATOM     22  C   UNL     1      -3.082  10.385  17.703  0.00  0.00    +0.000 A 
ATOM     23  C   UNL     1      -4.002  11.303  18.208  0.00  0.00    +0.000 A 
ATOM     24 CL   UNL     1      -5.598  11.354  17.573  0.00  0.00    +0.000 Cl
ATOM     25  C   UNL     1      -3.631  12.186  19.220  0.00  0.00    +0.000 A 
ATOM     26  C   UNL     1      -2.328  12.157  19.729  0.00  0.00    +0.000 A 
ENDBRANCH  18  20
ENDBRANCH   6  18
TORSDOF 4
ENDMDL
MODEL 3
REMARK VINA RESULT:      -7.5      0.145      1.431
REMARK  Name = 
REMARK  4 active torsions:
REMARK  status: ('A' for Active; 'I' for Inactive)
REMARK    1  A    between atoms: N_1  and  C_2
REMARK    2  A    between atoms: N_5  and  C_6
REMARK    3  A    between atoms: C_14  and  C_15
REMARK    4  A    between atoms: C_15  and  C_17
REMARK                            x       y       z     vdW  Elec       q    Type
REMARK                         _______ _______ _______ _____ _____    ______ ____
ROOT
ATOM      1  C   UNL     1       1.525   9.227  18.775  0.00  0.00    +0.000 A 
ATOM      2  N   UNL     1       1.985   7.992  19.103  0.00  0.00    +0.000 NA
ATOM      3  C   UNL     1       1.664   7.690  20.341  0.00  0.00    +0.000 A 
ATOM      4  N   UNL     1       1.997   6.536  20.971  0.00  0.00    +0.000 N 
ATOM      5  S   UNL     1       0.785   8.922  21.164  0.00  0.00    +0.000 S 
ATOM      6  C   UNL     1       0.767   9.874  19.725  0.00  0.00    +0.000 A 
ATOM      7  H   UNL     1       1.918   6.486  21.979  0.00  0.00    +0.000 HD
ENDROOT
BRANCH   4   8
ATOM      8  C   UNL     1       2.358   5.339  20.328  0.00  0.00    +0.000 A 
ATOM      9  C   UNL     1       3.647   5.197  19.797  0.00  0.00    +0.000 A 
ATOM     10  C   UNL     1       4.002   4.051  19.074  0.00  0.00    +0.000 A 
ATOM     11  C   UNL     1       3.073   3.033  18.885  0.00  0.00    +0.000 A 
ATOM     12 CL   UNL     1       3.503   1.628  17.990  0.00  0.00    +0.000 Cl
ATOM     13  C   UNL     1       1.790   3.150  19.406  0.00  0.00    +0.000 A 
ATOM     14  C   UNL     1       1.437   4.302  20.111  0.00  0.00    +0.000 A 
ENDBRANCH   4   8
BRANCH   1  15
ATOM     15  N   UNL     1       1.870   9.661  17.553  0.00  0.00    +0.000 N 
ATOM     16  H   UNL     1       2.325  10.571  17.525  0.00  0.00    +0.000 HD
ATOM     17  H   UNL     1       1.284   9.498  16.742  0.00  0.00    +0.000 HD
ENDBRANCH   1  15
BRANCH   6  18
ATOM     18  C   UNL     1       0.053  11.134  19.713  0.00  0.00    +0.000 C 
ATOM     19  O   UNL     1       0.541  12.194  20.108  0.00  0.00    +0.000 OA
BRANCH  18  20
ATOM     20  C   UNL     1      -1.353  11.201  19.207  0.00  0.00    +0.000 A 
ATOM     21  C   UNL     1      -1.741  10.321  18.184  0.00  0.00    +0.000 A 
ATOM     22  C   UNL     1      -3.042  10.360  17.672  0.00  0.00    +0.000 A 
ATOM     23  C   UNL     1      -3.958  11.282  18.176  0.00  0.00    +0.000 A 
ATOM     24 CL   UNL     1      -5.557  11.332  17.548  0.00  0.00    +0.000 Cl
ATOM     25  C   UNL     1      -3.582  12.170  19.182  0.00  0.00    +0.000 A 
ATOM     26  C   UNL     1      -2.277  12.142  19.686  0.00  0.00    +0.000 A 
ENDBRANCH  18  20
ENDBRANCH   6  18
TORSDOF 4
ENDMDL
MODEL 4
REMARK VINA RESULT:      -7.5      0.158      1.016
REMARK  Name = 
REMARK  4 active torsions:
REMARK  status: ('A' for Active; 'I' for Inactive)
REMARK    1  A    between atoms: N_1  and  C_2
REMARK    2  A    between atoms: N_5  and  C_6
REMARK    3  A    between atoms: C_14  and  C_15
REMARK    4  A    between atoms: C_15  and  C_17
REMARK                            x       y       z     vdW  Elec       q    Type
REMARK                         _______ _______ _______ _____ _____    ______ ____
ROOT
ATOM      1  C   UNL     1       1.496   9.257  18.786  0.00  0.00    +0.000 A 
ATOM      2  N   UNL     1       1.960   8.023  19.114  0.00  0.00    +0.000 NA
ATOM      3  C   UNL     1       1.634   7.717  20.350  0.00  0.00    +0.000 A 
ATOM      4  N   UNL     1       1.968   6.564  20.980  0.00  0.00    +0.000 N 
ATOM      5  S   UNL     1       0.744   8.944  21.170  0.00  0.00    +0.000 S 
ATOM      6  C   UNL     1       0.730   9.899  19.733  0.00  0.00    +0.000 A 
ATOM      7  H   UNL     1       1.884   6.512  21.988  0.00  0.00    +0.000 HD
ENDROOT
BRANCH   4   8
ATOM      8  C   UNL     1       2.338   5.369  20.337  0.00  0.00    +0.000 A 
ATOM      9  C   UNL     1       3.616   5.251  19.773  0.00  0.00    +0.000 A 
ATOM     10  C   UNL     1       3.977   4.108  19.050  0.00  0.00    +0.000 A 
ATOM     11  C   UNL     1       3.065   3.068  18.893  0.00  0.00    +0.000 A 
ATOM     12 CL   UNL     1       3.503   1.666  17.998  0.00  0.00    +0.000 Cl
ATOM     13  C   UNL     1       1.794   3.162  19.446  0.00  0.00    +0.000 A 
ATOM     14  C   UNL     1       1.434   4.311  20.151  0.00  0.00    +0.000 A 
ENDBRANCH   4   8
BRANCH   1  15
ATOM     15  N   UNL     1       1.845   9.695  17.567  0.00  0.00    +0.000 N 
ATOM     16  H   UNL     1       1.077  10.012  16.980  0.00  0.00    +0.000 HD
ATOM     17  H   UNL     1       2.583   9.252  17.030  0.00  0.00    +0.000 HD
ENDBRANCH   1  15
BRANCH   6  18
ATOM     18  C   UNL     1       0.009  11.155  19.720  0.00  0.00    +0.000 C 
ATOM     19  O   UNL     1       0.476  12.209  20.154  0.00  0.00    +0.000 OA
BRANCH  18  20
ATOM     20  C   UNL     1      -1.377  11.225  19.162  0.00  0.00    +0.000 A 
ATOM     21  C   UNL     1      -2.285  12.132  19.734  0.00  0.00    +0.000 A 
ATOM     22  C   UNL     1      -3.595  12.219  19.253  0.00  0.00    +0.000 A 
ATOM     23  C   UNL     1      -4.005  11.398  18.204  0.00  0.00    +0.000 A 
ATOM     24 CL   UNL     1      -5.615  11.504  17.611  0.00  0.00    +0.000 Cl
ATOM     25  C   UNL     1      -3.118  10.485  17.637  0.00  0.00    +0.000 A 
ATOM     26  C   UNL     1      -1.811  10.386  18.126  0.00  0.00    +0.000 A 
ENDBRANCH  18  20
ENDBRANCH   6  18
TORSDOF 4
ENDMDL
MODEL 5
REMARK VINA RESULT:      -7.3      3.101      8.605
REMARK  Name = 
REMARK  4 active torsions:
REMARK  status: ('A' for Active; 'I' for Inactive)
REMARK    1  A    between atoms: N_1  and  C_2
REMARK    2  A    between atoms: N_5  and  C_6
REMARK    3  A    between atoms: C_14  and  C_15
REMARK    4  A    between atoms: C_15  and  C_17
REMARK                            x       y       z     vdW  Elec       q    Type
REMARK                         _______ _______ _______ _____ _____    ______ ____
ROOT
ATOM      1  C   UNL     1       2.045   7.307  19.939  0.00  0.00    +0.000 A 
ATOM      2  N   UNL     1       1.256   8.364  19.616  0.00  0.00    +0.000 NA
ATOM      3  C   UNL     1       1.584   8.847  18.438  0.00  0.00    +0.000 A 
ATOM      4  N   UNL     1       0.997   9.915  17.845  0.00  0.00    +0.000 N 
ATOM      5  S   UNL     1       2.890   8.023  17.675  0.00  0.00    +0.000 S 
ATOM      6  C   UNL     1       2.946   6.897  18.982  0.00  0.00    +0.000 A 
ATOM      7  H   UNL     1       1.460  10.358  17.061  0.00  0.00    +0.000 HD
ENDROOT
BRANCH   4   8
ATOM      8  C   UNL     1      -0.278  10.418  18.163  0.00  0.00    +0.000 A 
ATOM      9  C   UNL     1      -1.407   9.918  17.499  0.00  0.00    +0.000 A 
ATOM     10  C   UNL     1      -2.675  10.464  17.733  0.00  0.00    +0.000 A 
ATOM     11  C   UNL     1      -2.826  11.509  18.639  0.00  0.00    +0.000 A 
ATOM     12 CL   UNL     1      -4.381  12.188  18.921  0.00  0.00    +0.000 Cl
ATOM     13  C   UNL     1      -1.721  12.018  19.312  0.00  0.00    +0.000 A 
ATOM     14  C   UNL     1      -0.457  11.481  19.062  0.00  0.00    +0.000 A 
ENDBRANCH   4   8
BRANCH   1  15
ATOM     15  N   UNL     1       1.841   6.791  21.160  0.00  0.00    +0.000 N 
ATOM     16  H   UNL     1       2.421   5.990  21.398  0.00  0.00    +0.000 HD
ATOM     17  H   UNL     1       0.914   6.731  21.568  0.00  0.00    +0.000 HD
ENDBRANCH   1  15
BRANCH   6  18
ATOM     18  C   UNL     1       3.875   5.787  18.926  0.00  0.00    +0.000 C 
ATOM     19  O   UNL     1       3.998   4.959  19.831  0.00  0.00    +0.000 OA
BRANCH  18  20
ATOM     20  C   UNL     1       4.753   5.595  17.730  0.00  0.00    +0.000 A 
ATOM     21  C   UNL     1       4.360   4.669  16.751  0.00  0.00    +0.000 A 
ATOM     22  C   UNL     1       5.159   4.448  15.625  0.00  0.00    +0.000 A 
ATOM     23  C   UNL     1       6.355   5.148  15.476  0.00  0.00    +0.000 A 
ATOM     24 CL   UNL     1       7.339   4.878  14.092  0.00  0.00    +0.000 Cl
ATOM     25  C   UNL     1       6.764   6.059  16.447  0.00  0.00    +0.000 A 
ATOM     26  C   UNL     1       5.973   6.272  17.581  0.00  0.00    +0.000 A 
ENDBRANCH  18  20
ENDBRANCH   6  18
TORSDOF 4
ENDMDL
MODEL 6
REMARK VINA RESULT:      -7.3      6.632      9.546
REMARK  Name = 
REMARK  4 active torsions:
REMARK  status: ('A' for Active; 'I' for Inactive)
REMARK    1  A    between atoms: N_1  and  C_2
REMARK    2  A    between atoms: N_5  and  C_6
REMARK    3  A    between atoms: C_14  and  C_15
REMARK    4  A    between atoms: C_15  and  C_17
REMARK                            x       y       z     vdW  Elec       q    Type
REMARK                         _______ _______ _______ _____ _____    ______ ____
ROOT
ATOM      1  C   UNL     1       7.722   6.112  18.889  0.00  0.00    +0.000 A 
ATOM      2  N   UNL     1       8.230   7.367  18.790  0.00  0.00    +0.000 NA
ATOM      3  C   UNL     1       7.740   7.986  17.739  0.00  0.00    +0.000 A 
ATOM      4  N   UNL     1       8.067   9.244  17.355  0.00  0.00    +0.000 N 
ATOM      5  S   UNL     1       6.633   7.042  16.816  0.00  0.00    +0.000 S 
ATOM      6  C   UNL     1       6.765   5.760  17.964  0.00  0.00    +0.000 A 
ATOM      7  H   UNL     1       7.830   9.550  16.419  0.00  0.00    +0.000 HD
ENDROOT
BRANCH   4   8
ATOM      8  C   UNL     1       8.633  10.224  18.191  0.00  0.00    +0.000 A 
ATOM      9  C   UNL     1       8.645  11.563  17.780  0.00  0.00    +0.000 A 
ATOM     10  C   UNL     1       9.281  12.544  18.552  0.00  0.00    +0.000 A 
ATOM     11  C   UNL     1       9.904  12.193  19.746  0.00  0.00    +0.000 A 
ATOM     12 CL   UNL     1      10.694  13.393  20.692  0.00  0.00    +0.000 Cl
ATOM     13  C   UNL     1       9.901  10.870  20.175  0.00  0.00    +0.000 A 
ATOM     14  C   UNL     1       9.280   9.895  19.393  0.00  0.00    +0.000 A 
ENDBRANCH   4   8
BRANCH   1  15
ATOM     15  N   UNL     1       8.221   5.368  19.889  0.00  0.00    +0.000 N 
ATOM     16  H   UNL     1       9.003   4.769  19.638  0.00  0.00    +0.000 HD
ATOM     17  H   UNL     1       7.624   4.950  20.594  0.00  0.00    +0.000 HD
ENDBRANCH   1  15
BRANCH   6  18
ATOM     18  C   UNL     1       5.952   4.572  17.801  0.00  0.00    +0.000 C 
ATOM     19  O   UNL     1       6.111   3.762  16.886  0.00  0.00    +0.000 OA
BRANCH  18  20
ATOM     20  C   UNL     1       4.850   4.272  18.767  0.00  0.00    +0.000 A 
ATOM     21  C   UNL     1       4.630   2.936  19.140  0.00  0.00    +0.000 A 
ATOM     22  C   UNL     1       3.601   2.611  20.029  0.00  0.00    +0.000 A 
ATOM     23  C   UNL     1       2.784   3.617  20.543  0.00  0.00    +0.000 A 
ATOM     24 CL   UNL     1       1.518   3.218  21.635  0.00  0.00    +0.000 Cl
ATOM     25  C   UNL     1       2.983   4.944  20.170  0.00  0.00    +0.000 A 
ATOM     26  C   UNL     1       4.003   5.271  19.270  0.00  0.00    +0.000 A 
ENDBRANCH  18  20
ENDBRANCH   6  18
TORSDOF 4
ENDMDL
MODEL 7
REMARK VINA RESULT:      -7.3      2.950      8.594
REMARK  Name = 
REMARK  4 active torsions:
REMARK  status: ('A' for Active; 'I' for Inactive)
REMARK    1  A    between atoms: N_1  and  C_2
REMARK    2  A    between atoms: N_5  and  C_6
REMARK    3  A    between atoms: C_14  and  C_15
REMARK    4  A    between atoms: C_15  and  C_17
REMARK                            x       y       z     vdW  Elec       q    Type
REMARK                         _______ _______ _______ _____ _____    ______ ____
ROOT
ATOM      1  C   UNL     1       1.877   7.670  20.071  0.00  0.00    +0.000 A 
ATOM      2  N   UNL     1       1.125   8.741  19.708  0.00  0.00    +0.000 NA
ATOM      3  C   UNL     1       1.392   9.100  18.472  0.00  0.00    +0.000 A 
ATOM      4  N   UNL     1       0.822  10.146  17.825  0.00  0.00    +0.000 N 
ATOM      5  S   UNL     1       2.594   8.136  17.701  0.00  0.00    +0.000 S 
ATOM      6  C   UNL     1       2.684   7.126  19.098  0.00  0.00    +0.000 A 
ATOM      7  H   UNL     1       1.250  10.491  16.975  0.00  0.00    +0.000 HD
ENDROOT
BRANCH   4   8
ATOM      8  C   UNL     1      -0.398  10.749  18.181  0.00  0.00    +0.000 A 
ATOM      9  C   UNL     1      -0.405  11.818  19.088  0.00  0.00    +0.000 A 
ATOM     10  C   UNL     1      -1.611  12.377  19.527  0.00  0.00    +0.000 A 
ATOM     11  C   UNL     1      -2.822  11.877  19.056  0.00  0.00    +0.000 A 
ATOM     12 CL   UNL     1      -4.305  12.555  19.601  0.00  0.00    +0.000 Cl
ATOM     13  C   UNL     1      -2.839  10.820  18.154  0.00  0.00    +0.000 A 
ATOM     14  C   UNL     1      -1.633  10.256  17.733  0.00  0.00    +0.000 A 
ENDBRANCH   4   8
BRANCH   1  15
ATOM     15  N   UNL     1       1.734   7.275  21.346  0.00  0.00    +0.000 N 
ATOM     16  H   UNL     1       1.847   8.005  22.045  0.00  0.00    +0.000 HD
ATOM     17  H   UNL     1       2.074   6.376  21.668  0.00  0.00    +0.000 HD
ENDBRANCH   1  15
BRANCH   6  18
ATOM     18  C   UNL     1       3.545   5.962  19.081  0.00  0.00    +0.000 C 
ATOM     19  O   UNL     1       3.601   5.145  20.002  0.00  0.00    +0.000 OA
BRANCH  18  20
ATOM     20  C   UNL     1       4.434   5.696  17.907  0.00  0.00    +0.000 A 
ATOM     21  C   UNL     1       4.103   4.641  17.040  0.00  0.00    +0.000 A 
ATOM     22  C   UNL     1       4.915   4.350  15.940  0.00  0.00    +0.000 A 
ATOM     23  C   UNL     1       6.061   5.106  15.703  0.00  0.00    +0.000 A 
ATOM     24 CL   UNL     1       7.060   4.749  14.351  0.00  0.00    +0.000 Cl
ATOM     25  C   UNL     1       6.408   6.146  16.563  0.00  0.00    +0.000 A 
ATOM     26  C   UNL     1       5.605   6.431  17.673  0.00  0.00    +0.000 A 
ENDBRANCH  18  20
ENDBRANCH   6  18
TORSDOF 4
ENDMDL
MODEL 8
REMARK VINA RESULT:      -7.2      6.547      9.358
REMARK  Name = 
REMARK  4 active torsions:
REMARK  status: ('A' for Active; 'I' for Inactive)
REMARK    1  A    between atoms: N_1  and  C_2
REMARK    2  A    between atoms: N_5  and  C_6
REMARK    3  A    between atoms: C_14  and  C_15
REMARK    4  A    between atoms: C_15  and  C_17
REMARK                            x       y       z     vdW  Elec       q    Type
REMARK                         _______ _______ _______ _____ _____    ______ ____
ROOT
ATOM      1  C   UNL     1       7.734   6.193  18.789  0.00  0.00    +0.000 A 
ATOM      2  N   UNL     1       8.245   7.451  18.754  0.00  0.00    +0.000 NA
ATOM      3  C   UNL     1       7.851   8.084  17.671  0.00  0.00    +0.000 A 
ATOM      4  N   UNL     1       8.207   9.348  17.337  0.00  0.00    +0.000 N 
ATOM      5  S   UNL     1       6.837   7.151  16.637  0.00  0.00    +0.000 S 
ATOM      6  C   UNL     1       6.867   5.852  17.774  0.00  0.00    +0.000 A 
ATOM      7  H   UNL     1       8.055   9.667  16.388  0.00  0.00    +0.000 HD
ENDROOT
BRANCH   4   8
ATOM      8  C   UNL     1       8.690  10.317  18.235  0.00  0.00    +0.000 A 
ATOM      9  C   UNL     1       8.751  11.660  17.840  0.00  0.00    +0.000 A 
ATOM     10  C   UNL     1       9.310  12.630  18.682  0.00  0.00    +0.000 A 
ATOM     11  C   UNL     1       9.805  12.265  19.931  0.00  0.00    +0.000 A 
ATOM     12 CL   UNL     1      10.501  13.452  20.963  0.00  0.00    +0.000 Cl
ATOM     13  C   UNL     1       9.751  10.939  20.345  0.00  0.00    +0.000 A 
ATOM     14  C   UNL     1       9.208   9.975  19.494  0.00  0.00    +0.000 A 
ENDBRANCH   4   8
BRANCH   1  15
ATOM     15  N   UNL     1       8.142   5.437  19.819  0.00  0.00    +0.000 N 
ATOM     16  H   UNL     1       7.759   4.495  19.848  0.00  0.00    +0.000 HD
ATOM     17  H   UNL     1       8.280   5.825  20.745  0.00  0.00    +0.000 HD
ENDBRANCH   1  15
BRANCH   6  18
ATOM     18  C   UNL     1       6.078   4.665  17.520  0.00  0.00    +0.000 C 
ATOM     19  O   UNL     1       6.412   3.787  16.723  0.00  0.00    +0.000 OA
BRANCH  18  20
ATOM     20  C   UNL     1       4.783   4.451  18.237  0.00  0.00    +0.000 A 
ATOM     21  C   UNL     1       3.690   5.269  17.906  0.00  0.00    +0.000 A 
ATOM     22  C   UNL     1       2.465   5.112  18.562  0.00  0.00    +0.000 A 
ATOM     23  C   UNL     1       2.329   4.142  19.554  0.00  0.00    +0.000 A 
ATOM     24 CL   UNL     1       0.824   3.948  20.362  0.00  0.00    +0.000 Cl
ATOM     25  C   UNL     1       3.409   3.333  19.901  0.00  0.00    +0.000 A 
ATOM     26  C   UNL     1       4.640   3.498  19.256  0.00  0.00    +0.000 A 
ENDBRANCH  18  20
ENDBRANCH   6  18
TORSDOF 4
ENDMDL
MODEL 9
REMARK VINA RESULT:      -7.2      3.099      8.599
REMARK  Name = 
REMARK  4 active torsions:
REMARK  status: ('A' for Active; 'I' for Inactive)
REMARK    1  A    between atoms: N_1  and  C_2
REMARK    2  A    between atoms: N_5  and  C_6
REMARK    3  A    between atoms: C_14  and  C_15
REMARK    4  A    between atoms: C_15  and  C_17
REMARK                            x       y       z     vdW  Elec       q    Type
REMARK                         _______ _______ _______ _____ _____    ______ ____
ROOT
ATOM      1  C   UNL     1       2.068   7.354  19.963  0.00  0.00    +0.000 A 
ATOM      2  N   UNL     1       1.350   8.462  19.643  0.00  0.00    +0.000 NA
ATOM      3  C   UNL     1       1.704   8.920  18.463  0.00  0.00    +0.000 A 
ATOM      4  N   UNL     1       1.188  10.025  17.872  0.00  0.00    +0.000 N 
ATOM      5  S   UNL     1       2.949   8.009  17.695  0.00  0.00    +0.000 S 
ATOM      6  C   UNL     1       2.935   6.883  19.003  0.00  0.00    +0.000 A 
ATOM      7  H   UNL     1       1.676  10.436  17.085  0.00  0.00    +0.000 HD
ENDROOT
BRANCH   4   8
ATOM      8  C   UNL     1      -0.049  10.613  18.195  0.00  0.00    +0.000 A 
ATOM      9  C   UNL     1      -0.097  11.662  19.123  0.00  0.00    +0.000 A 
ATOM     10  C   UNL     1      -1.323  12.203  19.530  0.00  0.00    +0.000 A 
ATOM     11  C   UNL     1      -2.512  11.705  19.003  0.00  0.00    +0.000 A 
ATOM     12 CL   UNL     1      -4.019  12.362  19.507  0.00  0.00    +0.000 Cl
ATOM     13  C   UNL     1      -2.487  10.668  18.078  0.00  0.00    +0.000 A 
ATOM     14  C   UNL     1      -1.263  10.121  17.691  0.00  0.00    +0.000 A 
ENDBRANCH   4   8
BRANCH   1  15
ATOM     15  N   UNL     1       1.835   6.854  21.186  0.00  0.00    +0.000 N 
ATOM     16  H   UNL     1       2.664   6.635  21.733  0.00  0.00    +0.000 HD
ATOM     17  H   UNL     1       1.074   6.207  21.364  0.00  0.00    +0.000 HD
ENDBRANCH   1  15
BRANCH   6  18
ATOM     18  C   UNL     1       3.787   5.713  18.944  0.00  0.00    +0.000 C 
ATOM     19  O   UNL     1       3.843   4.869  19.840  0.00  0.00    +0.000 OA
BRANCH  18  20
ATOM     20  C   UNL     1       4.663   5.475  17.755  0.00  0.00    +0.000 A 
ATOM     21  C   UNL     1       5.881   6.167  17.670  0.00  0.00    +0.000 A 
ATOM     22  C   UNL     1       6.723   5.985  16.568  0.00  0.00    +0.000 A 
ATOM     23  C   UNL     1       6.348   5.115  15.546  0.00  0.00    +0.000 A 
ATOM     24 CL   UNL     1       7.382   4.891  14.191  0.00  0.00    +0.000 Cl
ATOM     25  C   UNL     1       5.136   4.433  15.611  0.00  0.00    +0.000 A 
ATOM     26  C   UNL     1       4.285   4.624  16.705  0.00  0.00    +0.000 A 
ENDBRANCH  18  20
ENDBRANCH   6  18
TORSDOF 4
ENDMDL
