MODEL 1
REMARK VINA RESULT:      -6.6      0.000      0.000
REMARK  Name = 
REMARK  3 active torsions:
REMARK  status: ('A' for Active; 'I' for Inactive)
REMARK    1  A    between atoms: C_1  and  N_2
REMARK    2  A    between atoms: C_4  and  C_5
REMARK    3  A    between atoms: C_5  and  O_7
REMARK                            x       y       z     vdW  Elec       q    Type
REMARK                         _______ _______ _______ _____ _____    ______ ____
ROOT
ATOM      1  C   UNL     1       3.622   2.396  17.888  0.00  0.00    +0.000 C 
ATOM      2  N   UNL     1       4.159   3.638  17.330  0.00  0.00    +0.000 N 
ATOM      3  C   UNL     1       5.063   3.634  16.278  0.00  0.00    +0.000 A 
ATOM      4  C   UNL     1       5.577   4.713  15.668  0.00  0.00    +0.000 A 
ATOM      5  C   UNL     1       5.138   6.033  16.167  0.00  0.00    +0.000 A 
ATOM      6  O   UNL     1       5.617   7.059  15.686  0.00  0.00    +0.000 OA
ATOM      7  C   UNL     1       4.113   6.078  17.234  0.00  0.00    +0.000 A 
ATOM      8  C   UNL     1       3.612   7.324  17.637  0.00  0.00    +0.000 A 
ATOM      9  C   UNL     1       2.633   7.389  18.624  0.00  0.00    +0.000 A 
ATOM     10  C   UNL     1       2.177   6.216  19.217  0.00  0.00    +0.000 A 
ATOM     11  C   UNL     1       2.687   4.973  18.817  0.00  0.00    +0.000 A 
ATOM     12  C   UNL     1       3.652   4.871  17.804  0.00  0.00    +0.000 A 
ENDROOT
BRANCH   4  13
ATOM     13  C   UNL     1       6.515   4.537  14.543  0.00  0.00    +0.000 C 
ATOM     14  O   UNL     1       6.320   3.761  13.619  0.00  0.00    +0.000 OA
BRANCH  13  15
ATOM     15  O   UNL     1       7.620   5.312  14.605  0.00  0.00    +0.000 OA
ATOM     16  H   UNL     1       7.636   6.041  13.937  0.00  0.00    +0.000 HD
ENDBRANCH  13  15
ENDBRANCH   4  13
TORSDOF 2
ENDMDL
MODEL 2
REMARK VINA RESULT:      -6.5      3.731      5.566
REMARK  Name = 
REMARK  3 active torsions:
REMARK  status: ('A' for Active; 'I' for Inactive)
REMARK    1  A    between atoms: C_1  and  N_2
REMARK    2  A    between atoms: C_4  and  C_5
REMARK    3  A    between atoms: C_5  and  O_7
REMARK                            x       y       z     vdW  Elec       q    Type
REMARK                         _______ _______ _______ _____ _____    ______ ____
ROOT
ATOM      1  C   UNL     1       2.252   7.702  19.190  0.00  0.00    +0.000 C 
ATOM      2  N   UNL     1       2.743   6.324  19.215  0.00  0.00    +0.000 N 
ATOM      3  C   UNL     1       2.247   5.390  20.112  0.00  0.00    +0.000 A 
ATOM      4  C   UNL     1       2.597   4.096  20.186  0.00  0.00    +0.000 A 
ATOM      5  C   UNL     1       3.611   3.623  19.221  0.00  0.00    +0.000 A 
ATOM      6  O   UNL     1       4.014   2.462  19.277  0.00  0.00    +0.000 OA
ATOM      7  C   UNL     1       4.105   4.572  18.197  0.00  0.00    +0.000 A 
ATOM      8  C   UNL     1       4.985   4.102  17.211  0.00  0.00    +0.000 A 
ATOM      9  C   UNL     1       5.446   4.971  16.226  0.00  0.00    +0.000 A 
ATOM     10  C   UNL     1       5.046   6.303  16.243  0.00  0.00    +0.000 A 
ATOM     11  C   UNL     1       4.173   6.770  17.236  0.00  0.00    +0.000 A 
ATOM     12  C   UNL     1       3.666   5.913  18.225  0.00  0.00    +0.000 A 
ENDROOT
BRANCH   4  13
ATOM     13  C   UNL     1       1.955   3.223  21.188  0.00  0.00    +0.000 C 
ATOM     14  O   UNL     1       2.536   2.785  22.170  0.00  0.00    +0.000 OA
BRANCH  13  15
ATOM     15  O   UNL     1       0.657   2.941  20.939  0.00  0.00    +0.000 OA
ATOM     16  H   UNL     1       0.060   3.094  21.712  0.00  0.00    +0.000 HD
ENDBRANCH  13  15
ENDBRANCH   4  13
TORSDOF 2
ENDMDL
MODEL 3
REMARK VINA RESULT:      -6.5      0.905      1.210
REMARK  Name = 
REMARK  3 active torsions:
REMARK  status: ('A' for Active; 'I' for Inactive)
REMARK    1  A    between atoms: C_1  and  N_2
REMARK    2  A    between atoms: C_4  and  C_5
REMARK    3  A    between atoms: C_5  and  O_7
REMARK                            x       y       z     vdW  Elec       q    Type
REMARK                         _______ _______ _______ _____ _____    ______ ____
ROOT
ATOM      1  C   UNL     1       4.609   3.207  19.390  0.00  0.00    +0.000 C 
ATOM      2  N   UNL     1       4.764   4.251  18.377  0.00  0.00    +0.000 N 
ATOM      3  C   UNL     1       5.557   4.066  17.255  0.00  0.00    +0.000 A 
ATOM      4  C   UNL     1       5.729   4.939  16.250  0.00  0.00    +0.000 A 
ATOM      5  C   UNL     1       5.005   6.223  16.351  0.00  0.00    +0.000 A 
ATOM      6  O   UNL     1       5.167   7.087  15.490  0.00  0.00    +0.000 OA
ATOM      7  C   UNL     1       4.086   6.425  17.495  0.00  0.00    +0.000 A 
ATOM      8  C   UNL     1       3.313   7.594  17.541  0.00  0.00    +0.000 A 
ATOM      9  C   UNL     1       2.428   7.795  18.595  0.00  0.00    +0.000 A 
ATOM     10  C   UNL     1       2.334   6.843  19.605  0.00  0.00    +0.000 A 
ATOM     11  C   UNL     1       3.115   5.680  19.560  0.00  0.00    +0.000 A 
ATOM     12  C   UNL     1       3.995   5.433  18.495  0.00  0.00    +0.000 A 
ENDROOT
BRANCH   4  13
ATOM     13  C   UNL     1       6.594   4.579  15.110  0.00  0.00    +0.000 C 
ATOM     14  O   UNL     1       7.578   5.226  14.780  0.00  0.00    +0.000 OA
BRANCH  13  15
ATOM     15  O   UNL     1       6.218   3.462  14.449  0.00  0.00    +0.000 OA
ATOM     16  H   UNL     1       6.818   3.218  13.702  0.00  0.00    +0.000 HD
ENDBRANCH  13  15
ENDBRANCH   4  13
TORSDOF 2
ENDMDL
MODEL 4
REMARK VINA RESULT:      -6.5      1.514      3.165
REMARK  Name = 
REMARK  3 active torsions:
REMARK  status: ('A' for Active; 'I' for Inactive)
REMARK    1  A    between atoms: C_1  and  N_2
REMARK    2  A    between atoms: C_4  and  C_5
REMARK    3  A    between atoms: C_5  and  O_7
REMARK                            x       y       z     vdW  Elec       q    Type
REMARK                         _______ _______ _______ _____ _____    ______ ____
ROOT
ATOM      1  C   UNL     1       2.727   7.439  18.298  0.00  0.00    +0.000 C 
ATOM      2  N   UNL     1       3.477   6.334  17.700  0.00  0.00    +0.000 N 
ATOM      3  C   UNL     1       4.716   6.528  17.109  0.00  0.00    +0.000 A 
ATOM      4  C   UNL     1       5.499   5.577  16.576  0.00  0.00    +0.000 A 
ATOM      5  C   UNL     1       4.991   4.191  16.621  0.00  0.00    +0.000 A 
ATOM      6  O   UNL     1       5.637   3.284  16.098  0.00  0.00    +0.000 OA
ATOM      7  C   UNL     1       3.708   3.933  17.315  0.00  0.00    +0.000 A 
ATOM      8  C   UNL     1       3.272   2.609  17.458  0.00  0.00    +0.000 A 
ATOM      9  C   UNL     1       2.081   2.341  18.125  0.00  0.00    +0.000 A 
ATOM     10  C   UNL     1       1.322   3.394  18.625  0.00  0.00    +0.000 A 
ATOM     11  C   UNL     1       1.757   4.718  18.472  0.00  0.00    +0.000 A 
ATOM     12  C   UNL     1       2.969   5.019  17.832  0.00  0.00    +0.000 A 
ENDROOT
BRANCH   4  13
ATOM     13  C   UNL     1       6.808   5.947  16.003  0.00  0.00    +0.000 C 
ATOM     14  O   UNL     1       7.622   6.652  16.584  0.00  0.00    +0.000 OA
BRANCH  13  15
ATOM     15  O   UNL     1       7.048   5.439  14.775  0.00  0.00    +0.000 OA
ATOM     16  H   UNL     1       6.658   4.542  14.630  0.00  0.00    +0.000 HD
ENDBRANCH  13  15
ENDBRANCH   4  13
TORSDOF 2
ENDMDL
MODEL 5
REMARK VINA RESULT:      -6.5      3.446      5.320
REMARK  Name = 
REMARK  3 active torsions:
REMARK  status: ('A' for Active; 'I' for Inactive)
REMARK    1  A    between atoms: C_1  and  N_2
REMARK    2  A    between atoms: C_4  and  C_5
REMARK    3  A    between atoms: C_5  and  O_7
REMARK                            x       y       z     vdW  Elec       q    Type
REMARK                         _______ _______ _______ _____ _____    ______ ____
ROOT
ATOM      1  C   UNL     1       2.572   7.499  18.665  0.00  0.00    +0.000 C 
ATOM      2  N   UNL     1       2.783   6.068  18.446  0.00  0.00    +0.000 N 
ATOM      3  C   UNL     1       1.978   5.112  19.046  0.00  0.00    +0.000 A 
ATOM      4  C   UNL     1       2.061   3.783  18.875  0.00  0.00    +0.000 A 
ATOM      5  C   UNL     1       3.113   3.292  17.961  0.00  0.00    +0.000 A 
ATOM      6  O   UNL     1       3.275   2.082  17.808  0.00  0.00    +0.000 OA
ATOM      7  C   UNL     1       3.940   4.287  17.240  0.00  0.00    +0.000 A 
ATOM      8  C   UNL     1       4.866   3.834  16.290  0.00  0.00    +0.000 A 
ATOM      9  C   UNL     1       5.638   4.751  15.586  0.00  0.00    +0.000 A 
ATOM     10  C   UNL     1       5.500   6.110  15.848  0.00  0.00    +0.000 A 
ATOM     11  C   UNL     1       4.579   6.559  16.805  0.00  0.00    +0.000 A 
ATOM     12  C   UNL     1       3.763   5.661  17.510  0.00  0.00    +0.000 A 
ENDROOT
BRANCH   4  13
ATOM     13  C   UNL     1       1.109   2.897  19.573  0.00  0.00    +0.000 C 
ATOM     14  O   UNL     1       1.025   2.825  20.791  0.00  0.00    +0.000 OA
BRANCH  13  15
ATOM     15  O   UNL     1       0.321   2.164  18.756  0.00  0.00    +0.000 OA
ATOM     16  H   UNL     1      -0.630   2.147  19.027  0.00  0.00    +0.000 HD
ENDBRANCH  13  15
ENDBRANCH   4  13
TORSDOF 2
ENDMDL
MODEL 6
REMARK VINA RESULT:      -6.4      1.914      3.617
REMARK  Name = 
REMARK  3 active torsions:
REMARK  status: ('A' for Active; 'I' for Inactive)
REMARK    1  A    between atoms: C_1  and  N_2
REMARK    2  A    between atoms: C_4  and  C_5
REMARK    3  A    between atoms: C_5  and  O_7
REMARK                            x       y       z     vdW  Elec       q    Type
REMARK                         _______ _______ _______ _____ _____    ______ ____
ROOT
ATOM      1  C   UNL     1       2.043   7.191  20.050  0.00  0.00    +0.000 C 
ATOM      2  N   UNL     1       2.650   6.310  19.051  0.00  0.00    +0.000 N 
ATOM      3  C   UNL     1       3.661   6.748  18.211  0.00  0.00    +0.000 A 
ATOM      4  C   UNL     1       4.311   6.009  17.297  0.00  0.00    +0.000 A 
ATOM      5  C   UNL     1       3.906   4.593  17.174  0.00  0.00    +0.000 A 
ATOM      6  O   UNL     1       4.425   3.881  16.316  0.00  0.00    +0.000 OA
ATOM      7  C   UNL     1       2.885   4.069  18.110  0.00  0.00    +0.000 A 
ATOM      8  C   UNL     1       2.574   2.703  18.073  0.00  0.00    +0.000 A 
ATOM      9  C   UNL     1       1.633   2.184  18.956  0.00  0.00    +0.000 A 
ATOM     10  C   UNL     1       0.993   3.032  19.854  0.00  0.00    +0.000 A 
ATOM     11  C   UNL     1       1.301   4.399  19.882  0.00  0.00    +0.000 A 
ATOM     12  C   UNL     1       2.267   4.948  19.025  0.00  0.00    +0.000 A 
ENDROOT
BRANCH   4  13
ATOM     13  C   UNL     1       5.386   6.623  16.493  0.00  0.00    +0.000 C 
ATOM     14  O   UNL     1       6.366   7.166  16.982  0.00  0.00    +0.000 OA
BRANCH  13  15
ATOM     15  O   UNL     1       5.208   6.535  15.156  0.00  0.00    +0.000 OA
ATOM     16  H   UNL     1       5.722   7.205  14.640  0.00  0.00    +0.000 HD
ENDBRANCH  13  15
ENDBRANCH   4  13
TORSDOF 2
ENDMDL
MODEL 7
REMARK VINA RESULT:      -6.4      1.319      1.957
REMARK  Name = 
REMARK  3 active torsions:
REMARK  status: ('A' for Active; 'I' for Inactive)
REMARK    1  A    between atoms: C_1  and  N_2
REMARK    2  A    between atoms: C_4  and  C_5
REMARK    3  A    between atoms: C_5  and  O_7
REMARK                            x       y       z     vdW  Elec       q    Type
REMARK                         _______ _______ _______ _____ _____    ______ ____
ROOT
ATOM      1  C   UNL     1       3.541   1.661  18.078  0.00  0.00    +0.000 C 
ATOM      2  N   UNL     1       3.751   3.106  17.988  0.00  0.00    +0.000 N 
ATOM      3  C   UNL     1       4.526   3.670  16.985  0.00  0.00    +0.000 A 
ATOM      4  C   UNL     1       4.743   4.980  16.790  0.00  0.00    +0.000 A 
ATOM      5  C   UNL     1       4.096   5.911  17.738  0.00  0.00    +0.000 A 
ATOM      6  O   UNL     1       4.303   7.120  17.645  0.00  0.00    +0.000 OA
ATOM      7  C   UNL     1       3.197   5.351  18.773  0.00  0.00    +0.000 A 
ATOM      8  C   UNL     1       2.495   6.234  19.606  0.00  0.00    +0.000 A 
ATOM      9  C   UNL     1       1.630   5.731  20.572  0.00  0.00    +0.000 A 
ATOM     10  C   UNL     1       1.486   4.355  20.717  0.00  0.00    +0.000 A 
ATOM     11  C   UNL     1       2.197   3.476  19.888  0.00  0.00    +0.000 A 
ATOM     12  C   UNL     1       3.054   3.952  18.883  0.00  0.00    +0.000 A 
ENDROOT
BRANCH   4  13
ATOM     13  C   UNL     1       5.578   5.420  15.656  0.00  0.00    +0.000 C 
ATOM     14  O   UNL     1       6.519   4.772  15.222  0.00  0.00    +0.000 OA
BRANCH  13  15
ATOM     15  O   UNL     1       5.218   6.607  15.120  0.00  0.00    +0.000 OA
ATOM     16  H   UNL     1       4.762   6.529  14.246  0.00  0.00    +0.000 HD
ENDBRANCH  13  15
ENDBRANCH   4  13
TORSDOF 2
ENDMDL
MODEL 8
REMARK VINA RESULT:      -6.2      3.710      5.416
REMARK  Name = 
REMARK  3 active torsions:
REMARK  status: ('A' for Active; 'I' for Inactive)
REMARK    1  A    between atoms: C_1  and  N_2
REMARK    2  A    between atoms: C_4  and  C_5
REMARK    3  A    between atoms: C_5  and  O_7
REMARK                            x       y       z     vdW  Elec       q    Type
REMARK                         _______ _______ _______ _____ _____    ______ ____
ROOT
ATOM      1  C   UNL     1       2.459   7.430  18.413  0.00  0.00    +0.000 C 
ATOM      2  N   UNL     1       3.119   6.185  18.804  0.00  0.00    +0.000 N 
ATOM      3  C   UNL     1       2.493   5.250  19.614  0.00  0.00    +0.000 A 
ATOM      4  C   UNL     1       2.993   4.063  19.991  0.00  0.00    +0.000 A 
ATOM      5  C   UNL     1       4.343   3.721  19.498  0.00  0.00    +0.000 A 
ATOM      6  O   UNL     1       4.878   2.672  19.855  0.00  0.00    +0.000 OA
ATOM      7  C   UNL     1       5.011   4.658  18.566  0.00  0.00    +0.000 A 
ATOM      8  C   UNL     1       6.243   4.292  18.008  0.00  0.00    +0.000 A 
ATOM      9  C   UNL     1       6.879   5.148  17.114  0.00  0.00    +0.000 A 
ATOM     10  C   UNL     1       6.295   6.370  16.800  0.00  0.00    +0.000 A 
ATOM     11  C   UNL     1       5.066   6.737  17.367  0.00  0.00    +0.000 A 
ATOM     12  C   UNL     1       4.385   5.883  18.248  0.00  0.00    +0.000 A 
ENDROOT
BRANCH   4  13
ATOM     13  C   UNL     1       2.185   3.167  20.842  0.00  0.00    +0.000 C 
ATOM     14  O   UNL     1       1.029   2.861  20.588  0.00  0.00    +0.000 OA
BRANCH  13  15
ATOM     15  O   UNL     1       2.826   2.699  21.935  0.00  0.00    +0.000 OA
ATOM     16  H   UNL     1       2.556   3.142  22.777  0.00  0.00    +0.000 HD
ENDBRANCH  13  15
ENDBRANCH   4  13
TORSDOF 2
ENDMDL
MODEL 9
REMARK VINA RESULT:      -6.1      2.911      3.915
REMARK  Name = 
REMARK  3 active torsions:
REMARK  status: ('A' for Active; 'I' for Inactive)
REMARK    1  A    between atoms: C_1  and  N_2
REMARK    2  A    between atoms: C_4  and  C_5
REMARK    3  A    between atoms: C_5  and  O_7
REMARK                            x       y       z     vdW  Elec       q    Type
REMARK                         _______ _______ _______ _____ _____    ______ ____
ROOT
ATOM      1  C   UNL     1       5.361   4.441  14.697  0.00  0.00    +0.000 C 
ATOM      2  N   UNL     1       5.696   4.686  16.101  0.00  0.00    +0.000 N 
ATOM      3  C   UNL     1       6.556   5.706  16.477  0.00  0.00    +0.000 A 
ATOM      4  C   UNL     1       6.891   6.040  17.734  0.00  0.00    +0.000 A 
ATOM      5  C   UNL     1       6.286   5.241  18.820  0.00  0.00    +0.000 A 
ATOM      6  O   UNL     1       6.598   5.463  19.989  0.00  0.00    +0.000 OA
ATOM      7  C   UNL     1       5.300   4.196  18.460  0.00  0.00    +0.000 A 
ATOM      8  C   UNL     1       4.640   3.509  19.488  0.00  0.00    +0.000 A 
ATOM      9  C   UNL     1       3.695   2.537  19.174  0.00  0.00    +0.000 A 
ATOM     10  C   UNL     1       3.430   2.242  17.841  0.00  0.00    +0.000 A 
ATOM     11  C   UNL     1       4.099   2.926  16.815  0.00  0.00    +0.000 A 
ATOM     12  C   UNL     1       5.035   3.933  17.099  0.00  0.00    +0.000 A 
ENDROOT
BRANCH   4  13
ATOM     13  C   UNL     1       7.807   7.173  17.968  0.00  0.00    +0.000 C 
ATOM     14  O   UNL     1       7.882   8.143  17.227  0.00  0.00    +0.000 OA
BRANCH  13  15
ATOM     15  O   UNL     1       8.566   7.061  19.081  0.00  0.00    +0.000 OA
ATOM     16  H   UNL     1       8.844   6.134  19.284  0.00  0.00    +0.000 HD
ENDBRANCH  13  15
ENDBRANCH   4  13
TORSDOF 2
ENDMDL
