MODEL 1
REMARK VINA RESULT:      -9.5      0.000      0.000
REMARK  Name = 
REMARK  4 active torsions:
REMARK  status: ('A' for Active; 'I' for Inactive)
REMARK    1  A    between atoms: C_4  and  C_5
REMARK    2  A    between atoms: C_5  and  C_6
REMARK    3  A    between atoms: N_9  and  C_10
REMARK    4  A    between atoms: C_10  and  C_11
REMARK                            x       y       z     vdW  Elec       q    Type
REMARK                         _______ _______ _______ _____ _____    ______ ____
ROOT
ATOM      1  C   UNL     1       2.944   5.630  18.769  0.00  0.00    +0.000 A 
ATOM      2  C   UNL     1       2.292   6.079  19.939  0.00  0.00    +0.000 A 
ATOM      3  C   UNL     1       2.049   7.413  19.732  0.00  0.00    +0.000 A 
ATOM      4  N   UNL     1       2.568   7.707  18.503  0.00  0.00    +0.000 N 
ATOM      5  N   UNL     1       3.079   6.621  17.873  0.00  0.00    +0.000 NA
ENDROOT
BRANCH   1   6
ATOM      6  C   UNL     1       3.372   4.245  18.431  0.00  0.00    +0.000 C 
BRANCH   6  10
ATOM      7  N   UNL     1       6.332   3.725  14.481  0.00  0.00    +0.000 N 
ATOM      8  C   UNL     1       6.187   4.024  15.834  0.00  0.00    +0.000 A 
ATOM      9  C   UNL     1       4.908   4.022  16.406  0.00  0.00    +0.000 A 
ATOM     10  C   UNL     1       4.717   4.341  17.770  0.00  0.00    +0.000 A 
ATOM     11  C   UNL     1       5.879   4.712  18.459  0.00  0.00    +0.000 A 
ATOM     12  N   UNL     1       6.100   5.104  19.753  0.00  0.00    +0.000 NA
ATOM     13  N   UNL     1       7.397   5.358  19.894  0.00  0.00    +0.000 NA
ATOM     14  N   UNL     1       7.984   5.116  18.707  0.00  0.00    +0.000 N 
ATOM     15  C   UNL     1       7.082   4.699  17.775  0.00  0.00    +0.000 A 
ATOM     16  N   UNL     1       7.313   4.359  16.492  0.00  0.00    +0.000 NA
ATOM     17  H   UNL     1       5.843   2.878  14.210  0.00  0.00    +0.000 HD
ATOM     18  H   UNL     1       7.326   3.684  14.277  0.00  0.00    +0.000 HD
ATOM     19  H   UNL     1       8.980   5.254  18.602  0.00  0.00    +0.000 HD
ENDBRANCH   6  10
ENDBRANCH   1   6
BRANCH   4  20
ATOM     20  C   UNL     1       2.540   8.996  17.819  0.00  0.00    +0.000 C 
BRANCH  20  21
ATOM     21  C   UNL     1       1.271   9.766  18.107  0.00  0.00    +0.000 A 
ATOM     22  C   UNL     1       1.271  10.811  19.040  0.00  0.00    +0.000 A 
ATOM     23  C   UNL     1       0.089  11.476  19.365  0.00  0.00    +0.000 A 
ATOM     24  C   UNL     1      -1.122  11.115  18.762  0.00  0.00    +0.000 A 
ATOM     25  C   UNL     1      -2.332  11.706  19.158  0.00  0.00    +0.000 A 
ATOM     26  C   UNL     1      -3.537  11.324  18.570  0.00  0.00    +0.000 A 
ATOM     27  C   UNL     1      -3.543  10.385  17.542  0.00  0.00    +0.000 A 
ATOM     28  C   UNL     1      -2.344   9.794  17.132  0.00  0.00    +0.000 A 
ATOM     29  C   UNL     1      -1.129  10.119  17.761  0.00  0.00    +0.000 A 
ATOM     30  C   UNL     1       0.072   9.458  17.442  0.00  0.00    +0.000 A 
ENDBRANCH  20  21
ENDBRANCH   4  20
TORSDOF 4
ENDMDL
MODEL 2
REMARK VINA RESULT:      -9.3      0.702      1.737
REMARK  Name = 
REMARK  4 active torsions:
REMARK  status: ('A' for Active; 'I' for Inactive)
REMARK    1  A    between atoms: C_4  and  C_5
REMARK    2  A    between atoms: C_5  and  C_6
REMARK    3  A    between atoms: N_9  and  C_10
REMARK    4  A    between atoms: C_10  and  C_11
REMARK                            x       y       z     vdW  Elec       q    Type
REMARK                         _______ _______ _______ _____ _____    ______ ____
ROOT
ATOM      1  C   UNL     1       2.939   5.641  18.707  0.00  0.00    +0.000 A 
ATOM      2  C   UNL     1       2.447   6.067  19.960  0.00  0.00    +0.000 A 
ATOM      3  C   UNL     1       2.139   7.393  19.800  0.00  0.00    +0.000 A 
ATOM      4  N   UNL     1       2.472   7.707  18.513  0.00  0.00    +0.000 N 
ATOM      5  N   UNL     1       2.918   6.639  17.808  0.00  0.00    +0.000 NA
ENDROOT
BRANCH   1   6
ATOM      6  C   UNL     1       3.354   4.270  18.301  0.00  0.00    +0.000 C 
BRANCH   6  10
ATOM      7  N   UNL     1       6.420   3.846  14.421  0.00  0.00    +0.000 N 
ATOM      8  C   UNL     1       6.238   4.110  15.777  0.00  0.00    +0.000 A 
ATOM      9  C   UNL     1       4.944   4.096  16.314  0.00  0.00    +0.000 A 
ATOM     10  C   UNL     1       4.716   4.380  17.680  0.00  0.00    +0.000 A 
ATOM     11  C   UNL     1       5.859   4.730  18.409  0.00  0.00    +0.000 A 
ATOM     12  N   UNL     1       6.046   5.088  19.719  0.00  0.00    +0.000 NA
ATOM     13  N   UNL     1       7.339   5.334  19.902  0.00  0.00    +0.000 NA
ATOM     14  N   UNL     1       7.958   5.122  18.725  0.00  0.00    +0.000 N 
ATOM     15  C   UNL     1       7.081   4.732  17.758  0.00  0.00    +0.000 A 
ATOM     16  N   UNL     1       7.346   4.425  16.474  0.00  0.00    +0.000 NA
ATOM     17  H   UNL     1       5.937   3.008  14.115  0.00  0.00    +0.000 HD
ATOM     18  H   UNL     1       7.419   3.808  14.243  0.00  0.00    +0.000 HD
ATOM     19  H   UNL     1       8.957   5.261  18.651  0.00  0.00    +0.000 HD
ENDBRANCH   6  10
ENDBRANCH   1   6
BRANCH   4  20
ATOM     20  C   UNL     1       2.311   8.997  17.849  0.00  0.00    +0.000 C 
BRANCH  20  21
ATOM     21  C   UNL     1       1.056   9.714  18.294  0.00  0.00    +0.000 A 
ATOM     22  C   UNL     1      -0.167   9.466  17.656  0.00  0.00    +0.000 A 
ATOM     23  C   UNL     1      -1.313  10.177  18.013  0.00  0.00    +0.000 A 
ATOM     24  C   UNL     1      -1.265  11.151  19.017  0.00  0.00    +0.000 A 
ATOM     25  C   UNL     1      -2.386  11.943  19.310  0.00  0.00    +0.000 A 
ATOM     26  C   UNL     1      -2.324  12.929  20.295  0.00  0.00    +0.000 A 
ATOM     27  C   UNL     1      -1.158  13.097  21.037  0.00  0.00    +0.000 A 
ATOM     28  C   UNL     1      -0.037  12.309  20.762  0.00  0.00    +0.000 A 
ATOM     29  C   UNL     1      -0.062  11.359  19.726  0.00  0.00    +0.000 A 
ATOM     30  C   UNL     1       1.086  10.632  19.357  0.00  0.00    +0.000 A 
ENDBRANCH  20  21
ENDBRANCH   4  20
TORSDOF 4
ENDMDL
MODEL 3
REMARK VINA RESULT:      -9.0      1.896      3.253
REMARK  Name = 
REMARK  4 active torsions:
REMARK  status: ('A' for Active; 'I' for Inactive)
REMARK    1  A    between atoms: C_4  and  C_5
REMARK    2  A    between atoms: C_5  and  C_6
REMARK    3  A    between atoms: N_9  and  C_10
REMARK    4  A    between atoms: C_10  and  C_11
REMARK                            x       y       z     vdW  Elec       q    Type
REMARK                         _______ _______ _______ _____ _____    ______ ____
ROOT
ATOM      1  C   UNL     1       2.059   7.348  19.541  0.00  0.00    +0.000 A 
ATOM      2  C   UNL     1       2.503   7.345  18.200  0.00  0.00    +0.000 A 
ATOM      3  C   UNL     1       2.185   8.584  17.707  0.00  0.00    +0.000 A 
ATOM      4  N   UNL     1       1.561   9.248  18.725  0.00  0.00    +0.000 N 
ATOM      5  N   UNL     1       1.515   8.530  19.874  0.00  0.00    +0.000 NA
ENDROOT
BRANCH   1   6
ATOM      6  C   UNL     1       2.216   6.276  20.563  0.00  0.00    +0.000 C 
BRANCH   6  10
ATOM      7  N   UNL     1       1.020   1.917  18.513  0.00  0.00    +0.000 N 
ATOM      8  C   UNL     1       2.001   2.836  18.880  0.00  0.00    +0.000 A 
ATOM      9  C   UNL     1       1.623   4.049  19.470  0.00  0.00    +0.000 A 
ATOM     10  C   UNL     1       2.586   5.016  19.836  0.00  0.00    +0.000 A 
ATOM     11  C   UNL     1       3.908   4.688  19.507  0.00  0.00    +0.000 A 
ATOM     12  N   UNL     1       5.094   5.354  19.671  0.00  0.00    +0.000 NA
ATOM     13  N   UNL     1       6.066   4.600  19.169  0.00  0.00    +0.000 NA
ATOM     14  N   UNL     1       5.500   3.470  18.707  0.00  0.00    +0.000 N 
ATOM     15  C   UNL     1       4.152   3.466  18.902  0.00  0.00    +0.000 A 
ATOM     16  N   UNL     1       3.270   2.502  18.578  0.00  0.00    +0.000 NA
ATOM     17  H   UNL     1       0.351   1.738  19.255  0.00  0.00    +0.000 HD
ATOM     18  H   UNL     1       1.487   1.074  18.196  0.00  0.00    +0.000 HD
ATOM     19  H   UNL     1       6.076   2.759  18.278  0.00  0.00    +0.000 HD
ENDBRANCH   6  10
ENDBRANCH   1   6
BRANCH   4  20
ATOM     20  C   UNL     1       1.052  10.616  18.705  0.00  0.00    +0.000 C 
BRANCH  20  21
ATOM     21  C   UNL     1      -0.446  10.663  18.501  0.00  0.00    +0.000 A 
ATOM     22  C   UNL     1      -1.051   9.879  17.510  0.00  0.00    +0.000 A 
ATOM     23  C   UNL     1      -2.422   9.971  17.266  0.00  0.00    +0.000 A 
ATOM     24  C   UNL     1      -3.221  10.849  18.009  0.00  0.00    +0.000 A 
ATOM     25  C   UNL     1      -4.579  11.026  17.702  0.00  0.00    +0.000 A 
ATOM     26  C   UNL     1      -5.363  11.920  18.431  0.00  0.00    +0.000 A 
ATOM     27  C   UNL     1      -4.813  12.608  19.509  0.00  0.00    +0.000 A 
ATOM     28  C   UNL     1      -3.464  12.434  19.832  0.00  0.00    +0.000 A 
ATOM     29  C   UNL     1      -2.643  11.589  19.065  0.00  0.00    +0.000 A 
ATOM     30  C   UNL     1      -1.259  11.482  19.301  0.00  0.00    +0.000 A 
ENDBRANCH  20  21
ENDBRANCH   4  20
TORSDOF 4
ENDMDL
MODEL 4
REMARK VINA RESULT:      -9.0      1.984      3.004
REMARK  Name = 
REMARK  4 active torsions:
REMARK  status: ('A' for Active; 'I' for Inactive)
REMARK    1  A    between atoms: C_4  and  C_5
REMARK    2  A    between atoms: C_5  and  C_6
REMARK    3  A    between atoms: N_9  and  C_10
REMARK    4  A    between atoms: C_10  and  C_11
REMARK                            x       y       z     vdW  Elec       q    Type
REMARK                         _______ _______ _______ _____ _____    ______ ____
ROOT
ATOM      1  C   UNL     1       2.131   7.608  19.135  0.00  0.00    +0.000 A 
ATOM      2  C   UNL     1       1.835   7.049  20.398  0.00  0.00    +0.000 A 
ATOM      3  C   UNL     1       1.273   8.066  21.125  0.00  0.00    +0.000 A 
ATOM      4  N   UNL     1       1.277   9.162  20.309  0.00  0.00    +0.000 N 
ATOM      5  N   UNL     1       1.753   8.895  19.068  0.00  0.00    +0.000 NA
ENDROOT
BRANCH   1   6
ATOM      6  C   UNL     1       2.690   6.924  17.936  0.00  0.00    +0.000 C 
BRANCH   6  10
ATOM      7  N   UNL     1       0.746   2.406  18.597  0.00  0.00    +0.000 N 
ATOM      8  C   UNL     1       1.852   3.252  18.660  0.00  0.00    +0.000 A 
ATOM      9  C   UNL     1       1.723   4.585  18.246  0.00  0.00    +0.000 A 
ATOM     10  C   UNL     1       2.826   5.468  18.274  0.00  0.00    +0.000 A 
ATOM     11  C   UNL     1       4.037   4.890  18.678  0.00  0.00    +0.000 A 
ATOM     12  N   UNL     1       5.304   5.396  18.811  0.00  0.00    +0.000 NA
ATOM     13  N   UNL     1       6.101   4.415  19.220  0.00  0.00    +0.000 NA
ATOM     14  N   UNL     1       5.343   3.311  19.355  0.00  0.00    +0.000 N 
ATOM     15  C   UNL     1       4.040   3.553  19.039  0.00  0.00    +0.000 A 
ATOM     16  N   UNL     1       3.006   2.692  19.069  0.00  0.00    +0.000 NA
ATOM     17  H   UNL     1      -0.084   2.811  19.017  0.00  0.00    +0.000 HD
ATOM     18  H   UNL     1       1.007   1.522  19.022  0.00  0.00    +0.000 HD
ATOM     19  H   UNL     1       5.767   2.445  19.657  0.00  0.00    +0.000 HD
ENDBRANCH   6  10
ENDBRANCH   1   6
BRANCH   4  20
ATOM     20  C   UNL     1       0.760  10.493  20.616  0.00  0.00    +0.000 C 
BRANCH  20  21
ATOM     21  C   UNL     1      -0.432  10.852  19.758  0.00  0.00    +0.000 A 
ATOM     22  C   UNL     1      -1.333  11.841  20.174  0.00  0.00    +0.000 A 
ATOM     23  C   UNL     1      -2.474  12.127  19.425  0.00  0.00    +0.000 A 
ATOM     24  C   UNL     1      -2.742  11.431  18.240  0.00  0.00    +0.000 A 
ATOM     25  C   UNL     1      -3.938  11.636  17.535  0.00  0.00    +0.000 A 
ATOM     26  C   UNL     1      -4.209  10.921  16.368  0.00  0.00    +0.000 A 
ATOM     27  C   UNL     1      -3.265  10.033  15.862  0.00  0.00    +0.000 A 
ATOM     28  C   UNL     1      -2.065   9.825  16.549  0.00  0.00    +0.000 A 
ATOM     29  C   UNL     1      -1.806  10.486  17.763  0.00  0.00    +0.000 A 
ATOM     30  C   UNL     1      -0.657  10.212  18.528  0.00  0.00    +0.000 A 
ENDBRANCH  20  21
ENDBRANCH   4  20
TORSDOF 4
ENDMDL
MODEL 5
REMARK VINA RESULT:      -8.9      1.706      2.334
REMARK  Name = 
REMARK  4 active torsions:
REMARK  status: ('A' for Active; 'I' for Inactive)
REMARK    1  A    between atoms: C_4  and  C_5
REMARK    2  A    between atoms: C_5  and  C_6
REMARK    3  A    between atoms: N_9  and  C_10
REMARK    4  A    between atoms: C_10  and  C_11
REMARK                            x       y       z     vdW  Elec       q    Type
REMARK                         _______ _______ _______ _____ _____    ______ ____
ROOT
ATOM      1  C   UNL     1       3.012   4.895  18.644  0.00  0.00    +0.000 A 
ATOM      2  C   UNL     1       2.436   4.883  19.934  0.00  0.00    +0.000 A 
ATOM      3  C   UNL     1       1.983   6.160  20.143  0.00  0.00    +0.000 A 
ATOM      4  N   UNL     1       2.316   6.869  19.024  0.00  0.00    +0.000 N 
ATOM      5  N   UNL     1       2.904   6.105  18.070  0.00  0.00    +0.000 NA
ENDROOT
BRANCH   1   6
ATOM      6  C   UNL     1       3.594   3.752  17.887  0.00  0.00    +0.000 C 
BRANCH   6  10
ATOM      7  N   UNL     1       6.865   4.480  14.227  0.00  0.00    +0.000 N 
ATOM      8  C   UNL     1       6.577   4.483  15.590  0.00  0.00    +0.000 A 
ATOM      9  C   UNL     1       5.281   4.170  16.021  0.00  0.00    +0.000 A 
ATOM     10  C   UNL     1       4.944   4.184  17.393  0.00  0.00    +0.000 A 
ATOM     11  C   UNL     1       5.974   4.591  18.251  0.00  0.00    +0.000 A 
ATOM     12  N   UNL     1       6.034   4.753  19.611  0.00  0.00    +0.000 NA
ATOM     13  N   UNL     1       7.255   5.173  19.924  0.00  0.00    +0.000 NA
ATOM     14  N   UNL     1       7.956   5.262  18.778  0.00  0.00    +0.000 N 
ATOM     15  C   UNL     1       7.206   4.899  17.700  0.00  0.00    +0.000 A 
ATOM     16  N   UNL     1       7.580   4.855  16.408  0.00  0.00    +0.000 NA
ATOM     17  H   UNL     1       6.549   3.636  13.760  0.00  0.00    +0.000 HD
ATOM     18  H   UNL     1       7.862   4.635  14.119  0.00  0.00    +0.000 HD
ATOM     19  H   UNL     1       8.918   5.571  18.801  0.00  0.00    +0.000 HD
ENDBRANCH   6  10
ENDBRANCH   1   6
BRANCH   4  20
ATOM     20  C   UNL     1       2.028   8.274  18.751  0.00  0.00    +0.000 C 
BRANCH  20  21
ATOM     21  C   UNL     1       1.324   8.946  19.908  0.00  0.00    +0.000 A 
ATOM     22  C   UNL     1       1.529   8.497  21.220  0.00  0.00    +0.000 A 
ATOM     23  C   UNL     1       0.827   9.064  22.284  0.00  0.00    +0.000 A 
ATOM     24  C   UNL     1      -0.095  10.094  22.064  0.00  0.00    +0.000 A 
ATOM     25  C   UNL     1      -0.880  10.599  23.111  0.00  0.00    +0.000 A 
ATOM     26  C   UNL     1      -1.814  11.608  22.879  0.00  0.00    +0.000 A 
ATOM     27  C   UNL     1      -1.935  12.164  21.609  0.00  0.00    +0.000 A 
ATOM     28  C   UNL     1      -1.153  11.678  20.558  0.00  0.00    +0.000 A 
ATOM     29  C   UNL     1      -0.256  10.614  20.760  0.00  0.00    +0.000 A 
ATOM     30  C   UNL     1       0.461  10.034  19.696  0.00  0.00    +0.000 A 
ENDBRANCH  20  21
ENDBRANCH   4  20
TORSDOF 4
ENDMDL
MODEL 6
REMARK VINA RESULT:      -8.9      1.032      2.803
REMARK  Name = 
REMARK  4 active torsions:
REMARK  status: ('A' for Active; 'I' for Inactive)
REMARK    1  A    between atoms: C_4  and  C_5
REMARK    2  A    between atoms: C_5  and  C_6
REMARK    3  A    between atoms: N_9  and  C_10
REMARK    4  A    between atoms: C_10  and  C_11
REMARK                            x       y       z     vdW  Elec       q    Type
REMARK                         _______ _______ _______ _____ _____    ______ ____
ROOT
ATOM      1  C   UNL     1       2.967   5.945  18.653  0.00  0.00    +0.000 A 
ATOM      2  C   UNL     1       2.371   6.265  19.893  0.00  0.00    +0.000 A 
ATOM      3  C   UNL     1       1.995   7.579  19.790  0.00  0.00    +0.000 A 
ATOM      4  N   UNL     1       2.390   7.990  18.548  0.00  0.00    +0.000 N 
ATOM      5  N   UNL     1       2.945   6.994  17.814  0.00  0.00    +0.000 NA
ENDROOT
BRANCH   1   6
ATOM      6  C   UNL     1       3.488   4.627  18.197  0.00  0.00    +0.000 C 
BRANCH   6  10
ATOM      7  N   UNL     1       8.006   5.597  20.009  0.00  0.00    +0.000 N 
ATOM      8  C   UNL     1       7.195   5.308  18.914  0.00  0.00    +0.000 A 
ATOM      9  C   UNL     1       5.826   5.085  19.111  0.00  0.00    +0.000 A 
ATOM     10  C   UNL     1       4.973   4.768  18.028  0.00  0.00    +0.000 A 
ATOM     11  C   UNL     1       5.615   4.637  16.790  0.00  0.00    +0.000 A 
ATOM     12  N   UNL     1       5.152   4.324  15.538  0.00  0.00    +0.000 NA
ATOM     13  N   UNL     1       6.186   4.321  14.703  0.00  0.00    +0.000 NA
ATOM     14  N   UNL     1       7.280   4.639  15.418  0.00  0.00    +0.000 N 
ATOM     15  C   UNL     1       6.980   4.858  16.729  0.00  0.00    +0.000 A 
ATOM     16  N   UNL     1       7.817   5.205  17.725  0.00  0.00    +0.000 NA
ATOM     17  H   UNL     1       7.626   6.330  20.598  0.00  0.00    +0.000 HD
ATOM     18  H   UNL     1       8.933   5.817  19.660  0.00  0.00    +0.000 HD
ATOM     19  H   UNL     1       8.182   4.687  14.962  0.00  0.00    +0.000 HD
ENDBRANCH   6  10
ENDBRANCH   1   6
BRANCH   4  20
ATOM     20  C   UNL     1       2.195   9.308  17.951  0.00  0.00    +0.000 C 
BRANCH  20  21
ATOM     21  C   UNL     1       0.918   9.964  18.425  0.00  0.00    +0.000 A 
ATOM     22  C   UNL     1      -0.300   9.690  17.789  0.00  0.00    +0.000 A 
ATOM     23  C   UNL     1      -1.468  10.347  18.173  0.00  0.00    +0.000 A 
ATOM     24  C   UNL     1      -1.449  11.293  19.204  0.00  0.00    +0.000 A 
ATOM     25  C   UNL     1      -2.596  12.034  19.528  0.00  0.00    +0.000 A 
ATOM     26  C   UNL     1      -2.562  12.993  20.540  0.00  0.00    +0.000 A 
ATOM     27  C   UNL     1      -1.398  13.184  21.279  0.00  0.00    +0.000 A 
ATOM     28  C   UNL     1      -0.251  12.446  20.973  0.00  0.00    +0.000 A 
ATOM     29  C   UNL     1      -0.248  11.525  19.911  0.00  0.00    +0.000 A 
ATOM     30  C   UNL     1       0.923  10.852  19.514  0.00  0.00    +0.000 A 
ENDBRANCH  20  21
ENDBRANCH   4  20
TORSDOF 4
ENDMDL
MODEL 7
REMARK VINA RESULT:      -8.8      1.974      3.583
REMARK  Name = 
REMARK  4 active torsions:
REMARK  status: ('A' for Active; 'I' for Inactive)
REMARK    1  A    between atoms: C_4  and  C_5
REMARK    2  A    between atoms: C_5  and  C_6
REMARK    3  A    between atoms: N_9  and  C_10
REMARK    4  A    between atoms: C_10  and  C_11
REMARK                            x       y       z     vdW  Elec       q    Type
REMARK                         _______ _______ _______ _____ _____    ______ ____
ROOT
ATOM      1  C   UNL     1       2.054   7.295  19.494  0.00  0.00    +0.000 A 
ATOM      2  C   UNL     1       2.505   7.391  18.159  0.00  0.00    +0.000 A 
ATOM      3  C   UNL     1       2.180   8.660  17.753  0.00  0.00    +0.000 A 
ATOM      4  N   UNL     1       1.546   9.245  18.812  0.00  0.00    +0.000 N 
ATOM      5  N   UNL     1       1.499   8.447  19.907  0.00  0.00    +0.000 NA
ENDROOT
BRANCH   1   6
ATOM      6  C   UNL     1       2.214   6.155  20.438  0.00  0.00    +0.000 C 
BRANCH   6  10
ATOM      7  N   UNL     1       6.319   4.134  18.517  0.00  0.00    +0.000 N 
ATOM      8  C   UNL     1       4.938   4.092  18.696  0.00  0.00    +0.000 A 
ATOM      9  C   UNL     1       4.314   5.077  19.474  0.00  0.00    +0.000 A 
ATOM     10  C   UNL     1       2.919   5.056  19.697  0.00  0.00    +0.000 A 
ATOM     11  C   UNL     1       2.247   3.960  19.142  0.00  0.00    +0.000 A 
ATOM     12  N   UNL     1       0.931   3.578  19.157  0.00  0.00    +0.000 NA
ATOM     13  N   UNL     1       0.822   2.438  18.482  0.00  0.00    +0.000 NA
ATOM     14  N   UNL     1       2.051   2.115  18.039  0.00  0.00    +0.000 N 
ATOM     15  C   UNL     1       2.980   3.038  18.414  0.00  0.00    +0.000 A 
ATOM     16  N   UNL     1       4.299   3.045  18.141  0.00  0.00    +0.000 NA
ATOM     17  H   UNL     1       6.651   5.050  18.232  0.00  0.00    +0.000 HD
ATOM     18  H   UNL     1       6.569   3.405  17.856  0.00  0.00    +0.000 HD
ATOM     19  H   UNL     1       2.184   1.270  17.501  0.00  0.00    +0.000 HD
ENDBRANCH   6  10
ENDBRANCH   1   6
BRANCH   4  20
ATOM     20  C   UNL     1       1.026  10.607  18.886  0.00  0.00    +0.000 C 
BRANCH  20  21
ATOM     21  C   UNL     1      -0.460  10.665  18.611  0.00  0.00    +0.000 A 
ATOM     22  C   UNL     1      -1.022   9.894  17.585  0.00  0.00    +0.000 A 
ATOM     23  C   UNL     1      -2.379   9.997  17.278  0.00  0.00    +0.000 A 
ATOM     24  C   UNL     1      -3.207  10.873  17.989  0.00  0.00    +0.000 A 
ATOM     25  C   UNL     1      -4.548  11.061  17.620  0.00  0.00    +0.000 A 
ATOM     26  C   UNL     1      -5.361  11.954  18.318  0.00  0.00    +0.000 A 
ATOM     27  C   UNL     1      -4.860  12.628  19.428  0.00  0.00    +0.000 A 
ATOM     28  C   UNL     1      -3.528  12.444  19.813  0.00  0.00    +0.000 A 
ATOM     29  C   UNL     1      -2.677  11.600  19.078  0.00  0.00    +0.000 A 
ATOM     30  C   UNL     1      -1.306  11.483  19.379  0.00  0.00    +0.000 A 
ENDBRANCH  20  21
ENDBRANCH   4  20
TORSDOF 4
ENDMDL
MODEL 8
REMARK VINA RESULT:      -8.8      1.410      2.525
REMARK  Name = 
REMARK  4 active torsions:
REMARK  status: ('A' for Active; 'I' for Inactive)
REMARK    1  A    between atoms: C_4  and  C_5
REMARK    2  A    between atoms: C_5  and  C_6
REMARK    3  A    between atoms: N_9  and  C_10
REMARK    4  A    between atoms: C_10  and  C_11
REMARK                            x       y       z     vdW  Elec       q    Type
REMARK                         _______ _______ _______ _____ _____    ______ ____
ROOT
ATOM      1  C   UNL     1       2.971   6.063  18.324  0.00  0.00    +0.000 A 
ATOM      2  C   UNL     1       3.257   7.215  17.559  0.00  0.00    +0.000 A 
ATOM      3  C   UNL     1       2.702   8.261  18.251  0.00  0.00    +0.000 A 
ATOM      4  N   UNL     1       2.104   7.712  19.350  0.00  0.00    +0.000 N 
ATOM      5  N   UNL     1       2.295   6.373  19.443  0.00  0.00    +0.000 NA
ENDROOT
BRANCH   1   6
ATOM      6  C   UNL     1       3.401   4.661  18.069  0.00  0.00    +0.000 C 
BRANCH   6  10
ATOM      7  N   UNL     1       6.641   4.302  14.326  0.00  0.00    +0.000 N 
ATOM      8  C   UNL     1       6.403   4.474  15.688  0.00  0.00    +0.000 A 
ATOM      9  C   UNL     1       5.083   4.519  16.157  0.00  0.00    +0.000 A 
ATOM     10  C   UNL     1       4.800   4.714  17.528  0.00  0.00    +0.000 A 
ATOM     11  C   UNL     1       5.924   4.917  18.340  0.00  0.00    +0.000 A 
ATOM     12  N   UNL     1       6.062   5.157  19.682  0.00  0.00    +0.000 NA
ATOM     13  N   UNL     1       7.358   5.289  19.948  0.00  0.00    +0.000 NA
ATOM     14  N   UNL     1       8.024   5.121  18.791  0.00  0.00    +0.000 N 
ATOM     15  C   UNL     1       7.177   4.875  17.753  0.00  0.00    +0.000 A 
ATOM     16  N   UNL     1       7.490   4.649  16.463  0.00  0.00    +0.000 NA
ATOM     17  H   UNL     1       6.115   3.530  13.929  0.00  0.00    +0.000 HD
ATOM     18  H   UNL     1       7.642   4.201  14.196  0.00  0.00    +0.000 HD
ATOM     19  H   UNL     1       9.033   5.187  18.778  0.00  0.00    +0.000 HD
ENDBRANCH   6  10
ENDBRANCH   1   6
BRANCH   4  20
ATOM     20  C   UNL     1       1.394   8.418  20.414  0.00  0.00    +0.000 C 
BRANCH  20  21
ATOM     21  C   UNL     1       0.820   9.734  19.938  0.00  0.00    +0.000 A 
ATOM     22  C   UNL     1      -0.214   9.756  18.993  0.00  0.00    +0.000 A 
ATOM     23  C   UNL     1      -0.699  10.966  18.496  0.00  0.00    +0.000 A 
ATOM     24  C   UNL     1      -0.163  12.183  18.933  0.00  0.00    +0.000 A 
ATOM     25  C   UNL     1      -0.570  13.399  18.363  0.00  0.00    +0.000 A 
ATOM     26  C   UNL     1      -0.014  14.606  18.787  0.00  0.00    +0.000 A 
ATOM     27  C   UNL     1       0.915  14.617  19.823  0.00  0.00    +0.000 A 
ATOM     28  C   UNL     1       1.324  13.414  20.406  0.00  0.00    +0.000 A 
ATOM     29  C   UNL     1       0.824  12.184  19.944  0.00  0.00    +0.000 A 
ATOM     30  C   UNL     1       1.301  10.955  20.438  0.00  0.00    +0.000 A 
ENDBRANCH  20  21
ENDBRANCH   4  20
TORSDOF 4
ENDMDL
MODEL 9
REMARK VINA RESULT:      -8.7      1.698      2.458
REMARK  Name = 
REMARK  4 active torsions:
REMARK  status: ('A' for Active; 'I' for Inactive)
REMARK    1  A    between atoms: C_4  and  C_5
REMARK    2  A    between atoms: C_5  and  C_6
REMARK    3  A    between atoms: N_9  and  C_10
REMARK    4  A    between atoms: C_10  and  C_11
REMARK                            x       y       z     vdW  Elec       q    Type
REMARK                         _______ _______ _______ _____ _____    ______ ____
ROOT
ATOM      1  C   UNL     1       2.969   4.915  18.132  0.00  0.00    +0.000 A 
ATOM      2  C   UNL     1       1.592   4.898  17.816  0.00  0.00    +0.000 A 
ATOM      3  C   UNL     1       1.228   6.214  17.696  0.00  0.00    +0.000 A 
ATOM      4  N   UNL     1       2.353   6.944  17.962  0.00  0.00    +0.000 N 
ATOM      5  N   UNL     1       3.444   6.171  18.184  0.00  0.00    +0.000 NA
ENDROOT
BRANCH   1   6
ATOM      6  C   UNL     1       3.887   3.755  18.304  0.00  0.00    +0.000 C 
BRANCH   6  10
ATOM      7  N   UNL     1       6.951   4.197  14.424  0.00  0.00    +0.000 N 
ATOM      8  C   UNL     1       6.740   4.298  15.798  0.00  0.00    +0.000 A 
ATOM      9  C   UNL     1       5.469   4.027  16.322  0.00  0.00    +0.000 A 
ATOM     10  C   UNL     1       5.209   4.139  17.707  0.00  0.00    +0.000 A 
ATOM     11  C   UNL     1       6.288   4.595  18.475  0.00  0.00    +0.000 A 
ATOM     12  N   UNL     1       6.426   4.850  19.814  0.00  0.00    +0.000 NA
ATOM     13  N   UNL     1       7.665   5.280  20.029  0.00  0.00    +0.000 NA
ATOM     14  N   UNL     1       8.300   5.283  18.842  0.00  0.00    +0.000 N 
ATOM     15  C   UNL     1       7.489   4.853  17.836  0.00  0.00    +0.000 A 
ATOM     16  N   UNL     1       7.789   4.716  16.531  0.00  0.00    +0.000 NA
ATOM     17  H   UNL     1       6.604   3.326  14.036  0.00  0.00    +0.000 HD
ATOM     18  H   UNL     1       7.941   4.335  14.251  0.00  0.00    +0.000 HD
ATOM     19  H   UNL     1       9.264   5.584  18.789  0.00  0.00    +0.000 HD
ENDBRANCH   6  10
ENDBRANCH   1   6
BRANCH   4  20
ATOM     20  C   UNL     1       2.487   8.397  17.938  0.00  0.00    +0.000 C 
BRANCH  20  21
ATOM     21  C   UNL     1       1.494   9.076  18.855  0.00  0.00    +0.000 A 
ATOM     22  C   UNL     1       0.634  10.066  18.362  0.00  0.00    +0.000 A 
ATOM     23  C   UNL     1      -0.233  10.747  19.216  0.00  0.00    +0.000 A 
ATOM     24  C   UNL     1      -0.263  10.454  20.584  0.00  0.00    +0.000 A 
ATOM     25  C   UNL     1      -1.055  11.204  21.468  0.00  0.00    +0.000 A 
ATOM     26  C   UNL     1      -1.061  10.921  22.833  0.00  0.00    +0.000 A 
ATOM     27  C   UNL     1      -0.319   9.851  23.326  0.00  0.00    +0.000 A 
ATOM     28  C   UNL     1       0.467   9.090  22.456  0.00  0.00    +0.000 A 
ATOM     29  C   UNL     1       0.538   9.404  21.087  0.00  0.00    +0.000 A 
ATOM     30  C   UNL     1       1.406   8.724  20.212  0.00  0.00    +0.000 A 
ENDBRANCH  20  21
ENDBRANCH   4  20
TORSDOF 4
ENDMDL
