MODEL 1
REMARK VINA RESULT:      -8.6      0.000      0.000
REMARK  Name = 
REMARK  2 active torsions:
REMARK  status: ('A' for Active; 'I' for Inactive)
REMARK    1  A    between atoms: C_1  and  C_2
REMARK    2  A    between atoms: C_2  and  C_3
REMARK                            x       y       z     vdW  Elec       q    Type
REMARK                         _______ _______ _______ _____ _____    ______ ____
ROOT
ATOM      1  C   UNL     1       2.159   5.523  19.607  0.00  0.00    +0.000 C 
ATOM      2  C   UNL     1       3.074   4.318  19.269  0.00  0.00    +0.000 C 
ATOM      3  C   UNL     1       2.341   3.303  18.351  0.00  0.00    +0.000 C 
ATOM      4  C   UNL     1       1.095   2.741  19.006  0.00  0.00    +0.000 C 
ATOM      5  O   UNL     1       0.072   2.483  18.379  0.00  0.00    +0.000 OA
ATOM      6  N   UNL     1       1.164   2.520  20.357  0.00  0.00    +0.000 N 
ATOM      7  C   UNL     1       2.148   2.963  21.205  0.00  0.00    +0.000 C 
ATOM      8  O   UNL     1       1.997   2.920  22.421  0.00  0.00    +0.000 OA
ATOM      9  C   UNL     1       3.402   3.499  20.547  0.00  0.00    +0.000 C 
ATOM     10  C   UNL     1       4.327   2.345  20.209  0.00  0.00    +0.000 C 
ATOM     11  O   UNL     1       5.176   1.922  20.988  0.00  0.00    +0.000 OA
ATOM     12  N   UNL     1       4.134   1.755  18.981  0.00  0.00    +0.000 N 
ATOM     13  C   UNL     1       3.278   2.168  17.987  0.00  0.00    +0.000 C 
ATOM     14  O   UNL     1       3.271   1.623  16.888  0.00  0.00    +0.000 OA
ATOM     15  H   UNL     1       0.317   2.180  20.797  0.00  0.00    +0.000 HD
ATOM     16  H   UNL     1       4.765   0.999  18.743  0.00  0.00    +0.000 HD
ENDROOT
BRANCH   2  17
ATOM     17  C   UNL     1       4.332   4.945  18.598  0.00  0.00    +0.000 A 
ATOM     18  C   UNL     1       5.536   5.111  19.313  0.00  0.00    +0.000 A 
ATOM     19  C   UNL     1       6.661   5.690  18.714  0.00  0.00    +0.000 A 
ATOM     20  C   UNL     1       6.596   6.125  17.401  0.00  0.00    +0.000 A 
ATOM     21  F   UNL     1       7.672   6.686  16.833  0.00  0.00    +0.000 F 
ATOM     22  C   UNL     1       5.424   5.996  16.674  0.00  0.00    +0.000 A 
ATOM     23  C   UNL     1       4.297   5.417  17.269  0.00  0.00    +0.000 A 
ENDBRANCH   2  17
TORSDOF 1
ENDMDL
MODEL 2
REMARK VINA RESULT:      -8.6      0.233      1.075
REMARK  Name = 
REMARK  2 active torsions:
REMARK  status: ('A' for Active; 'I' for Inactive)
REMARK    1  A    between atoms: C_1  and  C_2
REMARK    2  A    between atoms: C_2  and  C_3
REMARK                            x       y       z     vdW  Elec       q    Type
REMARK                         _______ _______ _______ _____ _____    ______ ____
ROOT
ATOM      1  C   UNL     1       2.282   5.623  19.855  0.00  0.00    +0.000 C 
ATOM      2  C   UNL     1       3.124   4.430  19.335  0.00  0.00    +0.000 C 
ATOM      3  C   UNL     1       2.290   3.533  18.381  0.00  0.00    +0.000 C 
ATOM      4  C   UNL     1       1.073   2.947  19.069  0.00  0.00    +0.000 C 
ATOM      5  O   UNL     1      -0.000   2.785  18.498  0.00  0.00    +0.000 OA
ATOM      6  N   UNL     1       1.230   2.592  20.384  0.00  0.00    +0.000 N 
ATOM      7  C   UNL     1       2.287   2.919  21.195  0.00  0.00    +0.000 C 
ATOM      8  O   UNL     1       2.221   2.760  22.409  0.00  0.00    +0.000 OA
ATOM      9  C   UNL     1       3.511   3.479  20.500  0.00  0.00    +0.000 C 
ATOM     10  C   UNL     1       4.366   2.336  19.985  0.00  0.00    +0.000 C 
ATOM     11  O   UNL     1       5.251   1.812  20.654  0.00  0.00    +0.000 OA
ATOM     12  N   UNL     1       4.063   1.877  18.724  0.00  0.00    +0.000 N 
ATOM     13  C   UNL     1       3.156   2.412  17.840  0.00  0.00    +0.000 C 
ATOM     14  O   UNL     1       3.050   1.979  16.697  0.00  0.00    +0.000 OA
ATOM     15  H   UNL     1       0.403   2.236  20.850  0.00  0.00    +0.000 HD
ATOM     16  H   UNL     1       4.647   1.129  18.368  0.00  0.00    +0.000 HD
ENDROOT
BRANCH   2  17
ATOM     17  C   UNL     1       4.354   5.081  18.636  0.00  0.00    +0.000 A 
ATOM     18  C   UNL     1       4.267   5.582  17.320  0.00  0.00    +0.000 A 
ATOM     19  C   UNL     1       5.377   6.152  16.686  0.00  0.00    +0.000 A 
ATOM     20  C   UNL     1       6.592   6.217  17.349  0.00  0.00    +0.000 A 
ATOM     21  F   UNL     1       7.654   6.756  16.737  0.00  0.00    +0.000 F 
ATOM     22  C   UNL     1       6.719   5.718  18.635  0.00  0.00    +0.000 A 
ATOM     23  C   UNL     1       5.611   5.148  19.273  0.00  0.00    +0.000 A 
ENDBRANCH   2  17
TORSDOF 1
ENDMDL
MODEL 3
REMARK VINA RESULT:      -8.2      3.447      5.785
REMARK  Name = 
REMARK  2 active torsions:
REMARK  status: ('A' for Active; 'I' for Inactive)
REMARK    1  A    between atoms: C_1  and  C_2
REMARK    2  A    between atoms: C_2  and  C_3
REMARK                            x       y       z     vdW  Elec       q    Type
REMARK                         _______ _______ _______ _____ _____    ______ ____
ROOT
ATOM      1  C   UNL     1       4.225   7.396  16.754  0.00  0.00    +0.000 C 
ATOM      2  C   UNL     1       4.736   6.074  17.383  0.00  0.00    +0.000 C 
ATOM      3  C   UNL     1       5.990   6.325  18.263  0.00  0.00    +0.000 C 
ATOM      4  C   UNL     1       7.139   6.906  17.464  0.00  0.00    +0.000 C 
ATOM      5  O   UNL     1       7.916   7.738  17.922  0.00  0.00    +0.000 OA
ATOM      6  N   UNL     1       7.282   6.446  16.180  0.00  0.00    +0.000 N 
ATOM      7  C   UNL     1       6.370   5.699  15.477  0.00  0.00    +0.000 C 
ATOM      8  O   UNL     1       6.484   5.544  14.267  0.00  0.00    +0.000 OA
ATOM      9  C   UNL     1       5.238   5.098  16.284  0.00  0.00    +0.000 C 
ATOM     10  C   UNL     1       5.701   3.796  16.909  0.00  0.00    +0.000 C 
ATOM     11  O   UNL     1       5.589   2.711  16.347  0.00  0.00    +0.000 OA
ATOM     12  N   UNL     1       6.305   3.898  18.141  0.00  0.00    +0.000 N 
ATOM     13  C   UNL     1       6.431   5.028  18.914  0.00  0.00    +0.000 C 
ATOM     14  O   UNL     1       6.895   4.974  20.048  0.00  0.00    +0.000 OA
ATOM     15  H   UNL     1       8.028   6.866  15.637  0.00  0.00    +0.000 HD
ATOM     16  H   UNL     1       6.595   3.027  18.571  0.00  0.00    +0.000 HD
ENDROOT
BRANCH   2  17
ATOM     17  C   UNL     1       3.527   5.522  18.194  0.00  0.00    +0.000 A 
ATOM     18  C   UNL     1       3.307   5.906  19.533  0.00  0.00    +0.000 A 
ATOM     19  C   UNL     1       2.229   5.397  20.266  0.00  0.00    +0.000 A 
ATOM     20  C   UNL     1       1.366   4.485  19.680  0.00  0.00    +0.000 A 
ATOM     21  F   UNL     1       0.340   3.993  20.387  0.00  0.00    +0.000 F 
ATOM     22  C   UNL     1       1.562   4.070  18.374  0.00  0.00    +0.000 A 
ATOM     23  C   UNL     1       2.638   4.578  17.637  0.00  0.00    +0.000 A 
ENDBRANCH   2  17
TORSDOF 1
ENDMDL
MODEL 4
REMARK VINA RESULT:      -8.2      3.458      5.861
REMARK  Name = 
REMARK  2 active torsions:
REMARK  status: ('A' for Active; 'I' for Inactive)
REMARK    1  A    between atoms: C_1  and  C_2
REMARK    2  A    between atoms: C_2  and  C_3
REMARK                            x       y       z     vdW  Elec       q    Type
REMARK                         _______ _______ _______ _____ _____    ______ ____
ROOT
ATOM      1  C   UNL     1       4.196   7.380  16.780  0.00  0.00    +0.000 C 
ATOM      2  C   UNL     1       4.734   6.064  17.400  0.00  0.00    +0.000 C 
ATOM      3  C   UNL     1       5.994   6.332  18.266  0.00  0.00    +0.000 C 
ATOM      4  C   UNL     1       7.125   6.932  17.455  0.00  0.00    +0.000 C 
ATOM      5  O   UNL     1       7.895   7.774  17.907  0.00  0.00    +0.000 OA
ATOM      6  N   UNL     1       7.259   6.478  16.168  0.00  0.00    +0.000 N 
ATOM      7  C   UNL     1       6.350   5.719  15.474  0.00  0.00    +0.000 C 
ATOM      8  O   UNL     1       6.453   5.569  14.261  0.00  0.00    +0.000 OA
ATOM      9  C   UNL     1       5.237   5.099  16.292  0.00  0.00    +0.000 C 
ATOM     10  C   UNL     1       5.726   3.802  16.908  0.00  0.00    +0.000 C 
ATOM     11  O   UNL     1       5.624   2.717  16.344  0.00  0.00    +0.000 OA
ATOM     12  N   UNL     1       6.343   3.909  18.133  0.00  0.00    +0.000 N 
ATOM     13  C   UNL     1       6.461   5.040  18.907  0.00  0.00    +0.000 C 
ATOM     14  O   UNL     1       6.939   4.990  20.036  0.00  0.00    +0.000 OA
ATOM     15  H   UNL     1       7.992   6.910  15.618  0.00  0.00    +0.000 HD
ATOM     16  H   UNL     1       6.651   3.042  18.557  0.00  0.00    +0.000 HD
ENDROOT
BRANCH   2  17
ATOM     17  C   UNL     1       3.542   5.492  18.222  0.00  0.00    +0.000 A 
ATOM     18  C   UNL     1       2.638   4.570  17.655  0.00  0.00    +0.000 A 
ATOM     19  C   UNL     1       1.557   4.068  18.389  0.00  0.00    +0.000 A 
ATOM     20  C   UNL     1       1.354   4.490  19.693  0.00  0.00    +0.000 A 
ATOM     21  F   UNL     1       0.314   4.015  20.391  0.00  0.00    +0.000 F 
ATOM     22  C   UNL     1       2.210   5.409  20.277  0.00  0.00    +0.000 A 
ATOM     23  C   UNL     1       3.293   5.912  19.546  0.00  0.00    +0.000 A 
ENDBRANCH   2  17
TORSDOF 1
ENDMDL
MODEL 5
REMARK VINA RESULT:      -8.1      3.679      5.511
REMARK  Name = 
REMARK  2 active torsions:
REMARK  status: ('A' for Active; 'I' for Inactive)
REMARK    1  A    between atoms: C_1  and  C_2
REMARK    2  A    between atoms: C_2  and  C_3
REMARK                            x       y       z     vdW  Elec       q    Type
REMARK                         _______ _______ _______ _____ _____    ______ ____
ROOT
ATOM      1  C   UNL     1       4.570   3.165  16.299  0.00  0.00    +0.000 C 
ATOM      2  C   UNL     1       4.649   4.257  17.396  0.00  0.00    +0.000 C 
ATOM      3  C   UNL     1       4.385   5.666  16.799  0.00  0.00    +0.000 C 
ATOM      4  C   UNL     1       5.401   6.034  15.737  0.00  0.00    +0.000 C 
ATOM      5  O   UNL     1       5.113   6.682  14.736  0.00  0.00    +0.000 OA
ATOM      6  N   UNL     1       6.687   5.609  15.952  0.00  0.00    +0.000 N 
ATOM      7  C   UNL     1       7.097   4.702  16.897  0.00  0.00    +0.000 C 
ATOM      8  O   UNL     1       8.220   4.212  16.852  0.00  0.00    +0.000 OA
ATOM      9  C   UNL     1       6.088   4.358  17.972  0.00  0.00    +0.000 C 
ATOM     10  C   UNL     1       6.143   5.404  19.070  0.00  0.00    +0.000 C 
ATOM     11  O   UNL     1       6.887   5.310  20.041  0.00  0.00    +0.000 OA
ATOM     12  N   UNL     1       5.336   6.504  18.896  0.00  0.00    +0.000 N 
ATOM     13  C   UNL     1       4.406   6.705  17.903  0.00  0.00    +0.000 C 
ATOM     14  O   UNL     1       3.666   7.683  17.914  0.00  0.00    +0.000 OA
ATOM     15  H   UNL     1       7.355   5.824  15.221  0.00  0.00    +0.000 HD
ATOM     16  H   UNL     1       5.354   7.194  19.639  0.00  0.00    +0.000 HD
ENDROOT
BRANCH   2  17
ATOM     17  C   UNL     1       3.588   3.838  18.456  0.00  0.00    +0.000 A 
ATOM     18  C   UNL     1       3.949   3.090  19.596  0.00  0.00    +0.000 A 
ATOM     19  C   UNL     1       2.992   2.699  20.540  0.00  0.00    +0.000 A 
ATOM     20  C   UNL     1       1.661   3.035  20.353  0.00  0.00    +0.000 A 
ATOM     21  F   UNL     1       0.747   2.652  21.253  0.00  0.00    +0.000 F 
ATOM     22  C   UNL     1       1.267   3.753  19.236  0.00  0.00    +0.000 A 
ATOM     23  C   UNL     1       2.221   4.146  18.290  0.00  0.00    +0.000 A 
ENDBRANCH   2  17
TORSDOF 1
ENDMDL
MODEL 6
REMARK VINA RESULT:      -8.1      3.659      5.591
REMARK  Name = 
REMARK  2 active torsions:
REMARK  status: ('A' for Active; 'I' for Inactive)
REMARK    1  A    between atoms: C_1  and  C_2
REMARK    2  A    between atoms: C_2  and  C_3
REMARK                            x       y       z     vdW  Elec       q    Type
REMARK                         _______ _______ _______ _____ _____    ______ ____
ROOT
ATOM      1  C   UNL     1       4.568   3.173  16.251  0.00  0.00    +0.000 C 
ATOM      2  C   UNL     1       4.633   4.242  17.372  0.00  0.00    +0.000 C 
ATOM      3  C   UNL     1       4.365   5.661  16.803  0.00  0.00    +0.000 C 
ATOM      4  C   UNL     1       5.386   6.057  15.756  0.00  0.00    +0.000 C 
ATOM      5  O   UNL     1       5.101   6.725  14.766  0.00  0.00    +0.000 OA
ATOM      6  N   UNL     1       6.673   5.635  15.970  0.00  0.00    +0.000 N 
ATOM      7  C   UNL     1       7.082   4.711  16.898  0.00  0.00    +0.000 C 
ATOM      8  O   UNL     1       8.207   4.227  16.850  0.00  0.00    +0.000 OA
ATOM      9  C   UNL     1       6.067   4.338  17.959  0.00  0.00    +0.000 C 
ATOM     10  C   UNL     1       6.110   5.361  19.079  0.00  0.00    +0.000 C 
ATOM     11  O   UNL     1       6.848   5.251  20.053  0.00  0.00    +0.000 OA
ATOM     12  N   UNL     1       5.298   6.461  18.924  0.00  0.00    +0.000 N 
ATOM     13  C   UNL     1       4.374   6.677  17.929  0.00  0.00    +0.000 C 
ATOM     14  O   UNL     1       3.628   7.651  17.956  0.00  0.00    +0.000 OA
ATOM     15  H   UNL     1       7.344   5.870  15.248  0.00  0.00    +0.000 HD
ATOM     16  H   UNL     1       5.307   7.134  19.680  0.00  0.00    +0.000 HD
ENDROOT
BRANCH   2  17
ATOM     17  C   UNL     1       3.567   3.795  18.416  0.00  0.00    +0.000 A 
ATOM     18  C   UNL     1       2.207   4.132  18.262  0.00  0.00    +0.000 A 
ATOM     19  C   UNL     1       1.252   3.744  19.209  0.00  0.00    +0.000 A 
ATOM     20  C   UNL     1       1.643   3.029  20.329  0.00  0.00    +0.000 A 
ATOM     21  F   UNL     1       0.728   2.666  21.238  0.00  0.00    +0.000 F 
ATOM     22  C   UNL     1       2.973   2.696  20.523  0.00  0.00    +0.000 A 
ATOM     23  C   UNL     1       3.931   3.082  19.578  0.00  0.00    +0.000 A 
ENDBRANCH   2  17
TORSDOF 1
ENDMDL
MODEL 7
REMARK VINA RESULT:      -8.1      1.819      2.595
REMARK  Name = 
REMARK  2 active torsions:
REMARK  status: ('A' for Active; 'I' for Inactive)
REMARK    1  A    between atoms: C_1  and  C_2
REMARK    2  A    between atoms: C_2  and  C_3
REMARK                            x       y       z     vdW  Elec       q    Type
REMARK                         _______ _______ _______ _____ _____    ______ ____
ROOT
ATOM      1  C   UNL     1       5.033   5.312  19.605  0.00  0.00    +0.000 C 
ATOM      2  C   UNL     1       4.207   4.396  18.665  0.00  0.00    +0.000 C 
ATOM      3  C   UNL     1       2.701   4.767  18.709  0.00  0.00    +0.000 C 
ATOM      4  C   UNL     1       2.117   4.615  20.099  0.00  0.00    +0.000 C 
ATOM      5  O   UNL     1       1.264   5.373  20.551  0.00  0.00    +0.000 OA
ATOM      6  N   UNL     1       2.588   3.564  20.845  0.00  0.00    +0.000 N 
ATOM      7  C   UNL     1       3.681   2.787  20.557  0.00  0.00    +0.000 C 
ATOM      8  O   UNL     1       4.158   2.036  21.400  0.00  0.00    +0.000 OA
ATOM      9  C   UNL     1       4.245   2.923  19.158  0.00  0.00    +0.000 C 
ATOM     10  C   UNL     1       3.464   2.032  18.211  0.00  0.00    +0.000 C 
ATOM     11  O   UNL     1       3.772   0.865  17.989  0.00  0.00    +0.000 OA
ATOM     12  N   UNL     1       2.346   2.592  17.637  0.00  0.00    +0.000 N 
ATOM     13  C   UNL     1       1.928   3.898  17.737  0.00  0.00    +0.000 C 
ATOM     14  O   UNL     1       0.970   4.310  17.089  0.00  0.00    +0.000 OA
ATOM     15  H   UNL     1       2.223   3.489  21.787  0.00  0.00    +0.000 HD
ATOM     16  H   UNL     1       1.835   2.007  16.987  0.00  0.00    +0.000 HD
ENDROOT
BRANCH   2  17
ATOM     17  C   UNL     1       4.840   4.591  17.256  0.00  0.00    +0.000 A 
ATOM     18  C   UNL     1       5.567   3.557  16.631  0.00  0.00    +0.000 A 
ATOM     19  C   UNL     1       6.150   3.738  15.371  0.00  0.00    +0.000 A 
ATOM     20  C   UNL     1       6.029   4.958  14.725  0.00  0.00    +0.000 A 
ATOM     21  F   UNL     1       6.595   5.131  13.524  0.00  0.00    +0.000 F 
ATOM     22  C   UNL     1       5.338   6.002  15.316  0.00  0.00    +0.000 A 
ATOM     23  C   UNL     1       4.754   5.824  16.575  0.00  0.00    +0.000 A 
ENDBRANCH   2  17
TORSDOF 1
ENDMDL
MODEL 8
REMARK VINA RESULT:      -7.9      1.811      2.618
REMARK  Name = 
REMARK  2 active torsions:
REMARK  status: ('A' for Active; 'I' for Inactive)
REMARK    1  A    between atoms: C_1  and  C_2
REMARK    2  A    between atoms: C_2  and  C_3
REMARK                            x       y       z     vdW  Elec       q    Type
REMARK                         _______ _______ _______ _____ _____    ______ ____
ROOT
ATOM      1  C   UNL     1       4.938   5.331  19.667  0.00  0.00    +0.000 C 
ATOM      2  C   UNL     1       4.151   4.401  18.708  0.00  0.00    +0.000 C 
ATOM      3  C   UNL     1       2.638   4.749  18.714  0.00  0.00    +0.000 C 
ATOM      4  C   UNL     1       2.022   4.589  20.089  0.00  0.00    +0.000 C 
ATOM      5  O   UNL     1       1.146   5.333  20.518  0.00  0.00    +0.000 OA
ATOM      6  N   UNL     1       2.490   3.547  20.848  0.00  0.00    +0.000 N 
ATOM      7  C   UNL     1       3.603   2.787  20.588  0.00  0.00    +0.000 C 
ATOM      8  O   UNL     1       4.070   2.044  21.444  0.00  0.00    +0.000 OA
ATOM      9  C   UNL     1       4.199   2.930  19.204  0.00  0.00    +0.000 C 
ATOM     10  C   UNL     1       3.457   2.026  18.239  0.00  0.00    +0.000 C 
ATOM     11  O   UNL     1       3.789   0.864  18.026  0.00  0.00    +0.000 OA
ATOM     12  N   UNL     1       2.345   2.568  17.636  0.00  0.00    +0.000 N 
ATOM     13  C   UNL     1       1.903   3.867  17.723  0.00  0.00    +0.000 C 
ATOM     14  O   UNL     1       0.956   4.263  17.051  0.00  0.00    +0.000 OA
ATOM     15  H   UNL     1       2.102   3.467  21.781  0.00  0.00    +0.000 HD
ATOM     16  H   UNL     1       1.860   1.974  16.974  0.00  0.00    +0.000 HD
ENDROOT
BRANCH   2  17
ATOM     17  C   UNL     1       4.816   4.606  17.315  0.00  0.00    +0.000 A 
ATOM     18  C   UNL     1       4.690   5.824  16.616  0.00  0.00    +0.000 A 
ATOM     19  C   UNL     1       5.274   6.002  15.357  0.00  0.00    +0.000 A 
ATOM     20  C   UNL     1       5.977   4.962  14.770  0.00  0.00    +0.000 A 
ATOM     21  F   UNL     1       6.527   5.132  13.561  0.00  0.00    +0.000 F 
ATOM     22  C   UNL     1       6.105   3.745  15.418  0.00  0.00    +0.000 A 
ATOM     23  C   UNL     1       5.523   3.564  16.678  0.00  0.00    +0.000 A 
ENDBRANCH   2  17
TORSDOF 1
ENDMDL
MODEL 9
REMARK VINA RESULT:      -7.7      1.752      3.453
REMARK  Name = 
REMARK  2 active torsions:
REMARK  status: ('A' for Active; 'I' for Inactive)
REMARK    1  A    between atoms: C_1  and  C_2
REMARK    2  A    between atoms: C_2  and  C_3
REMARK                            x       y       z     vdW  Elec       q    Type
REMARK                         _______ _______ _______ _____ _____    ______ ____
ROOT
ATOM      1  C   UNL     1       4.089   1.904  19.379  0.00  0.00    +0.000 C 
ATOM      2  C   UNL     1       3.502   3.265  18.923  0.00  0.00    +0.000 C 
ATOM      3  C   UNL     1       3.200   4.177  20.142  0.00  0.00    +0.000 C 
ATOM      4  C   UNL     1       2.188   3.554  21.082  0.00  0.00    +0.000 C 
ATOM      5  O   UNL     1       2.245   3.683  22.301  0.00  0.00    +0.000 OA
ATOM      6  N   UNL     1       1.180   2.830  20.499  0.00  0.00    +0.000 N 
ATOM      7  C   UNL     1       1.123   2.424  19.190  0.00  0.00    +0.000 C 
ATOM      8  O   UNL     1       0.306   1.584  18.827  0.00  0.00    +0.000 OA
ATOM      9  C   UNL     1       2.117   3.069  18.248  0.00  0.00    +0.000 C 
ATOM     10  C   UNL     1       1.570   4.402  17.773  0.00  0.00    +0.000 C 
ATOM     11  O   UNL     1       0.873   4.517  16.770  0.00  0.00    +0.000 OA
ATOM     12  N   UNL     1       1.862   5.491  18.563  0.00  0.00    +0.000 N 
ATOM     13  C   UNL     1       2.686   5.521  19.663  0.00  0.00    +0.000 C 
ATOM     14  O   UNL     1       2.957   6.578  20.225  0.00  0.00    +0.000 OA
ATOM     15  H   UNL     1       0.529   2.384  21.134  0.00  0.00    +0.000 HD
ATOM     16  H   UNL     1       1.518   6.386  18.236  0.00  0.00    +0.000 HD
ENDROOT
BRANCH   2  17
ATOM     17  C   UNL     1       4.575   3.865  17.967  0.00  0.00    +0.000 A 
ATOM     18  C   UNL     1       4.440   3.772  16.566  0.00  0.00    +0.000 A 
ATOM     19  C   UNL     1       5.413   4.297  15.707  0.00  0.00    +0.000 A 
ATOM     20  C   UNL     1       6.541   4.906  16.232  0.00  0.00    +0.000 A 
ATOM     21  F   UNL     1       7.474   5.399  15.408  0.00  0.00    +0.000 F 
ATOM     22  C   UNL     1       6.717   4.998  17.603  0.00  0.00    +0.000 A 
ATOM     23  C   UNL     1       5.745   4.475  18.465  0.00  0.00    +0.000 A 
ENDBRANCH   2  17
TORSDOF 1
ENDMDL
