MODEL 1
REMARK VINA RESULT:      -8.5      0.000      0.000
REMARK  Name = 
REMARK  7 active torsions:
REMARK  status: ('A' for Active; 'I' for Inactive)
REMARK    1  A    between atoms: C_1  and  C_2
REMARK    2  A    between atoms: C_7  and  C_8
REMARK    3  A    between atoms: C_8  and  C_9
REMARK    4  A    between atoms: C_11  and  C_12
REMARK    5  A    between atoms: C_15  and  C_16
REMARK    6  A    between atoms: C_22  and  C_23
REMARK    7  A    between atoms: C_23  and  O_25
REMARK                            x       y       z     vdW  Elec       q    Type
REMARK                         _______ _______ _______ _____ _____    ______ ____
ROOT
ATOM      1  C   UNL     1       6.469   6.358  16.639  0.00  0.00    +0.000 A 
ATOM      2  C   UNL     1       6.739   5.374  15.690  0.00  0.00    +0.000 A 
ATOM      3  C   UNL     1       5.685   4.439  15.688  0.00  0.00    +0.000 A 
ATOM      4  C   UNL     1       4.885   4.772  16.754  0.00  0.00    +0.000 A 
ATOM      5  O   UNL     1       5.354   5.925  17.326  0.00  0.00    +0.000 OA
ENDROOT
BRANCH   4   6
ATOM      6  C   UNL     1       3.719   4.168  17.388  0.00  0.00    +0.000 A 
ATOM      7  C   UNL     1       3.556   2.774  17.230  0.00  0.00    +0.000 A 
ATOM      8  C   UNL     1       2.474   2.092  17.789  0.00  0.00    +0.000 A 
ATOM      9  C   UNL     1       1.534   2.793  18.529  0.00  0.00    +0.000 A 
ATOM     10 CL   UNL     1       0.182   1.968  19.194  0.00  0.00    +0.000 Cl
ATOM     11  C   UNL     1       1.677   4.164  18.723  0.00  0.00    +0.000 A 
ATOM     12  C   UNL     1       2.761   4.867  18.155  0.00  0.00    +0.000 A 
BRANCH  12  13
ATOM     13  C   UNL     1       2.764   6.329  18.485  0.00  0.00    +0.000 C 
ATOM     14  O   UNL     1       2.290   7.154  17.717  0.00  0.00    +0.000 OA
BRANCH  13  15
ATOM     15  O   UNL     1       3.386   6.692  19.619  0.00  0.00    +0.000 OA
ATOM     16  H   UNL     1       2.833   7.056  20.334  0.00  0.00    +0.000 HD
ENDBRANCH  13  15
ENDBRANCH  12  13
ENDBRANCH   4   6
BRANCH   1  18
ATOM     17  C   UNL     1       7.908   7.764  18.051  0.00  0.00    +0.000 C 
ATOM     18  C   UNL     1       7.155   7.587  16.938  0.00  0.00    +0.000 C 
BRANCH  17  25
ATOM     19  C   UNL     1      10.444  14.652  18.498  0.00  0.00    +0.000 C 
ATOM     20  C   UNL     1      10.125  13.230  18.859  0.00  0.00    +0.000 A 
ATOM     21  C   UNL     1      10.483  12.706  20.112  0.00  0.00    +0.000 A 
ATOM     22  C   UNL     1      10.199  11.382  20.467  0.00  0.00    +0.000 A 
ATOM     23  C   UNL     1       9.539  10.605  19.515  0.00  0.00    +0.000 A 
ATOM     24  N   UNL     1       9.106   9.298  19.519  0.00  0.00    +0.000 N 
ATOM     25  C   UNL     1       8.497   9.036  18.309  0.00  0.00    +0.000 A 
ATOM     26  N   UNL     1       8.529  10.114  17.544  0.00  0.00    +0.000 NA
ATOM     27  C   UNL     1       9.169  11.081  18.266  0.00  0.00    +0.000 A 
ATOM     28  C   UNL     1       9.461  12.416  17.926  0.00  0.00    +0.000 A 
ATOM     29  H   UNL     1       9.212   8.659  20.292  0.00  0.00    +0.000 HD
ENDBRANCH  17  25
BRANCH  17  30
ATOM     30  C   UNL     1       8.073   6.559  18.962  0.00  0.00    +0.000 C 
ATOM     31  N   UNL     1       8.211   5.558  19.717  0.00  0.00    +0.000 NA
ENDBRANCH  17  30
ENDBRANCH   1  18
TORSDOF 6
ENDMDL
MODEL 2
REMARK VINA RESULT:      -8.3      1.318      1.724
REMARK  Name = 
REMARK  7 active torsions:
REMARK  status: ('A' for Active; 'I' for Inactive)
REMARK    1  A    between atoms: C_1  and  C_2
REMARK    2  A    between atoms: C_7  and  C_8
REMARK    3  A    between atoms: C_8  and  C_9
REMARK    4  A    between atoms: C_11  and  C_12
REMARK    5  A    between atoms: C_15  and  C_16
REMARK    6  A    between atoms: C_22  and  C_23
REMARK    7  A    between atoms: C_23  and  O_25
REMARK                            x       y       z     vdW  Elec       q    Type
REMARK                         _______ _______ _______ _____ _____    ______ ____
ROOT
ATOM      1  C   UNL     1       6.205   6.446  16.800  0.00  0.00    +0.000 A 
ATOM      2  C   UNL     1       6.354   5.492  15.796  0.00  0.00    +0.000 A 
ATOM      3  C   UNL     1       5.301   4.561  15.889  0.00  0.00    +0.000 A 
ATOM      4  C   UNL     1       4.634   4.863  17.052  0.00  0.00    +0.000 A 
ATOM      5  O   UNL     1       5.176   5.995  17.601  0.00  0.00    +0.000 OA
ENDROOT
BRANCH   4   6
ATOM      6  C   UNL     1       3.547   4.244  17.801  0.00  0.00    +0.000 A 
ATOM      7  C   UNL     1       2.247   4.371  17.263  0.00  0.00    +0.000 A 
ATOM      8  C   UNL     1       1.131   3.824  17.898  0.00  0.00    +0.000 A 
ATOM      9  C   UNL     1       1.296   3.125  19.085  0.00  0.00    +0.000 A 
ATOM     10 CL   UNL     1      -0.075   2.474  19.890  0.00  0.00    +0.000 Cl
ATOM     11  C   UNL     1       2.566   2.961  19.629  0.00  0.00    +0.000 A 
ATOM     12  C   UNL     1       3.701   3.518  19.003  0.00  0.00    +0.000 A 
BRANCH  12  13
ATOM     13  C   UNL     1       4.984   3.224  19.719  0.00  0.00    +0.000 C 
ATOM     14  O   UNL     1       5.194   2.129  20.221  0.00  0.00    +0.000 OA
BRANCH  13  15
ATOM     15  O   UNL     1       5.848   4.244  19.858  0.00  0.00    +0.000 OA
ATOM     16  H   UNL     1       5.662   4.893  20.560  0.00  0.00    +0.000 HD
ENDBRANCH  13  15
ENDBRANCH  12  13
ENDBRANCH   4   6
BRANCH   1  18
ATOM     17  C   UNL     1       7.824   7.796  18.065  0.00  0.00    +0.000 C 
ATOM     18  C   UNL     1       6.931   7.662  17.054  0.00  0.00    +0.000 C 
BRANCH  17  25
ATOM     19  C   UNL     1      10.514  14.632  18.375  0.00  0.00    +0.000 C 
ATOM     20  C   UNL     1      10.182  13.218  18.756  0.00  0.00    +0.000 A 
ATOM     21  C   UNL     1      10.580  12.693  19.996  0.00  0.00    +0.000 A 
ATOM     22  C   UNL     1      10.284  11.376  20.369  0.00  0.00    +0.000 A 
ATOM     23  C   UNL     1       9.570  10.609  19.448  0.00  0.00    +0.000 A 
ATOM     24  N   UNL     1       9.112   9.311  19.476  0.00  0.00    +0.000 N 
ATOM     25  C   UNL     1       8.448   9.057  18.293  0.00  0.00    +0.000 A 
ATOM     26  N   UNL     1       8.471  10.130  17.522  0.00  0.00    +0.000 NA
ATOM     27  C   UNL     1       9.159  11.087  18.213  0.00  0.00    +0.000 A 
ATOM     28  C   UNL     1       9.464  12.415  17.855  0.00  0.00    +0.000 A 
ATOM     29  H   UNL     1       9.237   8.673  20.247  0.00  0.00    +0.000 HD
ENDBRANCH  17  25
BRANCH  17  30
ATOM     30  C   UNL     1       8.101   6.556  18.899  0.00  0.00    +0.000 C 
ATOM     31  N   UNL     1       8.330   5.527  19.591  0.00  0.00    +0.000 NA
ENDBRANCH  17  30
ENDBRANCH   1  18
TORSDOF 6
ENDMDL
MODEL 3
REMARK VINA RESULT:      -8.3      6.251      9.162
REMARK  Name = 
REMARK  7 active torsions:
REMARK  status: ('A' for Active; 'I' for Inactive)
REMARK    1  A    between atoms: C_1  and  C_2
REMARK    2  A    between atoms: C_7  and  C_8
REMARK    3  A    between atoms: C_8  and  C_9
REMARK    4  A    between atoms: C_11  and  C_12
REMARK    5  A    between atoms: C_15  and  C_16
REMARK    6  A    between atoms: C_22  and  C_23
REMARK    7  A    between atoms: C_23  and  O_25
REMARK                            x       y       z     vdW  Elec       q    Type
REMARK                         _______ _______ _______ _____ _____    ______ ____
ROOT
ATOM      1  C   UNL     1       0.736  10.607  18.658  0.00  0.00    +0.000 A 
ATOM      2  C   UNL     1       1.145  11.745  19.349  0.00  0.00    +0.000 A 
ATOM      3  C   UNL     1       0.009  12.406  19.857  0.00  0.00    +0.000 A 
ATOM      4  C   UNL     1      -1.075  11.758  19.318  0.00  0.00    +0.000 A 
ATOM      5  O   UNL     1      -0.641  10.677  18.597  0.00  0.00    +0.000 OA
ENDROOT
BRANCH   4   6
ATOM      6  C   UNL     1      -2.515  11.987  19.327  0.00  0.00    +0.000 A 
ATOM      7  C   UNL     1      -3.049  12.655  20.451  0.00  0.00    +0.000 A 
ATOM      8  C   UNL     1      -4.414  12.922  20.568  0.00  0.00    +0.000 A 
ATOM      9  C   UNL     1      -5.275  12.533  19.553  0.00  0.00    +0.000 A 
ATOM     10 CL   UNL     1      -6.961  12.829  19.703  0.00  0.00    +0.000 Cl
ATOM     11  C   UNL     1      -4.779  11.893  18.422  0.00  0.00    +0.000 A 
ATOM     12  C   UNL     1      -3.402  11.608  18.295  0.00  0.00    +0.000 A 
BRANCH  12  13
ATOM     13  C   UNL     1      -3.048  10.935  17.004  0.00  0.00    +0.000 C 
ATOM     14  O   UNL     1      -3.366   9.774  16.786  0.00  0.00    +0.000 OA
BRANCH  13  15
ATOM     15  O   UNL     1      -2.294  11.637  16.142  0.00  0.00    +0.000 OA
ATOM     16  H   UNL     1      -2.757  12.240  15.534  0.00  0.00    +0.000 HD
ENDBRANCH  13  15
ENDBRANCH  12  13
ENDBRANCH   4   6
BRANCH   1  18
ATOM     17  C   UNL     1       1.938   8.467  18.775  0.00  0.00    +0.000 C 
ATOM     18  C   UNL     1       1.502   9.540  18.071  0.00  0.00    +0.000 C 
BRANCH  17  25
ATOM     19  C   UNL     1       6.789   4.226  15.231  0.00  0.00    +0.000 C 
ATOM     20  C   UNL     1       5.624   4.647  16.081  0.00  0.00    +0.000 A 
ATOM     21  C   UNL     1       4.808   3.692  16.709  0.00  0.00    +0.000 A 
ATOM     22  C   UNL     1       3.716   4.062  17.502  0.00  0.00    +0.000 A 
ATOM     23  C   UNL     1       3.477   5.430  17.642  0.00  0.00    +0.000 A 
ATOM     24  N   UNL     1       2.521   6.141  18.332  0.00  0.00    +0.000 N 
ATOM     25  C   UNL     1       2.753   7.487  18.135  0.00  0.00    +0.000 A 
ATOM     26  N   UNL     1       3.805   7.656  17.353  0.00  0.00    +0.000 NA
ATOM     27  C   UNL     1       4.256   6.405  17.038  0.00  0.00    +0.000 A 
ATOM     28  C   UNL     1       5.352   6.015  16.245  0.00  0.00    +0.000 A 
ATOM     29  H   UNL     1       1.791   5.730  18.893  0.00  0.00    +0.000 HD
ENDBRANCH  17  25
BRANCH  17  30
ATOM     30  C   UNL     1       1.511   8.386  20.232  0.00  0.00    +0.000 C 
ATOM     31  N   UNL     1       1.157   8.320  21.440  0.00  0.00    +0.000 NA
ENDBRANCH  17  30
ENDBRANCH   1  18
TORSDOF 6
ENDMDL
MODEL 4
REMARK VINA RESULT:      -8.1      1.813      2.344
REMARK  Name = 
REMARK  7 active torsions:
REMARK  status: ('A' for Active; 'I' for Inactive)
REMARK    1  A    between atoms: C_1  and  C_2
REMARK    2  A    between atoms: C_7  and  C_8
REMARK    3  A    between atoms: C_8  and  C_9
REMARK    4  A    between atoms: C_11  and  C_12
REMARK    5  A    between atoms: C_15  and  C_16
REMARK    6  A    between atoms: C_22  and  C_23
REMARK    7  A    between atoms: C_23  and  O_25
REMARK                            x       y       z     vdW  Elec       q    Type
REMARK                         _______ _______ _______ _____ _____    ______ ____
ROOT
ATOM      1  C   UNL     1       5.604   6.496  17.356  0.00  0.00    +0.000 A 
ATOM      2  C   UNL     1       5.361   5.634  16.288  0.00  0.00    +0.000 A 
ATOM      3  C   UNL     1       4.369   4.708  16.663  0.00  0.00    +0.000 A 
ATOM      4  C   UNL     1       4.154   4.910  18.005  0.00  0.00    +0.000 A 
ATOM      5  O   UNL     1       4.895   5.983  18.423  0.00  0.00    +0.000 OA
ENDROOT
BRANCH   4   6
ATOM      6  C   UNL     1       3.366   4.235  19.030  0.00  0.00    +0.000 A 
ATOM      7  C   UNL     1       2.980   5.005  20.149  0.00  0.00    +0.000 A 
ATOM      8  C   UNL     1       2.230   4.461  21.193  0.00  0.00    +0.000 A 
ATOM      9  C   UNL     1       1.840   3.131  21.133  0.00  0.00    +0.000 A 
ATOM     10 CL   UNL     1       0.944   2.444  22.427  0.00  0.00    +0.000 Cl
ATOM     11  C   UNL     1       2.184   2.351  20.033  0.00  0.00    +0.000 A 
ATOM     12  C   UNL     1       2.951   2.886  18.975  0.00  0.00    +0.000 A 
BRANCH  12  13
ATOM     13  C   UNL     1       3.208   1.908  17.869  0.00  0.00    +0.000 C 
ATOM     14  O   UNL     1       2.535   1.915  16.848  0.00  0.00    +0.000 OA
BRANCH  13  15
ATOM     15  O   UNL     1       4.149   0.976  18.091  0.00  0.00    +0.000 OA
ATOM     16  H   UNL     1       4.396   0.405  17.342  0.00  0.00    +0.000 HD
ENDBRANCH  13  15
ENDBRANCH  12  13
ENDBRANCH   4   6
BRANCH   1  18
ATOM     17  C   UNL     1       7.555   7.743  18.180  0.00  0.00    +0.000 C 
ATOM     18  C   UNL     1       6.420   7.678  17.441  0.00  0.00    +0.000 C 
BRANCH  17  25
ATOM     19  C   UNL     1      10.582  14.437  17.866  0.00  0.00    +0.000 C 
ATOM     20  C   UNL     1      10.250  13.049  18.333  0.00  0.00    +0.000 A 
ATOM     21  C   UNL     1      10.823  12.526  19.503  0.00  0.00    +0.000 A 
ATOM     22  C   UNL     1      10.531  11.233  19.954  0.00  0.00    +0.000 A 
ATOM     23  C   UNL     1       9.638  10.487  19.183  0.00  0.00    +0.000 A 
ATOM     24  N   UNL     1       9.129   9.215  19.320  0.00  0.00    +0.000 N 
ATOM     25  C   UNL     1       8.268   8.974  18.269  0.00  0.00    +0.000 A 
ATOM     26  N   UNL     1       8.213  10.031  17.477  0.00  0.00    +0.000 NA
ATOM     27  C   UNL     1       9.052  10.964  18.021  0.00  0.00    +0.000 A 
ATOM     28  C   UNL     1       9.355  12.268  17.583  0.00  0.00    +0.000 A 
ATOM     29  H   UNL     1       9.349   8.585  20.076  0.00  0.00    +0.000 HD
ENDBRANCH  17  25
BRANCH  17  30
ATOM     30  C   UNL     1       7.994   6.463  18.871  0.00  0.00    +0.000 C 
ATOM     31  N   UNL     1       8.358   5.401  19.445  0.00  0.00    +0.000 NA
ENDBRANCH  17  30
ENDBRANCH   1  18
TORSDOF 6
ENDMDL
MODEL 5
REMARK VINA RESULT:      -8.1      0.424      1.164
REMARK  Name = 
REMARK  7 active torsions:
REMARK  status: ('A' for Active; 'I' for Inactive)
REMARK    1  A    between atoms: C_1  and  C_2
REMARK    2  A    between atoms: C_7  and  C_8
REMARK    3  A    between atoms: C_8  and  C_9
REMARK    4  A    between atoms: C_11  and  C_12
REMARK    5  A    between atoms: C_15  and  C_16
REMARK    6  A    between atoms: C_22  and  C_23
REMARK    7  A    between atoms: C_23  and  O_25
REMARK                            x       y       z     vdW  Elec       q    Type
REMARK                         _______ _______ _______ _____ _____    ______ ____
ROOT
ATOM      1  C   UNL     1       6.421   6.410  16.658  0.00  0.00    +0.000 A 
ATOM      2  C   UNL     1       6.699   5.439  15.698  0.00  0.00    +0.000 A 
ATOM      3  C   UNL     1       5.655   4.493  15.688  0.00  0.00    +0.000 A 
ATOM      4  C   UNL     1       4.854   4.807  16.759  0.00  0.00    +0.000 A 
ATOM      5  O   UNL     1       5.312   5.958  17.343  0.00  0.00    +0.000 OA
ENDROOT
BRANCH   4   6
ATOM      6  C   UNL     1       3.695   4.184  17.389  0.00  0.00    +0.000 A 
ATOM      7  C   UNL     1       3.535   2.794  17.201  0.00  0.00    +0.000 A 
ATOM      8  C   UNL     1       2.460   2.095  17.752  0.00  0.00    +0.000 A 
ATOM      9  C   UNL     1       1.524   2.776  18.516  0.00  0.00    +0.000 A 
ATOM     10 CL   UNL     1       0.180   1.931  19.173  0.00  0.00    +0.000 Cl
ATOM     11  C   UNL     1       1.664   4.143  18.740  0.00  0.00    +0.000 A 
ATOM     12  C   UNL     1       2.741   4.862  18.179  0.00  0.00    +0.000 A 
BRANCH  12  13
ATOM     13  C   UNL     1       2.742   6.317  18.543  0.00  0.00    +0.000 C 
ATOM     14  O   UNL     1       2.258   7.156  17.797  0.00  0.00    +0.000 OA
BRANCH  13  15
ATOM     15  O   UNL     1       3.373   6.657  19.678  0.00  0.00    +0.000 OA
ATOM     16  H   UNL     1       4.016   7.387  19.629  0.00  0.00    +0.000 HD
ENDBRANCH  13  15
ENDBRANCH  12  13
ENDBRANCH   4   6
BRANCH   1  18
ATOM     17  C   UNL     1       7.864   7.809  18.072  0.00  0.00    +0.000 C 
ATOM     18  C   UNL     1       7.096   7.642  16.968  0.00  0.00    +0.000 C 
BRANCH  17  25
ATOM     19  C   UNL     1      11.506  13.861  20.119  0.00  0.00    +0.000 C 
ATOM     20  C   UNL     1      10.571  12.948  19.378  0.00  0.00    +0.000 A 
ATOM     21  C   UNL     1       9.798  13.423  18.307  0.00  0.00    +0.000 A 
ATOM     22  C   UNL     1       8.918  12.590  17.605  0.00  0.00    +0.000 A 
ATOM     23  C   UNL     1       8.848  11.260  18.021  0.00  0.00    +0.000 A 
ATOM     24  N   UNL     1       8.116  10.183  17.574  0.00  0.00    +0.000 N 
ATOM     25  C   UNL     1       8.440   9.084  18.344  0.00  0.00    +0.000 A 
ATOM     26  N   UNL     1       9.337   9.420  19.256  0.00  0.00    +0.000 NA
ATOM     27  C   UNL     1       9.593  10.750  19.074  0.00  0.00    +0.000 A 
ATOM     28  C   UNL     1      10.474  11.602  19.767  0.00  0.00    +0.000 A 
ATOM     29  H   UNL     1       7.468  10.208  16.801  0.00  0.00    +0.000 HD
ENDBRANCH  17  25
BRANCH  17  30
ATOM     30  C   UNL     1       8.060   6.590  18.958  0.00  0.00    +0.000 C 
ATOM     31  N   UNL     1       8.223   5.578  19.693  0.00  0.00    +0.000 NA
ENDBRANCH  17  30
ENDBRANCH   1  18
TORSDOF 6
ENDMDL
MODEL 6
REMARK VINA RESULT:      -8.1      1.215      1.272
REMARK  Name = 
REMARK  7 active torsions:
REMARK  status: ('A' for Active; 'I' for Inactive)
REMARK    1  A    between atoms: C_1  and  C_2
REMARK    2  A    between atoms: C_7  and  C_8
REMARK    3  A    between atoms: C_8  and  C_9
REMARK    4  A    between atoms: C_11  and  C_12
REMARK    5  A    between atoms: C_15  and  C_16
REMARK    6  A    between atoms: C_22  and  C_23
REMARK    7  A    between atoms: C_23  and  O_25
REMARK                            x       y       z     vdW  Elec       q    Type
REMARK                         _______ _______ _______ _____ _____    ______ ____
ROOT
ATOM      1  C   UNL     1       5.989   6.855  17.223  0.00  0.00    +0.000 A 
ATOM      2  C   UNL     1       5.722   6.039  16.125  0.00  0.00    +0.000 A 
ATOM      3  C   UNL     1       4.675   5.156  16.456  0.00  0.00    +0.000 A 
ATOM      4  C   UNL     1       4.447   5.329  17.799  0.00  0.00    +0.000 A 
ATOM      5  O   UNL     1       5.234   6.350  18.262  0.00  0.00    +0.000 OA
ENDROOT
BRANCH   4   6
ATOM      6  C   UNL     1       3.606   4.667  18.790  0.00  0.00    +0.000 A 
ATOM      7  C   UNL     1       3.809   3.282  18.977  0.00  0.00    +0.000 A 
ATOM      8  C   UNL     1       3.057   2.546  19.893  0.00  0.00    +0.000 A 
ATOM      9  C   UNL     1       2.089   3.186  20.653  0.00  0.00    +0.000 A 
ATOM     10 CL   UNL     1       1.137   2.283  21.761  0.00  0.00    +0.000 Cl
ATOM     11  C   UNL     1       1.879   4.555  20.509  0.00  0.00    +0.000 A 
ATOM     12  C   UNL     1       2.626   5.309  19.579  0.00  0.00    +0.000 A 
BRANCH  12  13
ATOM     13  C   UNL     1       2.279   6.767  19.576  0.00  0.00    +0.000 C 
ATOM     14  O   UNL     1       2.157   7.388  18.530  0.00  0.00    +0.000 OA
BRANCH  13  15
ATOM     15  O   UNL     1       2.196   7.372  20.772  0.00  0.00    +0.000 OA
ATOM     16  H   UNL     1       1.309   7.464  21.164  0.00  0.00    +0.000 HD
ENDBRANCH  13  15
ENDBRANCH  12  13
ENDBRANCH   4   6
BRANCH   1  18
ATOM     17  C   UNL     1       7.903   8.025  18.227  0.00  0.00    +0.000 C 
ATOM     18  C   UNL     1       6.863   7.990  17.358  0.00  0.00    +0.000 C 
BRANCH  17  25
ATOM     19  C   UNL     1      11.520  14.419  17.903  0.00  0.00    +0.000 C 
ATOM     20  C   UNL     1      10.946  13.138  18.435  0.00  0.00    +0.000 A 
ATOM     21  C   UNL     1      11.130  12.768  19.777  0.00  0.00    +0.000 A 
ATOM     22  C   UNL     1      10.606  11.576  20.292  0.00  0.00    +0.000 A 
ATOM     23  C   UNL     1       9.888  10.772  19.407  0.00  0.00    +0.000 A 
ATOM     24  N   UNL     1       9.244   9.564  19.560  0.00  0.00    +0.000 N 
ATOM     25  C   UNL     1       8.678   9.215  18.350  0.00  0.00    +0.000 A 
ATOM     26  N   UNL     1       8.939  10.141  17.444  0.00  0.00    +0.000 NA
ATOM     27  C   UNL     1       9.684  11.098  18.074  0.00  0.00    +0.000 A 
ATOM     28  C   UNL     1      10.216  12.302  17.573  0.00  0.00    +0.000 A 
ATOM     29  H   UNL     1       9.192   9.046  20.423  0.00  0.00    +0.000 HD
ENDBRANCH  17  25
BRANCH  17  30
ATOM     30  C   UNL     1       8.172   6.758  19.021  0.00  0.00    +0.000 C 
ATOM     31  N   UNL     1       8.394   5.706  19.681  0.00  0.00    +0.000 NA
ENDBRANCH  17  30
ENDBRANCH   1  18
TORSDOF 6
ENDMDL
MODEL 7
REMARK VINA RESULT:      -8.0      6.490      9.395
REMARK  Name = 
REMARK  7 active torsions:
REMARK  status: ('A' for Active; 'I' for Inactive)
REMARK    1  A    between atoms: C_1  and  C_2
REMARK    2  A    between atoms: C_7  and  C_8
REMARK    3  A    between atoms: C_8  and  C_9
REMARK    4  A    between atoms: C_11  and  C_12
REMARK    5  A    between atoms: C_15  and  C_16
REMARK    6  A    between atoms: C_22  and  C_23
REMARK    7  A    between atoms: C_23  and  O_25
REMARK                            x       y       z     vdW  Elec       q    Type
REMARK                         _______ _______ _______ _____ _____    ______ ____
ROOT
ATOM      1  C   UNL     1       0.885  10.954  18.772  0.00  0.00    +0.000 A 
ATOM      2  C   UNL     1       1.315  12.279  18.814  0.00  0.00    +0.000 A 
ATOM      3  C   UNL     1       0.407  13.031  19.585  0.00  0.00    +0.000 A 
ATOM      4  C   UNL     1      -0.647  12.191  19.849  0.00  0.00    +0.000 A 
ATOM      5  O   UNL     1      -0.362  10.943  19.362  0.00  0.00    +0.000 OA
ENDROOT
BRANCH   4   6
ATOM      6  C   UNL     1      -1.952  12.352  20.480  0.00  0.00    +0.000 A 
ATOM      7  C   UNL     1      -3.074  12.402  19.623  0.00  0.00    +0.000 A 
ATOM      8  C   UNL     1      -4.370  12.559  20.117  0.00  0.00    +0.000 A 
ATOM      9  C   UNL     1      -4.572  12.659  21.486  0.00  0.00    +0.000 A 
ATOM     10 CL   UNL     1      -6.160  12.884  22.101  0.00  0.00    +0.000 Cl
ATOM     11  C   UNL     1      -3.490  12.590  22.358  0.00  0.00    +0.000 A 
ATOM     12  C   UNL     1      -2.173  12.441  21.872  0.00  0.00    +0.000 A 
BRANCH  12  13
ATOM     13  C   UNL     1      -1.140  12.366  22.955  0.00  0.00    +0.000 C 
ATOM     14  O   UNL     1      -0.792  13.364  23.569  0.00  0.00    +0.000 OA
BRANCH  13  15
ATOM     15  O   UNL     1      -0.559  11.172  23.155  0.00  0.00    +0.000 OA
ATOM     16  H   UNL     1      -1.022  10.543  23.737  0.00  0.00    +0.000 HD
ENDBRANCH  13  15
ENDBRANCH  12  13
ENDBRANCH   4   6
BRANCH   1  18
ATOM     17  C   UNL     1       1.831   8.696  18.984  0.00  0.00    +0.000 C 
ATOM     18  C   UNL     1       1.517   9.779  18.233  0.00  0.00    +0.000 C 
BRANCH  17  25
ATOM     19  C   UNL     1       6.093   3.772  15.570  0.00  0.00    +0.000 C 
ATOM     20  C   UNL     1       5.018   4.360  16.436  0.00  0.00    +0.000 A 
ATOM     21  C   UNL     1       4.155   3.535  17.176  0.00  0.00    +0.000 A 
ATOM     22  C   UNL     1       3.144   4.063  17.987  0.00  0.00    +0.000 A 
ATOM     23  C   UNL     1       3.034   5.453  18.028  0.00  0.00    +0.000 A 
ATOM     24  N   UNL     1       2.182   6.300  18.701  0.00  0.00    +0.000 N 
ATOM     25  C   UNL     1       2.521   7.600  18.388  0.00  0.00    +0.000 A 
ATOM     26  N   UNL     1       3.541   7.612  17.547  0.00  0.00    +0.000 NA
ATOM     27  C   UNL     1       3.863   6.304  17.312  0.00  0.00    +0.000 A 
ATOM     28  C   UNL     1       4.876   5.756  16.503  0.00  0.00    +0.000 A 
ATOM     29  H   UNL     1       1.450   6.001  19.327  0.00  0.00    +0.000 HD
ENDBRANCH  17  25
BRANCH  17  30
ATOM     30  C   UNL     1       1.409   8.731  20.444  0.00  0.00    +0.000 C 
ATOM     31  N   UNL     1       1.059   8.761  21.655  0.00  0.00    +0.000 NA
ENDBRANCH  17  30
ENDBRANCH   1  18
TORSDOF 6
ENDMDL
MODEL 8
REMARK VINA RESULT:      -8.0      1.375      2.133
REMARK  Name = 
REMARK  7 active torsions:
REMARK  status: ('A' for Active; 'I' for Inactive)
REMARK    1  A    between atoms: C_1  and  C_2
REMARK    2  A    between atoms: C_7  and  C_8
REMARK    3  A    between atoms: C_8  and  C_9
REMARK    4  A    between atoms: C_11  and  C_12
REMARK    5  A    between atoms: C_15  and  C_16
REMARK    6  A    between atoms: C_22  and  C_23
REMARK    7  A    between atoms: C_23  and  O_25
REMARK                            x       y       z     vdW  Elec       q    Type
REMARK                         _______ _______ _______ _____ _____    ______ ____
ROOT
ATOM      1  C   UNL     1       6.144   6.507  16.762  0.00  0.00    +0.000 A 
ATOM      2  C   UNL     1       6.277   5.583  15.728  0.00  0.00    +0.000 A 
ATOM      3  C   UNL     1       5.232   4.643  15.816  0.00  0.00    +0.000 A 
ATOM      4  C   UNL     1       4.588   4.907  17.000  0.00  0.00    +0.000 A 
ATOM      5  O   UNL     1       5.134   6.027  17.571  0.00  0.00    +0.000 OA
ENDROOT
BRANCH   4   6
ATOM      6  C   UNL     1       3.520   4.260  17.753  0.00  0.00    +0.000 A 
ATOM      7  C   UNL     1       2.198   4.482  17.307  0.00  0.00    +0.000 A 
ATOM      8  C   UNL     1       1.098   3.917  17.954  0.00  0.00    +0.000 A 
ATOM      9  C   UNL     1       1.300   3.106  19.062  0.00  0.00    +0.000 A 
ATOM     10 CL   UNL     1      -0.049   2.433  19.884  0.00  0.00    +0.000 Cl
ATOM     11  C   UNL     1       2.591   2.849  19.513  0.00  0.00    +0.000 A 
ATOM     12  C   UNL     1       3.711   3.421  18.873  0.00  0.00    +0.000 A 
BRANCH  12  13
ATOM     13  C   UNL     1       5.019   3.017  19.483  0.00  0.00    +0.000 C 
ATOM     14  O   UNL     1       5.085   2.110  20.300  0.00  0.00    +0.000 OA
BRANCH  13  15
ATOM     15  O   UNL     1       6.094   3.754  19.155  0.00  0.00    +0.000 OA
ATOM     16  H   UNL     1       6.785   3.859  19.833  0.00  0.00    +0.000 HD
ENDBRANCH  13  15
ENDBRANCH  12  13
ENDBRANCH   4   6
BRANCH   1  18
ATOM     17  C   UNL     1       7.757   7.840  18.051  0.00  0.00    +0.000 C 
ATOM     18  C   UNL     1       6.868   7.720  17.036  0.00  0.00    +0.000 C 
BRANCH  17  25
ATOM     19  C   UNL     1      11.654  13.783  19.940  0.00  0.00    +0.000 C 
ATOM     20  C   UNL     1      10.661  12.898  19.242  0.00  0.00    +0.000 A 
ATOM     21  C   UNL     1       9.851  13.398  18.210  0.00  0.00    +0.000 A 
ATOM     22  C   UNL     1       8.917  12.592  17.549  0.00  0.00    +0.000 A 
ATOM     23  C   UNL     1       8.831  11.262  17.963  0.00  0.00    +0.000 A 
ATOM     24  N   UNL     1       8.049  10.207  17.548  0.00  0.00    +0.000 N 
ATOM     25  C   UNL     1       8.380   9.097  18.299  0.00  0.00    +0.000 A 
ATOM     26  N   UNL     1       9.327   9.405  19.168  0.00  0.00    +0.000 NA
ATOM     27  C   UNL     1       9.610  10.729  18.979  0.00  0.00    +0.000 A 
ATOM     28  C   UNL     1      10.546  11.553  19.632  0.00  0.00    +0.000 A 
ATOM     29  H   UNL     1       7.367  10.253  16.807  0.00  0.00    +0.000 HD
ENDBRANCH  17  25
BRANCH  17  30
ATOM     30  C   UNL     1       8.033   6.587  18.868  0.00  0.00    +0.000 C 
ATOM     31  N   UNL     1       8.262   5.549  19.545  0.00  0.00    +0.000 NA
ENDBRANCH  17  30
ENDBRANCH   1  18
TORSDOF 6
ENDMDL
MODEL 9
REMARK VINA RESULT:      -7.9      5.821      7.651
REMARK  Name = 
REMARK  7 active torsions:
REMARK  status: ('A' for Active; 'I' for Inactive)
REMARK    1  A    between atoms: C_1  and  C_2
REMARK    2  A    between atoms: C_7  and  C_8
REMARK    3  A    between atoms: C_8  and  C_9
REMARK    4  A    between atoms: C_11  and  C_12
REMARK    5  A    between atoms: C_15  and  C_16
REMARK    6  A    between atoms: C_22  and  C_23
REMARK    7  A    between atoms: C_23  and  O_25
REMARK                            x       y       z     vdW  Elec       q    Type
REMARK                         _______ _______ _______ _____ _____    ______ ____
ROOT
ATOM      1  C   UNL     1       1.761   6.938  20.418  0.00  0.00    +0.000 A 
ATOM      2  C   UNL     1       1.510   5.615  20.774  0.00  0.00    +0.000 A 
ATOM      3  C   UNL     1       2.363   4.772  20.035  0.00  0.00    +0.000 A 
ATOM      4  C   UNL     1       2.989   5.582  19.119  0.00  0.00    +0.000 A 
ATOM      5  O   UNL     1       2.630   6.884  19.347  0.00  0.00    +0.000 OA
ENDROOT
BRANCH   4   6
ATOM      6  C   UNL     1       3.887   5.352  17.993  0.00  0.00    +0.000 A 
ATOM      7  C   UNL     1       4.281   6.486  17.248  0.00  0.00    +0.000 A 
ATOM      8  C   UNL     1       5.132   6.383  16.147  0.00  0.00    +0.000 A 
ATOM      9  C   UNL     1       5.617   5.139  15.773  0.00  0.00    +0.000 A 
ATOM     10 CL   UNL     1       6.641   4.998  14.400  0.00  0.00    +0.000 Cl
ATOM     11  C   UNL     1       5.267   4.005  16.499  0.00  0.00    +0.000 A 
ATOM     12  C   UNL     1       4.400   4.093  17.609  0.00  0.00    +0.000 A 
BRANCH  12  13
ATOM     13  C   UNL     1       4.151   2.776  18.280  0.00  0.00    +0.000 C 
ATOM     14  O   UNL     1       3.224   2.056  17.939  0.00  0.00    +0.000 OA
BRANCH  13  15
ATOM     15  O   UNL     1       4.939   2.471  19.324  0.00  0.00    +0.000 OA
ATOM     16  H   UNL     1       5.541   3.165  19.646  0.00  0.00    +0.000 HD
ENDBRANCH  13  15
ENDBRANCH  12  13
ENDBRANCH   4   6
BRANCH   1  18
ATOM     17  C   UNL     1       1.104   9.300  20.234  0.00  0.00    +0.000 C 
ATOM     18  C   UNL     1       1.257   8.170  20.966  0.00  0.00    +0.000 C 
BRANCH  17  25
ATOM     19  C   UNL     1      -0.585  15.992  22.769  0.00  0.00    +0.000 C 
ATOM     20  C   UNL     1      -0.593  14.503  22.576  0.00  0.00    +0.000 A 
ATOM     21  C   UNL     1      -1.486  13.688  23.290  0.00  0.00    +0.000 A 
ATOM     22  C   UNL     1      -1.508  12.298  23.127  0.00  0.00    +0.000 A 
ATOM     23  C   UNL     1      -0.598  11.758  22.217  0.00  0.00    +0.000 A 
ATOM     24  N   UNL     1      -0.345  10.468  21.809  0.00  0.00    +0.000 N 
ATOM     25  C   UNL     1       0.666  10.498  20.869  0.00  0.00    +0.000 A 
ATOM     26  N   UNL     1       1.063  11.743  20.671  0.00  0.00    +0.000 NA
ATOM     27  C   UNL     1       0.302  12.526  21.493  0.00  0.00    +0.000 A 
ATOM     28  C   UNL     1       0.308  13.923  21.668  0.00  0.00    +0.000 A 
ATOM     29  H   UNL     1      -0.837   9.653  22.140  0.00  0.00    +0.000 HD
ENDBRANCH  17  25
BRANCH  17  30
ATOM     30  C   UNL     1       1.417   9.199  18.750  0.00  0.00    +0.000 C 
ATOM     31  N   UNL     1       1.676   9.115  17.519  0.00  0.00    +0.000 NA
ENDBRANCH  17  30
ENDBRANCH   1  18
TORSDOF 6
ENDMDL
