MODEL 1
REMARK VINA RESULT:      -6.8      0.000      0.000
REMARK  Name = 
REMARK  5 active torsions:
REMARK  status: ('A' for Active; 'I' for Inactive)
REMARK    1  A    between atoms: C_1  and  C_2
REMARK    2  A    between atoms: C_5  and  C_6
REMARK    3  A    between atoms: C_6  and  N_7
REMARK    4  A    between atoms: N_7  and  C_8
REMARK    5  A    between atoms: C_11  and  O_12
REMARK                            x       y       z     vdW  Elec       q    Type
REMARK                         _______ _______ _______ _____ _____    ______ ____
ROOT
ATOM      1  N   UNL     1       6.064   3.866  16.466  0.00  0.00    +0.000 N 
ATOM      2  H   UNL     1       6.642   3.554  15.690  0.00  0.00    +0.000 HD
ENDROOT
BRANCH   1   3
ATOM      3  C   UNL     1       6.671   4.904  17.187  0.00  0.00    +0.000 A 
ATOM      4  C   UNL     1       7.270   4.723  18.441  0.00  0.00    +0.000 A 
ATOM      5  C   UNL     1       7.936   5.768  19.093  0.00  0.00    +0.000 A 
ATOM      6  C   UNL     1       8.031   7.007  18.475  0.00  0.00    +0.000 A 
ATOM      7  C   UNL     1       7.484   7.208  17.217  0.00  0.00    +0.000 A 
ATOM      8  C   UNL     1       6.826   6.156  16.571  0.00  0.00    +0.000 A 
BRANCH   6   9
ATOM      9  O   UNL     1       8.674   8.051  19.072  0.00  0.00    +0.000 OA
ATOM     10  H   UNL     1       8.328   8.150  19.974  0.00  0.00    +0.000 HD
ENDBRANCH   6   9
ENDBRANCH   1   3
BRANCH   1  11
ATOM     11  C   UNL     1       4.669   4.017  16.067  0.00  0.00    +0.000 C 
BRANCH  11  16
ATOM     12  C   UNL     1       0.994   3.160  20.516  0.00  0.00    +0.000 C 
ATOM     13  C   UNL     1       1.951   3.396  19.384  0.00  0.00    +0.000 A 
ATOM     14  C   UNL     1       2.061   4.653  18.782  0.00  0.00    +0.000 A 
ATOM     15  C   UNL     1       2.954   4.856  17.726  0.00  0.00    +0.000 A 
ATOM     16  C   UNL     1       3.753   3.805  17.250  0.00  0.00    +0.000 A 
ATOM     17  C   UNL     1       3.638   2.547  17.855  0.00  0.00    +0.000 A 
ATOM     18  C   UNL     1       2.744   2.344  18.911  0.00  0.00    +0.000 A 
ENDBRANCH  11  16
ENDBRANCH   1  11
TORSDOF 4
ENDMDL
MODEL 2
REMARK VINA RESULT:      -6.8      0.343      1.729
REMARK  Name = 
REMARK  5 active torsions:
REMARK  status: ('A' for Active; 'I' for Inactive)
REMARK    1  A    between atoms: C_1  and  C_2
REMARK    2  A    between atoms: C_5  and  C_6
REMARK    3  A    between atoms: C_6  and  N_7
REMARK    4  A    between atoms: N_7  and  C_8
REMARK    5  A    between atoms: C_11  and  O_12
REMARK                            x       y       z     vdW  Elec       q    Type
REMARK                         _______ _______ _______ _____ _____    ______ ____
ROOT
ATOM      1  N   UNL     1       5.884   3.759  16.712  0.00  0.00    +0.000 N 
ATOM      2  H   UNL     1       6.381   3.269  15.972  0.00  0.00    +0.000 HD
ENDROOT
BRANCH   1   3
ATOM      3  C   UNL     1       6.627   4.835  17.219  0.00  0.00    +0.000 A 
ATOM      4  C   UNL     1       6.683   6.091  16.601  0.00  0.00    +0.000 A 
ATOM      5  C   UNL     1       7.372   7.164  17.180  0.00  0.00    +0.000 A 
ATOM      6  C   UNL     1       7.993   6.991  18.410  0.00  0.00    +0.000 A 
ATOM      7  C   UNL     1       7.923   5.772  19.067  0.00  0.00    +0.000 A 
ATOM      8  C   UNL     1       7.227   4.709  18.482  0.00  0.00    +0.000 A 
BRANCH   6   9
ATOM      9  O   UNL     1       8.672   8.009  19.012  0.00  0.00    +0.000 OA
ATOM     10  H   UNL     1       9.617   7.905  18.819  0.00  0.00    +0.000 HD
ENDBRANCH   6   9
ENDBRANCH   1   3
BRANCH   1  11
ATOM     11  C   UNL     1       4.486   3.983  16.359  0.00  0.00    +0.000 C 
BRANCH  11  16
ATOM     12  C   UNL     1       1.180   2.978  21.060  0.00  0.00    +0.000 C 
ATOM     13  C   UNL     1       2.016   3.225  19.838  0.00  0.00    +0.000 A 
ATOM     14  C   UNL     1       2.620   2.167  19.152  0.00  0.00    +0.000 A 
ATOM     15  C   UNL     1       3.400   2.413  18.018  0.00  0.00    +0.000 A 
ATOM     16  C   UNL     1       3.590   3.721  17.548  0.00  0.00    +0.000 A 
ATOM     17  C   UNL     1       2.984   4.778  18.239  0.00  0.00    +0.000 A 
ATOM     18  C   UNL     1       2.206   4.531  19.374  0.00  0.00    +0.000 A 
ENDBRANCH  11  16
ENDBRANCH   1  11
TORSDOF 4
ENDMDL
MODEL 3
REMARK VINA RESULT:      -6.7      0.283      1.234
REMARK  Name = 
REMARK  5 active torsions:
REMARK  status: ('A' for Active; 'I' for Inactive)
REMARK    1  A    between atoms: C_1  and  C_2
REMARK    2  A    between atoms: C_5  and  C_6
REMARK    3  A    between atoms: C_6  and  N_7
REMARK    4  A    between atoms: N_7  and  C_8
REMARK    5  A    between atoms: C_11  and  O_12
REMARK                            x       y       z     vdW  Elec       q    Type
REMARK                         _______ _______ _______ _____ _____    ______ ____
ROOT
ATOM      1  N   UNL     1       6.237   3.895  16.758  0.00  0.00    +0.000 N 
ATOM      2  H   UNL     1       6.889   3.432  16.128  0.00  0.00    +0.000 HD
ENDROOT
BRANCH   1   3
ATOM      3  C   UNL     1       6.818   5.004  17.391  0.00  0.00    +0.000 A 
ATOM      4  C   UNL     1       7.494   4.924  18.616  0.00  0.00    +0.000 A 
ATOM      5  C   UNL     1       8.130   6.038  19.177  0.00  0.00    +0.000 A 
ATOM      6  C   UNL     1       8.116   7.246  18.493  0.00  0.00    +0.000 A 
ATOM      7  C   UNL     1       7.490   7.349  17.261  0.00  0.00    +0.000 A 
ATOM      8  C   UNL     1       6.863   6.228  16.706  0.00  0.00    +0.000 A 
BRANCH   6   9
ATOM      9  O   UNL     1       8.725   8.356  19.001  0.00  0.00    +0.000 OA
ATOM     10  H   UNL     1       8.856   8.227  19.954  0.00  0.00    +0.000 HD
ENDBRANCH   6   9
ENDBRANCH   1   3
BRANCH   1  11
ATOM     11  C   UNL     1       4.922   4.052  16.146  0.00  0.00    +0.000 C 
BRANCH  11  16
ATOM     12  C   UNL     1       0.848   3.503  20.285  0.00  0.00    +0.000 C 
ATOM     13  C   UNL     1       1.884   3.631  19.207  0.00  0.00    +0.000 A 
ATOM     14  C   UNL     1       2.580   2.513  18.739  0.00  0.00    +0.000 A 
ATOM     15  C   UNL     1       3.546   2.648  17.737  0.00  0.00    +0.000 A 
ATOM     16  C   UNL     1       3.833   3.905  17.184  0.00  0.00    +0.000 A 
ATOM     17  C   UNL     1       3.134   5.023  17.656  0.00  0.00    +0.000 A 
ATOM     18  C   UNL     1       2.170   4.887  18.659  0.00  0.00    +0.000 A 
ENDBRANCH  11  16
ENDBRANCH   1  11
TORSDOF 4
ENDMDL
MODEL 4
REMARK VINA RESULT:      -6.7      2.777      5.986
REMARK  Name = 
REMARK  5 active torsions:
REMARK  status: ('A' for Active; 'I' for Inactive)
REMARK    1  A    between atoms: C_1  and  C_2
REMARK    2  A    between atoms: C_5  and  C_6
REMARK    3  A    between atoms: C_6  and  N_7
REMARK    4  A    between atoms: N_7  and  C_8
REMARK    5  A    between atoms: C_11  and  O_12
REMARK                            x       y       z     vdW  Elec       q    Type
REMARK                         _______ _______ _______ _____ _____    ______ ____
ROOT
ATOM      1  N   UNL     1       3.200   3.797  17.261  0.00  0.00    +0.000 N 
ATOM      2  H   UNL     1       2.563   3.494  16.529  0.00  0.00    +0.000 HD
ENDROOT
BRANCH   1   3
ATOM      3  C   UNL     1       2.755   3.412  18.535  0.00  0.00    +0.000 A 
ATOM      4  C   UNL     1       3.592   2.842  19.503  0.00  0.00    +0.000 A 
ATOM      5  C   UNL     1       3.128   2.545  20.790  0.00  0.00    +0.000 A 
ATOM      6  C   UNL     1       1.816   2.846  21.128  0.00  0.00    +0.000 A 
ATOM      7  C   UNL     1       0.973   3.447  20.206  0.00  0.00    +0.000 A 
ATOM      8  C   UNL     1       1.448   3.745  18.925  0.00  0.00    +0.000 A 
BRANCH   6   9
ATOM      9  O   UNL     1       1.323   2.577  22.371  0.00  0.00    +0.000 OA
ATOM     10  H   UNL     1       1.527   3.327  22.952  0.00  0.00    +0.000 HD
ENDBRANCH   6   9
ENDBRANCH   1   3
BRANCH   1  11
ATOM     11  C   UNL     1       4.590   3.538  16.901  0.00  0.00    +0.000 C 
BRANCH  11  16
ATOM     12  C   UNL     1       7.964   8.219  17.758  0.00  0.00    +0.000 C 
ATOM     13  C   UNL     1       7.095   7.012  17.560  0.00  0.00    +0.000 A 
ATOM     14  C   UNL     1       7.518   5.743  17.968  0.00  0.00    +0.000 A 
ATOM     15  C   UNL     1       6.700   4.627  17.773  0.00  0.00    +0.000 A 
ATOM     16  C   UNL     1       5.442   4.758  17.165  0.00  0.00    +0.000 A 
ATOM     17  C   UNL     1       5.022   6.031  16.757  0.00  0.00    +0.000 A 
ATOM     18  C   UNL     1       5.842   7.146  16.951  0.00  0.00    +0.000 A 
ENDBRANCH  11  16
ENDBRANCH   1  11
TORSDOF 4
ENDMDL
MODEL 5
REMARK VINA RESULT:      -6.6      2.777      5.819
REMARK  Name = 
REMARK  5 active torsions:
REMARK  status: ('A' for Active; 'I' for Inactive)
REMARK    1  A    between atoms: C_1  and  C_2
REMARK    2  A    between atoms: C_5  and  C_6
REMARK    3  A    between atoms: C_6  and  N_7
REMARK    4  A    between atoms: N_7  and  C_8
REMARK    5  A    between atoms: C_11  and  O_12
REMARK                            x       y       z     vdW  Elec       q    Type
REMARK                         _______ _______ _______ _____ _____    ______ ____
ROOT
ATOM      1  N   UNL     1       4.452   2.699  17.457  0.00  0.00    +0.000 N 
ATOM      2  H   UNL     1       5.422   2.555  17.731  0.00  0.00    +0.000 HD
ENDROOT
BRANCH   1   3
ATOM      3  C   UNL     1       3.582   2.621  18.554  0.00  0.00    +0.000 A 
ATOM      4  C   UNL     1       4.017   2.659  19.886  0.00  0.00    +0.000 A 
ATOM      5  C   UNL     1       3.111   2.660  20.953  0.00  0.00    +0.000 A 
ATOM      6  C   UNL     1       1.748   2.650  20.691  0.00  0.00    +0.000 A 
ATOM      7  C   UNL     1       1.284   2.653  19.384  0.00  0.00    +0.000 A 
ATOM      8  C   UNL     1       2.197   2.658  18.325  0.00  0.00    +0.000 A 
BRANCH   6   9
ATOM      9  O   UNL     1       0.830   2.654  21.700  0.00  0.00    +0.000 OA
ATOM     10  H   UNL     1      -0.056   2.720  21.310  0.00  0.00    +0.000 HD
ENDBRANCH   6   9
ENDBRANCH   1   3
BRANCH   1  11
ATOM     11  C   UNL     1       4.317   3.823  16.538  0.00  0.00    +0.000 C 
BRANCH  11  16
ATOM     12  C   UNL     1       8.079   8.032  18.012  0.00  0.00    +0.000 C 
ATOM     13  C   UNL     1       7.114   6.955  17.611  0.00  0.00    +0.000 A 
ATOM     14  C   UNL     1       5.905   7.267  16.981  0.00  0.00    +0.000 A 
ATOM     15  C   UNL     1       5.014   6.253  16.618  0.00  0.00    +0.000 A 
ATOM     16  C   UNL     1       5.314   4.908  16.877  0.00  0.00    +0.000 A 
ATOM     17  C   UNL     1       6.526   4.599  17.510  0.00  0.00    +0.000 A 
ATOM     18  C   UNL     1       7.415   5.614  17.874  0.00  0.00    +0.000 A 
ENDBRANCH  11  16
ENDBRANCH   1  11
TORSDOF 4
ENDMDL
MODEL 6
REMARK VINA RESULT:      -6.5      2.718      5.901
REMARK  Name = 
REMARK  5 active torsions:
REMARK  status: ('A' for Active; 'I' for Inactive)
REMARK    1  A    between atoms: C_1  and  C_2
REMARK    2  A    between atoms: C_5  and  C_6
REMARK    3  A    between atoms: C_6  and  N_7
REMARK    4  A    between atoms: N_7  and  C_8
REMARK    5  A    between atoms: C_11  and  O_12
REMARK                            x       y       z     vdW  Elec       q    Type
REMARK                         _______ _______ _______ _____ _____    ______ ____
ROOT
ATOM      1  N   UNL     1       3.162   4.001  17.281  0.00  0.00    +0.000 N 
ATOM      2  H   UNL     1       2.481   3.654  16.609  0.00  0.00    +0.000 HD
ENDROOT
BRANCH   1   3
ATOM      3  C   UNL     1       2.757   3.768  18.604  0.00  0.00    +0.000 A 
ATOM      4  C   UNL     1       1.678   4.428  19.206  0.00  0.00    +0.000 A 
ATOM      5  C   UNL     1       1.255   4.111  20.502  0.00  0.00    +0.000 A 
ATOM      6  C   UNL     1       1.900   3.099  21.201  0.00  0.00    +0.000 A 
ATOM      7  C   UNL     1       2.945   2.399  20.619  0.00  0.00    +0.000 A 
ATOM      8  C   UNL     1       3.356   2.720  19.321  0.00  0.00    +0.000 A 
BRANCH   6   9
ATOM      9  O   UNL     1       1.518   2.755  22.464  0.00  0.00    +0.000 OA
ATOM     10  H   UNL     1       0.652   2.319  22.417  0.00  0.00    +0.000 HD
ENDBRANCH   6   9
ENDBRANCH   1   3
BRANCH   1  11
ATOM     11  C   UNL     1       4.523   3.645  16.896  0.00  0.00    +0.000 C 
BRANCH  11  16
ATOM     12  C   UNL     1       8.037   8.191  17.905  0.00  0.00    +0.000 C 
ATOM     13  C   UNL     1       7.137   7.024  17.623  0.00  0.00    +0.000 A 
ATOM     14  C   UNL     1       5.965   7.180  16.878  0.00  0.00    +0.000 A 
ATOM     15  C   UNL     1       5.134   6.084  16.627  0.00  0.00    +0.000 A 
ATOM     16  C   UNL     1       5.459   4.811  17.118  0.00  0.00    +0.000 A 
ATOM     17  C   UNL     1       6.634   4.659  17.865  0.00  0.00    +0.000 A 
ATOM     18  C   UNL     1       7.464   5.755  18.117  0.00  0.00    +0.000 A 
ENDBRANCH  11  16
ENDBRANCH   1  11
TORSDOF 4
ENDMDL
MODEL 7
REMARK VINA RESULT:      -6.5      2.599      5.826
REMARK  Name = 
REMARK  5 active torsions:
REMARK  status: ('A' for Active; 'I' for Inactive)
REMARK    1  A    between atoms: C_1  and  C_2
REMARK    2  A    between atoms: C_5  and  C_6
REMARK    3  A    between atoms: C_6  and  N_7
REMARK    4  A    between atoms: N_7  and  C_8
REMARK    5  A    between atoms: C_11  and  O_12
REMARK                            x       y       z     vdW  Elec       q    Type
REMARK                         _______ _______ _______ _____ _____    ______ ____
ROOT
ATOM      1  N   UNL     1       3.360   3.781  17.051  0.00  0.00    +0.000 N 
ATOM      2  H   UNL     1       2.732   3.237  16.464  0.00  0.00    +0.000 HD
ENDROOT
BRANCH   1   3
ATOM      3  C   UNL     1       3.021   3.688  18.408  0.00  0.00    +0.000 A 
ATOM      4  C   UNL     1       2.006   4.450  19.002  0.00  0.00    +0.000 A 
ATOM      5  C   UNL     1       1.644   4.271  20.343  0.00  0.00    +0.000 A 
ATOM      6  C   UNL     1       2.284   3.298  21.098  0.00  0.00    +0.000 A 
ATOM      7  C   UNL     1       3.264   2.500  20.529  0.00  0.00    +0.000 A 
ATOM      8  C   UNL     1       3.615   2.683  19.188  0.00  0.00    +0.000 A 
BRANCH   6   9
ATOM      9  O   UNL     1       1.960   3.087  22.405  0.00  0.00    +0.000 OA
ATOM     10  H   UNL     1       1.359   3.793  22.692  0.00  0.00    +0.000 HD
ENDBRANCH   6   9
ENDBRANCH   1   3
BRANCH   1  11
ATOM     11  C   UNL     1       4.754   3.588  16.665  0.00  0.00    +0.000 C 
BRANCH  11  16
ATOM     12  C   UNL     1       8.026   8.263  17.879  0.00  0.00    +0.000 C 
ATOM     13  C   UNL     1       7.181   7.057  17.589  0.00  0.00    +0.000 A 
ATOM     14  C   UNL     1       7.569   5.784  18.017  0.00  0.00    +0.000 A 
ATOM     15  C   UNL     1       6.774   4.670  17.735  0.00  0.00    +0.000 A 
ATOM     16  C   UNL     1       5.576   4.806  17.020  0.00  0.00    +0.000 A 
ATOM     17  C   UNL     1       5.190   6.084  16.591  0.00  0.00    +0.000 A 
ATOM     18  C   UNL     1       5.987   7.197  16.872  0.00  0.00    +0.000 A 
ENDBRANCH  11  16
ENDBRANCH   1  11
TORSDOF 4
ENDMDL
MODEL 8
REMARK VINA RESULT:      -6.5      1.996      2.693
REMARK  Name = 
REMARK  5 active torsions:
REMARK  status: ('A' for Active; 'I' for Inactive)
REMARK    1  A    between atoms: C_1  and  C_2
REMARK    2  A    between atoms: C_5  and  C_6
REMARK    3  A    between atoms: C_6  and  N_7
REMARK    4  A    between atoms: N_7  and  C_8
REMARK    5  A    between atoms: C_11  and  O_12
REMARK                            x       y       z     vdW  Elec       q    Type
REMARK                         _______ _______ _______ _____ _____    ______ ____
ROOT
ATOM      1  N   UNL     1       4.011   7.047  16.671  0.00  0.00    +0.000 N 
ATOM      2  H   UNL     1       4.161   7.820  16.027  0.00  0.00    +0.000 HD
ENDROOT
BRANCH   1   3
ATOM      3  C   UNL     1       5.192   6.329  16.912  0.00  0.00    +0.000 A 
ATOM      4  C   UNL     1       6.177   6.750  17.815  0.00  0.00    +0.000 A 
ATOM      5  C   UNL     1       7.305   5.966  18.087  0.00  0.00    +0.000 A 
ATOM      6  C   UNL     1       7.441   4.730  17.471  0.00  0.00    +0.000 A 
ATOM      7  C   UNL     1       6.464   4.266  16.603  0.00  0.00    +0.000 A 
ATOM      8  C   UNL     1       5.338   5.055  16.342  0.00  0.00    +0.000 A 
BRANCH   6   9
ATOM      9  O   UNL     1       8.520   3.932  17.710  0.00  0.00    +0.000 OA
ATOM     10  H   UNL     1       8.700   3.410  16.912  0.00  0.00    +0.000 HD
ENDBRANCH   6   9
ENDBRANCH   1   3
BRANCH   1  11
ATOM     11  C   UNL     1       3.196   7.452  17.812  0.00  0.00    +0.000 C 
BRANCH  11  16
ATOM     12  C   UNL     1       1.043   2.859  20.692  0.00  0.00    +0.000 C 
ATOM     13  C   UNL     1       1.618   4.035  19.959  0.00  0.00    +0.000 A 
ATOM     14  C   UNL     1       2.237   5.082  20.647  0.00  0.00    +0.000 A 
ATOM     15  C   UNL     1       2.764   6.174  19.951  0.00  0.00    +0.000 A 
ATOM     16  C   UNL     1       2.680   6.239  18.552  0.00  0.00    +0.000 A 
ATOM     17  C   UNL     1       2.058   5.188  17.865  0.00  0.00    +0.000 A 
ATOM     18  C   UNL     1       1.530   4.098  18.563  0.00  0.00    +0.000 A 
ENDBRANCH  11  16
ENDBRANCH   1  11
TORSDOF 4
ENDMDL
MODEL 9
REMARK VINA RESULT:      -6.5      2.563      5.814
REMARK  Name = 
REMARK  5 active torsions:
REMARK  status: ('A' for Active; 'I' for Inactive)
REMARK    1  A    between atoms: C_1  and  C_2
REMARK    2  A    between atoms: C_5  and  C_6
REMARK    3  A    between atoms: C_6  and  N_7
REMARK    4  A    between atoms: N_7  and  C_8
REMARK    5  A    between atoms: C_11  and  O_12
REMARK                            x       y       z     vdW  Elec       q    Type
REMARK                         _______ _______ _______ _____ _____    ______ ____
ROOT
ATOM      1  N   UNL     1       4.800   2.837  17.056  0.00  0.00    +0.000 N 
ATOM      2  H   UNL     1       5.609   2.533  17.593  0.00  0.00    +0.000 HD
ENDROOT
BRANCH   1   3
ATOM      3  C   UNL     1       3.699   3.115  17.879  0.00  0.00    +0.000 A 
ATOM      4  C   UNL     1       2.490   3.636  17.398  0.00  0.00    +0.000 A 
ATOM      5  C   UNL     1       1.388   3.826  18.239  0.00  0.00    +0.000 A 
ATOM      6  C   UNL     1       1.480   3.466  19.577  0.00  0.00    +0.000 A 
ATOM      7  C   UNL     1       2.649   2.912  20.076  0.00  0.00    +0.000 A 
ATOM      8  C   UNL     1       3.743   2.721  19.225  0.00  0.00    +0.000 A 
BRANCH   6   9
ATOM      9  O   UNL     1       0.430   3.631  20.431  0.00  0.00    +0.000 OA
ATOM     10  H   UNL     1       0.027   4.497  20.260  0.00  0.00    +0.000 HD
ENDBRANCH   6   9
ENDBRANCH   1   3
BRANCH   1  11
ATOM     11  C   UNL     1       5.171   3.811  16.035  0.00  0.00    +0.000 C 
BRANCH  11  16
ATOM     12  C   UNL     1       8.292   8.078  18.503  0.00  0.00    +0.000 C 
ATOM     13  C   UNL     1       7.496   6.988  17.848  0.00  0.00    +0.000 A 
ATOM     14  C   UNL     1       6.418   7.286  17.009  0.00  0.00    +0.000 A 
ATOM     15  C   UNL     1       5.682   6.260  16.409  0.00  0.00    +0.000 A 
ATOM     16  C   UNL     1       6.010   4.915  16.637  0.00  0.00    +0.000 A 
ATOM     17  C   UNL     1       7.091   4.620  17.479  0.00  0.00    +0.000 A 
ATOM     18  C   UNL     1       7.824   5.647  18.080  0.00  0.00    +0.000 A 
ENDBRANCH  11  16
ENDBRANCH   1  11
TORSDOF 4
ENDMDL
