MODEL 1
REMARK VINA RESULT:      -7.6      0.000      0.000
REMARK  Name = 
REMARK  6 active torsions:
REMARK  status: ('A' for Active; 'I' for Inactive)
REMARK    1  A    between atoms: C_1  and  O_2
REMARK    2  A    between atoms: O_2  and  C_3
REMARK    3  A    between atoms: N_5  and  N_6
REMARK    4  A    between atoms: C_7  and  C_8
REMARK    5  A    between atoms: C_18  and  C_19
REMARK    6  A    between atoms: C_21  and  N_22
REMARK                            x       y       z     vdW  Elec       q    Type
REMARK                         _______ _______ _______ _____ _____    ______ ____
ROOT
ATOM      1  C   UNL     1       5.001   4.369  16.999  0.00  0.00    +0.000 A 
ATOM      2  C   UNL     1       4.699   3.547  18.085  0.00  0.00    +0.000 A 
ATOM      3  C   UNL     1       3.874   4.019  19.112  0.00  0.00    +0.000 A 
ATOM      4  C   UNL     1       3.319   5.318  19.071  0.00  0.00    +0.000 A 
ATOM      5  C   UNL     1       3.614   6.143  17.964  0.00  0.00    +0.000 A 
ATOM      6  C   UNL     1       4.465   5.657  16.937  0.00  0.00    +0.000 A 
ATOM      7  N   UNL     1       3.055   7.434  17.890  0.00  0.00    +0.000 N 
ATOM      8  O   UNL     1       3.315   8.183  16.883  0.00  0.00    +0.000 OA
ATOM      9  C   UNL     1       2.210   7.909  18.917  0.00  0.00    +0.000 A 
ATOM     10  C   UNL     1       1.648   9.205  18.861  0.00  0.00    +0.000 A 
ATOM     11  C   UNL     1       0.831   9.698  19.891  0.00  0.00    +0.000 A 
ATOM     12  C   UNL     1       0.522   8.889  20.995  0.00  0.00    +0.000 A 
ATOM     13  C   UNL     1       1.096   7.610  21.057  0.00  0.00    +0.000 A 
ATOM     14  C   UNL     1       1.927   7.095  20.029  0.00  0.00    +0.000 A 
ATOM     15  N   UNL     1       2.483   5.798  20.106  0.00  0.00    +0.000 N 
ATOM     16  O   UNL     1       2.224   5.055  21.117  0.00  0.00    +0.000 OA
ENDROOT
BRANCH  12  17
ATOM     17  N   UNL     1      -0.126   9.387  22.134  0.00  0.00    +0.000 N 
ATOM     18  H   UNL     1       0.375  10.082  22.685  0.00  0.00    +0.000 HD
ATOM     19  H   UNL     1      -1.109   9.620  22.026  0.00  0.00    +0.000 HD
ENDBRANCH  12  17
BRANCH   1  21
ATOM     20  N   UNL     1       5.563   4.120  14.670  0.00  0.00    +0.000 NA
ATOM     21  C   UNL     1       5.874   3.885  15.902  0.00  0.00    +0.000 C 
BRANCH  20  24
ATOM     22  C   UNL     1       5.915   3.308  12.470  0.00  0.00    +0.000 C 
ATOM     23  O   UNL     1       4.737   3.362  12.130  0.00  0.00    +0.000 OA
ATOM     24  N   UNL     1       6.412   3.660  13.707  0.00  0.00    +0.000 N 
ATOM     25  H   UNL     1       7.408   3.583  13.869  0.00  0.00    +0.000 HD
BRANCH  22  27
ATOM     26  C   UNL     1       6.660   1.614  11.054  0.00  0.00    +0.000 C 
ATOM     27  O   UNL     1       6.920   2.888  11.654  0.00  0.00    +0.000 OA
ENDBRANCH  22  27
ENDBRANCH  20  24
ENDBRANCH   1  21
BRANCH  11  28
ATOM     28  C   UNL     1       0.318  11.035  19.779  0.00  0.00    +0.000 C 
ATOM     29  N   UNL     1      -0.080  12.121  19.702  0.00  0.00    +0.000 NA
ENDBRANCH  11  28
TORSDOF 5
ENDMDL
MODEL 2
REMARK VINA RESULT:      -7.2      0.994      1.088
REMARK  Name = 
REMARK  6 active torsions:
REMARK  status: ('A' for Active; 'I' for Inactive)
REMARK    1  A    between atoms: C_1  and  O_2
REMARK    2  A    between atoms: O_2  and  C_3
REMARK    3  A    between atoms: N_5  and  N_6
REMARK    4  A    between atoms: C_7  and  C_8
REMARK    5  A    between atoms: C_18  and  C_19
REMARK    6  A    between atoms: C_21  and  N_22
REMARK                            x       y       z     vdW  Elec       q    Type
REMARK                         _______ _______ _______ _____ _____    ______ ____
ROOT
ATOM      1  C   UNL     1       4.617   5.724  16.797  0.00  0.00    +0.000 A 
ATOM      2  C   UNL     1       4.463   4.704  17.736  0.00  0.00    +0.000 A 
ATOM      3  C   UNL     1       3.659   4.907  18.863  0.00  0.00    +0.000 A 
ATOM      4  C   UNL     1       2.978   6.128  19.071  0.00  0.00    +0.000 A 
ATOM      5  C   UNL     1       3.124   7.153  18.112  0.00  0.00    +0.000 A 
ATOM      6  C   UNL     1       3.955   6.939  16.981  0.00  0.00    +0.000 A 
ATOM      7  N   UNL     1       2.438   8.371  18.286  0.00  0.00    +0.000 N 
ATOM      8  O   UNL     1       2.563   9.302  17.414  0.00  0.00    +0.000 OA
ATOM      9  C   UNL     1       1.613   8.575  19.415  0.00  0.00    +0.000 A 
ATOM     10  C   UNL     1       0.925   9.794  19.607  0.00  0.00    +0.000 A 
ATOM     11  C   UNL     1       0.127  10.018  20.741  0.00  0.00    +0.000 A 
ATOM     12  C   UNL     1      -0.035   9.007  21.700  0.00  0.00    +0.000 A 
ATOM     13  C   UNL     1       0.664   7.804  21.516  0.00  0.00    +0.000 A 
ATOM     14  C   UNL     1       1.478   7.560  20.380  0.00  0.00    +0.000 A 
ATOM     15  N   UNL     1       2.162   6.335  20.208  0.00  0.00    +0.000 N 
ATOM     16  O   UNL     1       2.038   5.410  21.085  0.00  0.00    +0.000 OA
ENDROOT
BRANCH  12  17
ATOM     17  N   UNL     1      -0.659   9.234  22.935  0.00  0.00    +0.000 N 
ATOM     18  H   UNL     1      -0.993  10.179  23.117  0.00  0.00    +0.000 HD
ATOM     19  H   UNL     1      -1.322   8.527  23.239  0.00  0.00    +0.000 HD
ENDBRANCH  12  17
BRANCH   1  21
ATOM     20  N   UNL     1       5.901   4.347  15.293  0.00  0.00    +0.000 NA
ATOM     21  C   UNL     1       5.467   5.526  15.597  0.00  0.00    +0.000 C 
BRANCH  20  24
ATOM     22  C   UNL     1       6.091   3.804  12.993  0.00  0.00    +0.000 C 
ATOM     23  O   UNL     1       4.911   3.504  12.840  0.00  0.00    +0.000 OA
ATOM     24  N   UNL     1       6.667   4.228  14.172  0.00  0.00    +0.000 N 
ATOM     25  H   UNL     1       7.652   4.459  14.174  0.00  0.00    +0.000 HD
BRANCH  22  27
ATOM     26  C   UNL     1       7.099   2.486  11.357  0.00  0.00    +0.000 C 
ATOM     27  O   UNL     1       7.017   3.765  11.997  0.00  0.00    +0.000 OA
ENDBRANCH  22  27
ENDBRANCH  20  24
ENDBRANCH   1  21
BRANCH  11  28
ATOM     28  C   UNL     1      -0.520  11.292  20.883  0.00  0.00    +0.000 C 
ATOM     29  N   UNL     1      -1.023  12.330  21.001  0.00  0.00    +0.000 NA
ENDBRANCH  11  28
TORSDOF 5
ENDMDL
MODEL 3
REMARK VINA RESULT:      -7.1      2.304      3.615
REMARK  Name = 
REMARK  6 active torsions:
REMARK  status: ('A' for Active; 'I' for Inactive)
REMARK    1  A    between atoms: C_1  and  O_2
REMARK    2  A    between atoms: O_2  and  C_3
REMARK    3  A    between atoms: N_5  and  N_6
REMARK    4  A    between atoms: C_7  and  C_8
REMARK    5  A    between atoms: C_18  and  C_19
REMARK    6  A    between atoms: C_21  and  N_22
REMARK                            x       y       z     vdW  Elec       q    Type
REMARK                         _______ _______ _______ _____ _____    ______ ____
ROOT
ATOM      1  C   UNL     1       2.969   6.495  18.453  0.00  0.00    +0.000 A 
ATOM      2  C   UNL     1       2.529   6.032  19.693  0.00  0.00    +0.000 A 
ATOM      3  C   UNL     1       1.829   6.886  20.551  0.00  0.00    +0.000 A 
ATOM      4  C   UNL     1       1.538   8.221  20.185  0.00  0.00    +0.000 A 
ATOM      5  C   UNL     1       1.971   8.682  18.923  0.00  0.00    +0.000 A 
ATOM      6  C   UNL     1       2.694   7.809  18.069  0.00  0.00    +0.000 A 
ATOM      7  N   UNL     1       1.675  10.001  18.526  0.00  0.00    +0.000 N 
ATOM      8  O   UNL     1       2.061  10.423  17.379  0.00  0.00    +0.000 OA
ATOM      9  C   UNL     1       0.955  10.864  19.383  0.00  0.00    +0.000 A 
ATOM     10  C   UNL     1       0.657  12.191  19.003  0.00  0.00    +0.000 A 
ATOM     11  C   UNL     1      -0.031  13.066  19.859  0.00  0.00    +0.000 A 
ATOM     12  C   UNL     1      -0.476  12.621  21.113  0.00  0.00    +0.000 A 
ATOM     13  C   UNL     1      -0.162  11.307  21.496  0.00  0.00    +0.000 A 
ATOM     14  C   UNL     1       0.535  10.410  20.647  0.00  0.00    +0.000 A 
ATOM     15  N   UNL     1       0.828   9.087  21.049  0.00  0.00    +0.000 N 
ATOM     16  O   UNL     1       0.444   8.672  22.198  0.00  0.00    +0.000 OA
ENDROOT
BRANCH  12  17
ATOM     17  N   UNL     1      -0.996  13.492  22.080  0.00  0.00    +0.000 N 
ATOM     18  H   UNL     1      -1.861  13.212  22.538  0.00  0.00    +0.000 HD
ATOM     19  H   UNL     1      -0.326  13.887  22.735  0.00  0.00    +0.000 HD
ENDBRANCH  12  17
BRANCH   1  21
ATOM     20  N   UNL     1       4.682   6.069  16.813  0.00  0.00    +0.000 NA
ATOM     21  C   UNL     1       3.714   5.602  17.531  0.00  0.00    +0.000 C 
BRANCH  20  24
ATOM     22  C   UNL     1       6.693   5.337  15.792  0.00  0.00    +0.000 C 
ATOM     23  O   UNL     1       7.405   6.204  16.287  0.00  0.00    +0.000 OA
ATOM     24  N   UNL     1       5.336   5.197  15.994  0.00  0.00    +0.000 N 
ATOM     25  H   UNL     1       4.854   4.432  15.539  0.00  0.00    +0.000 HD
BRANCH  22  27
ATOM     26  C   UNL     1       6.167   3.923  14.015  0.00  0.00    +0.000 C 
ATOM     27  O   UNL     1       7.152   4.365  14.957  0.00  0.00    +0.000 OA
ENDBRANCH  22  27
ENDBRANCH  20  24
ENDBRANCH   1  21
BRANCH  11  28
ATOM     28  C   UNL     1      -0.274  14.410  19.416  0.00  0.00    +0.000 C 
ATOM     29  N   UNL     1      -0.478  15.501  19.078  0.00  0.00    +0.000 NA
ENDBRANCH  11  28
TORSDOF 5
ENDMDL
MODEL 4
REMARK VINA RESULT:      -7.1      3.539      9.755
REMARK  Name = 
REMARK  6 active torsions:
REMARK  status: ('A' for Active; 'I' for Inactive)
REMARK    1  A    between atoms: C_1  and  O_2
REMARK    2  A    between atoms: O_2  and  C_3
REMARK    3  A    between atoms: N_5  and  N_6
REMARK    4  A    between atoms: C_7  and  C_8
REMARK    5  A    between atoms: C_18  and  C_19
REMARK    6  A    between atoms: C_21  and  N_22
REMARK                            x       y       z     vdW  Elec       q    Type
REMARK                         _______ _______ _______ _____ _____    ______ ____
ROOT
ATOM      1  C   UNL     1      -0.016   9.930  20.714  0.00  0.00    +0.000 A 
ATOM      2  C   UNL     1      -0.099   8.925  21.678  0.00  0.00    +0.000 A 
ATOM      3  C   UNL     1       0.625   7.738  21.516  0.00  0.00    +0.000 A 
ATOM      4  C   UNL     1       1.461   7.534  20.395  0.00  0.00    +0.000 A 
ATOM      5  C   UNL     1       1.556   8.559  19.430  0.00  0.00    +0.000 A 
ATOM      6  C   UNL     1       0.804   9.751  19.598  0.00  0.00    +0.000 A 
ATOM      7  N   UNL     1       2.400   8.388  18.315  0.00  0.00    +0.000 N 
ATOM      8  O   UNL     1       2.494   9.319  17.438  0.00  0.00    +0.000 OA
ATOM      9  C   UNL     1       3.145   7.198  18.154  0.00  0.00    +0.000 A 
ATOM     10  C   UNL     1       3.990   7.009  17.038  0.00  0.00    +0.000 A 
ATOM     11  C   UNL     1       4.710   5.818  16.853  0.00  0.00    +0.000 A 
ATOM     12  C   UNL     1       4.634   4.792  17.808  0.00  0.00    +0.000 A 
ATOM     13  C   UNL     1       3.780   4.976  18.907  0.00  0.00    +0.000 A 
ATOM     14  C   UNL     1       3.041   6.169  19.108  0.00  0.00    +0.000 A 
ATOM     15  N   UNL     1       2.197   6.337  20.230  0.00  0.00    +0.000 N 
ATOM     16  O   UNL     1       2.103   5.403  21.100  0.00  0.00    +0.000 OA
ENDROOT
BRANCH  12  17
ATOM     17  N   UNL     1       5.175   3.518  17.588  0.00  0.00    +0.000 N 
ATOM     18  H   UNL     1       5.396   3.268  16.625  0.00  0.00    +0.000 HD
ATOM     19  H   UNL     1       5.898   3.219  18.237  0.00  0.00    +0.000 HD
ENDBRANCH  12  17
BRANCH   1  21
ATOM     20  N   UNL     1      -1.379  11.459  21.982  0.00  0.00    +0.000 NA
ATOM     21  C   UNL     1      -0.777  11.194  20.870  0.00  0.00    +0.000 C 
BRANCH  20  24
ATOM     22  C   UNL     1      -3.074  12.780  22.984  0.00  0.00    +0.000 C 
ATOM     23  O   UNL     1      -3.463  11.914  23.760  0.00  0.00    +0.000 OA
ATOM     24  N   UNL     1      -2.053  12.641  22.068  0.00  0.00    +0.000 N 
ATOM     25  H   UNL     1      -1.813  13.433  21.485  0.00  0.00    +0.000 HD
BRANCH  22  27
ATOM     26  C   UNL     1      -4.936  14.105  23.444  0.00  0.00    +0.000 C 
ATOM     27  O   UNL     1      -3.606  14.031  22.918  0.00  0.00    +0.000 OA
ENDBRANCH  22  27
ENDBRANCH  20  24
ENDBRANCH   1  21
BRANCH  11  28
ATOM     28  C   UNL     1       5.527   5.685  15.680  0.00  0.00    +0.000 C 
ATOM     29  N   UNL     1       6.181   5.598  14.726  0.00  0.00    +0.000 NA
ENDBRANCH  11  28
TORSDOF 5
ENDMDL
MODEL 5
REMARK VINA RESULT:      -7.1      3.322      5.425
REMARK  Name = 
REMARK  6 active torsions:
REMARK  status: ('A' for Active; 'I' for Inactive)
REMARK    1  A    between atoms: C_1  and  O_2
REMARK    2  A    between atoms: O_2  and  C_3
REMARK    3  A    between atoms: N_5  and  N_6
REMARK    4  A    between atoms: C_7  and  C_8
REMARK    5  A    between atoms: C_18  and  C_19
REMARK    6  A    between atoms: C_21  and  N_22
REMARK                            x       y       z     vdW  Elec       q    Type
REMARK                         _______ _______ _______ _____ _____    ______ ____
ROOT
ATOM      1  C   UNL     1       3.839   3.462  19.221  0.00  0.00    +0.000 A 
ATOM      2  C   UNL     1       4.464   3.883  18.048  0.00  0.00    +0.000 A 
ATOM      3  C   UNL     1       4.246   5.177  17.563  0.00  0.00    +0.000 A 
ATOM      4  C   UNL     1       3.409   6.087  18.248  0.00  0.00    +0.000 A 
ATOM      5  C   UNL     1       2.789   5.664  19.444  0.00  0.00    +0.000 A 
ATOM      6  C   UNL     1       3.007   4.343  19.915  0.00  0.00    +0.000 A 
ATOM      7  N   UNL     1       1.968   6.560  20.156  0.00  0.00    +0.000 N 
ATOM      8  O   UNL     1       1.408   6.182  21.245  0.00  0.00    +0.000 OA
ATOM      9  C   UNL     1       1.755   7.873  19.679  0.00  0.00    +0.000 A 
ATOM     10  C   UNL     1       0.928   8.781  20.378  0.00  0.00    +0.000 A 
ATOM     11  C   UNL     1       0.686  10.077  19.897  0.00  0.00    +0.000 A 
ATOM     12  C   UNL     1       1.301  10.517  18.714  0.00  0.00    +0.000 A 
ATOM     13  C   UNL     1       2.108   9.607  18.012  0.00  0.00    +0.000 A 
ATOM     14  C   UNL     1       2.360   8.292  18.480  0.00  0.00    +0.000 A 
ATOM     15  N   UNL     1       3.187   7.398  17.763  0.00  0.00    +0.000 N 
ATOM     16  O   UNL     1       3.740   7.779  16.673  0.00  0.00    +0.000 OA
ENDROOT
BRANCH  12  17
ATOM     17  N   UNL     1       0.953  11.722  18.089  0.00  0.00    +0.000 N 
ATOM     18  H   UNL     1       1.611  12.494  18.174  0.00  0.00    +0.000 HD
ATOM     19  H   UNL     1       0.570  11.646  17.150  0.00  0.00    +0.000 HD
ENDBRANCH  12  17
BRANCH   1  21
ATOM     20  N   UNL     1       5.180   1.785  20.315  0.00  0.00    +0.000 NA
ATOM     21  C   UNL     1       4.059   2.093  19.748  0.00  0.00    +0.000 C 
BRANCH  20  24
ATOM     22  C   UNL     1       6.105   0.281  21.897  0.00  0.00    +0.000 C 
ATOM     23  O   UNL     1       6.728   1.131  22.525  0.00  0.00    +0.000 OA
ATOM     24  N   UNL     1       5.317   0.515  20.789  0.00  0.00    +0.000 N 
ATOM     25  H   UNL     1       4.841  -0.268  20.360  0.00  0.00    +0.000 HD
BRANCH  22  27
ATOM     26  C   UNL     1       7.382  -1.523  22.636  0.00  0.00    +0.000 C 
ATOM     27  O   UNL     1       6.100  -1.042  22.214  0.00  0.00    +0.000 OA
ENDBRANCH  22  27
ENDBRANCH  20  24
ENDBRANCH   1  21
BRANCH  11  28
ATOM     28  C   UNL     1      -0.188  10.935  20.646  0.00  0.00    +0.000 C 
ATOM     29  N   UNL     1      -0.896  11.613  21.266  0.00  0.00    +0.000 NA
ENDBRANCH  11  28
TORSDOF 5
ENDMDL
MODEL 6
REMARK VINA RESULT:      -6.9      3.232      9.492
REMARK  Name = 
REMARK  6 active torsions:
REMARK  status: ('A' for Active; 'I' for Inactive)
REMARK    1  A    between atoms: C_1  and  O_2
REMARK    2  A    between atoms: O_2  and  C_3
REMARK    3  A    between atoms: N_5  and  N_6
REMARK    4  A    between atoms: C_7  and  C_8
REMARK    5  A    between atoms: C_18  and  C_19
REMARK    6  A    between atoms: C_21  and  N_22
REMARK                            x       y       z     vdW  Elec       q    Type
REMARK                         _______ _______ _______ _____ _____    ______ ____
ROOT
ATOM      1  C   UNL     1       0.196   9.959  20.828  0.00  0.00    +0.000 A 
ATOM      2  C   UNL     1       0.035   8.917  21.740  0.00  0.00    +0.000 A 
ATOM      3  C   UNL     1       0.674   7.691  21.523  0.00  0.00    +0.000 A 
ATOM      4  C   UNL     1       1.501   7.483  20.396  0.00  0.00    +0.000 A 
ATOM      5  C   UNL     1       1.675   8.544  19.482  0.00  0.00    +0.000 A 
ATOM      6  C   UNL     1       1.007   9.777  19.707  0.00  0.00    +0.000 A 
ATOM      7  N   UNL     1       2.511   8.368  18.362  0.00  0.00    +0.000 N 
ATOM      8  O   UNL     1       2.676   9.331  17.533  0.00  0.00    +0.000 OA
ATOM      9  C   UNL     1       3.170   7.137  18.145  0.00  0.00    +0.000 A 
ATOM     10  C   UNL     1       4.007   6.943  17.023  0.00  0.00    +0.000 A 
ATOM     11  C   UNL     1       4.642   5.714  16.783  0.00  0.00    +0.000 A 
ATOM     12  C   UNL     1       4.487   4.651  17.685  0.00  0.00    +0.000 A 
ATOM     13  C   UNL     1       3.641   4.841  18.790  0.00  0.00    +0.000 A 
ATOM     14  C   UNL     1       2.988   6.073  19.047  0.00  0.00    +0.000 A 
ATOM     15  N   UNL     1       2.151   6.246  20.174  0.00  0.00    +0.000 N 
ATOM     16  O   UNL     1       1.986   5.279  20.997  0.00  0.00    +0.000 OA
ENDROOT
BRANCH  12  17
ATOM     17  N   UNL     1       4.937   3.354  17.405  0.00  0.00    +0.000 N 
ATOM     18  H   UNL     1       5.799   3.269  16.868  0.00  0.00    +0.000 HD
ATOM     19  H   UNL     1       4.897   2.688  18.173  0.00  0.00    +0.000 HD
ENDBRANCH  12  17
BRANCH   1  21
ATOM     20  N   UNL     1      -0.024  12.091  21.929  0.00  0.00    +0.000 NA
ATOM     21  C   UNL     1      -0.475  11.265  21.043  0.00  0.00    +0.000 C 
BRANCH  20  24
ATOM     22  C   UNL     1       0.048  14.439  22.252  0.00  0.00    +0.000 C 
ATOM     23  O   UNL     1       1.271  14.517  22.307  0.00  0.00    +0.000 OA
ATOM     24  N   UNL     1      -0.677  13.279  22.071  0.00  0.00    +0.000 N 
ATOM     25  H   UNL     1      -1.686  13.340  22.032  0.00  0.00    +0.000 HD
BRANCH  22  27
ATOM     26  C   UNL     1      -1.385  15.625  23.656  0.00  0.00    +0.000 C 
ATOM     27  O   UNL     1      -0.785  15.509  22.360  0.00  0.00    +0.000 OA
ENDBRANCH  22  27
ENDBRANCH  20  24
ENDBRANCH   1  21
BRANCH  11  28
ATOM     28  C   UNL     1       5.455   5.581  15.607  0.00  0.00    +0.000 C 
ATOM     29  N   UNL     1       6.124   5.489  14.664  0.00  0.00    +0.000 NA
ENDBRANCH  11  28
TORSDOF 5
ENDMDL
MODEL 7
REMARK VINA RESULT:      -6.9      3.736      6.047
REMARK  Name = 
REMARK  6 active torsions:
REMARK  status: ('A' for Active; 'I' for Inactive)
REMARK    1  A    between atoms: C_1  and  O_2
REMARK    2  A    between atoms: O_2  and  C_3
REMARK    3  A    between atoms: N_5  and  N_6
REMARK    4  A    between atoms: C_7  and  C_8
REMARK    5  A    between atoms: C_18  and  C_19
REMARK    6  A    between atoms: C_21  and  N_22
REMARK                            x       y       z     vdW  Elec       q    Type
REMARK                         _______ _______ _______ _____ _____    ______ ____
ROOT
ATOM      1  C   UNL     1       2.019   7.558  19.570  0.00  0.00    +0.000 A 
ATOM      2  C   UNL     1       2.147   8.345  18.425  0.00  0.00    +0.000 A 
ATOM      3  C   UNL     1       1.503   9.585  18.352  0.00  0.00    +0.000 A 
ATOM      4  C   UNL     1       0.727  10.075  19.427  0.00  0.00    +0.000 A 
ATOM      5  C   UNL     1       0.611   9.284  20.590  0.00  0.00    +0.000 A 
ATOM      6  C   UNL     1       1.256   8.021  20.644  0.00  0.00    +0.000 A 
ATOM      7  N   UNL     1      -0.140   9.760  21.683  0.00  0.00    +0.000 N 
ATOM      8  O   UNL     1      -0.243   9.047  22.743  0.00  0.00    +0.000 OA
ATOM      9  C   UNL     1      -0.780  11.018  21.620  0.00  0.00    +0.000 A 
ATOM     10  C   UNL     1      -1.543  11.506  22.705  0.00  0.00    +0.000 A 
ATOM     11  C   UNL     1      -2.208  12.741  22.641  0.00  0.00    +0.000 A 
ATOM     12  C   UNL     1      -2.096  13.544  21.495  0.00  0.00    +0.000 A 
ATOM     13  C   UNL     1      -1.353  13.048  20.412  0.00  0.00    +0.000 A 
ATOM     14  C   UNL     1      -0.678  11.802  20.456  0.00  0.00    +0.000 A 
ATOM     15  N   UNL     1       0.076  11.329  19.358  0.00  0.00    +0.000 N 
ATOM     16  O   UNL     1       0.172  12.043  18.299  0.00  0.00    +0.000 OA
ENDROOT
BRANCH  12  17
ATOM     17  N   UNL     1      -2.882  14.687  21.298  0.00  0.00    +0.000 N 
ATOM     18  H   UNL     1      -2.416  15.510  20.919  0.00  0.00    +0.000 HD
ATOM     19  H   UNL     1      -3.796  14.537  20.879  0.00  0.00    +0.000 HD
ENDBRANCH  12  17
BRANCH   1  21
ATOM     20  N   UNL     1       2.209   5.215  19.044  0.00  0.00    +0.000 NA
ATOM     21  C   UNL     1       2.694   6.240  19.664  0.00  0.00    +0.000 C 
BRANCH  20  24
ATOM     22  C   UNL     1       2.830   3.116  18.132  0.00  0.00    +0.000 C 
ATOM     23  O   UNL     1       2.210   3.250  17.082  0.00  0.00    +0.000 OA
ATOM     24  N   UNL     1       2.882   4.034  19.160  0.00  0.00    +0.000 N 
ATOM     25  H   UNL     1       3.437   3.816  19.977  0.00  0.00    +0.000 HD
BRANCH  22  27
ATOM     26  C   UNL     1       4.273   2.142  19.681  0.00  0.00    +0.000 C 
ATOM     27  O   UNL     1       3.573   2.017  18.437  0.00  0.00    +0.000 OA
ENDBRANCH  22  27
ENDBRANCH  20  24
ENDBRANCH   1  21
BRANCH  11  28
ATOM     28  C   UNL     1      -2.987  13.160  23.772  0.00  0.00    +0.000 C 
ATOM     29  N   UNL     1      -3.631  13.508  24.671  0.00  0.00    +0.000 NA
ENDBRANCH  11  28
TORSDOF 5
ENDMDL
MODEL 8
REMARK VINA RESULT:      -6.8      3.511      9.499
REMARK  Name = 
REMARK  6 active torsions:
REMARK  status: ('A' for Active; 'I' for Inactive)
REMARK    1  A    between atoms: C_1  and  O_2
REMARK    2  A    between atoms: O_2  and  C_3
REMARK    3  A    between atoms: N_5  and  N_6
REMARK    4  A    between atoms: C_7  and  C_8
REMARK    5  A    between atoms: C_18  and  C_19
REMARK    6  A    between atoms: C_21  and  N_22
REMARK                            x       y       z     vdW  Elec       q    Type
REMARK                         _______ _______ _______ _____ _____    ______ ____
ROOT
ATOM      1  C   UNL     1      -0.154  10.419  20.438  0.00  0.00    +0.000 A 
ATOM      2  C   UNL     1      -0.273   9.487  21.470  0.00  0.00    +0.000 A 
ATOM      3  C   UNL     1       0.436   8.282  21.410  0.00  0.00    +0.000 A 
ATOM      4  C   UNL     1       1.291   7.985  20.325  0.00  0.00    +0.000 A 
ATOM      5  C   UNL     1       1.421   8.936  19.290  0.00  0.00    +0.000 A 
ATOM      6  C   UNL     1       0.685  10.147  19.356  0.00  0.00    +0.000 A 
ATOM      7  N   UNL     1       2.284   8.671  18.208  0.00  0.00    +0.000 N 
ATOM      8  O   UNL     1       2.410   9.535  17.269  0.00  0.00    +0.000 OA
ATOM      9  C   UNL     1       3.013   7.463  18.150  0.00  0.00    +0.000 A 
ATOM     10  C   UNL     1       3.877   7.180  17.068  0.00  0.00    +0.000 A 
ATOM     11  C   UNL     1       4.582   5.969  16.986  0.00  0.00    +0.000 A 
ATOM     12  C   UNL     1       4.471   5.017  18.010  0.00  0.00    +0.000 A 
ATOM     13  C   UNL     1       3.598   5.292  19.075  0.00  0.00    +0.000 A 
ATOM     14  C   UNL     1       2.874   6.508  19.173  0.00  0.00    +0.000 A 
ATOM     15  N   UNL     1       2.011   6.769  20.262  0.00  0.00    +0.000 N 
ATOM     16  O   UNL     1       1.885   5.901  21.195  0.00  0.00    +0.000 OA
ENDROOT
BRANCH  12  17
ATOM     17  N   UNL     1       4.996   3.722  17.895  0.00  0.00    +0.000 N 
ATOM     18  H   UNL     1       4.861   3.096  18.686  0.00  0.00    +0.000 HD
ATOM     19  H   UNL     1       4.844   3.254  17.005  0.00  0.00    +0.000 HD
ENDBRANCH  12  17
BRANCH   1  21
ATOM     20  N   UNL     1      -2.029  11.821  19.870  0.00  0.00    +0.000 NA
ATOM     21  C   UNL     1      -0.899  11.701  20.485  0.00  0.00    +0.000 C 
BRANCH  20  24
ATOM     22  C   UNL     1      -3.708  13.173  20.857  0.00  0.00    +0.000 C 
ATOM     23  O   UNL     1      -4.137  12.306  21.611  0.00  0.00    +0.000 OA
ATOM     24  N   UNL     1      -2.671  13.020  19.961  0.00  0.00    +0.000 N 
ATOM     25  H   UNL     1      -2.397  13.814  19.397  0.00  0.00    +0.000 HD
BRANCH  22  27
ATOM     26  C   UNL     1      -5.562  14.492  20.352  0.00  0.00    +0.000 C 
ATOM     27  O   UNL     1      -4.203  14.440  20.801  0.00  0.00    +0.000 OA
ENDBRANCH  22  27
ENDBRANCH  20  24
ENDBRANCH   1  21
BRANCH  11  28
ATOM     28  C   UNL     1       5.420   5.739  15.842  0.00  0.00    +0.000 C 
ATOM     29  N   UNL     1       6.081   5.560  14.906  0.00  0.00    +0.000 NA
ENDBRANCH  11  28
TORSDOF 5
ENDMDL
MODEL 9
REMARK VINA RESULT:      -6.8      3.909      6.448
REMARK  Name = 
REMARK  6 active torsions:
REMARK  status: ('A' for Active; 'I' for Inactive)
REMARK    1  A    between atoms: C_1  and  O_2
REMARK    2  A    between atoms: O_2  and  C_3
REMARK    3  A    between atoms: N_5  and  N_6
REMARK    4  A    between atoms: C_7  and  C_8
REMARK    5  A    between atoms: C_18  and  C_19
REMARK    6  A    between atoms: C_21  and  N_22
REMARK                            x       y       z     vdW  Elec       q    Type
REMARK                         _______ _______ _______ _____ _____    ______ ____
ROOT
ATOM      1  C   UNL     1       1.734   7.787  19.936  0.00  0.00    +0.000 A 
ATOM      2  C   UNL     1       1.833   8.501  18.742  0.00  0.00    +0.000 A 
ATOM      3  C   UNL     1       1.235   9.760  18.626  0.00  0.00    +0.000 A 
ATOM      4  C   UNL     1       0.534  10.343  19.707  0.00  0.00    +0.000 A 
ATOM      5  C   UNL     1       0.448   9.626  20.920  0.00  0.00    +0.000 A 
ATOM      6  C   UNL     1       1.047   8.343  21.017  0.00  0.00    +0.000 A 
ATOM      7  N   UNL     1      -0.227  10.195  22.017  0.00  0.00    +0.000 N 
ATOM      8  O   UNL     1      -0.302   9.550  23.122  0.00  0.00    +0.000 OA
ATOM      9  C   UNL     1      -0.821  11.473  21.911  0.00  0.00    +0.000 A 
ATOM     10  C   UNL     1      -1.507  12.054  23.001  0.00  0.00    +0.000 A 
ATOM     11  C   UNL     1      -2.127  13.309  22.896  0.00  0.00    +0.000 A 
ATOM     12  C   UNL     1      -2.044  14.039  21.700  0.00  0.00    +0.000 A 
ATOM     13  C   UNL     1      -1.377  13.452  20.613  0.00  0.00    +0.000 A 
ATOM     14  C   UNL     1      -0.748  12.183  20.699  0.00  0.00    +0.000 A 
ATOM     15  N   UNL     1      -0.071  11.617  19.595  0.00  0.00    +0.000 N 
ATOM     16  O   UNL     1      -0.002  12.263  18.492  0.00  0.00    +0.000 OA
ENDROOT
BRANCH  12  17
ATOM     17  N   UNL     1      -2.794  15.201  21.474  0.00  0.00    +0.000 N 
ATOM     18  H   UNL     1      -3.442  15.188  20.688  0.00  0.00    +0.000 HD
ATOM     19  H   UNL     1      -3.198  15.642  22.296  0.00  0.00    +0.000 HD
ENDBRANCH  12  17
BRANCH   1  21
ATOM     20  N   UNL     1       2.897   5.873  19.051  0.00  0.00    +0.000 NA
ATOM     21  C   UNL     1       2.363   6.451  20.076  0.00  0.00    +0.000 C 
BRANCH  20  24
ATOM     22  C   UNL     1       4.842   4.545  19.325  0.00  0.00    +0.000 C 
ATOM     23  O   UNL     1       5.639   5.472  19.230  0.00  0.00    +0.000 OA
ATOM     24  N   UNL     1       3.469   4.650  19.245  0.00  0.00    +0.000 N 
ATOM     25  H   UNL     1       2.912   3.813  19.349  0.00  0.00    +0.000 HD
BRANCH  22  27
ATOM     26  C   UNL     1       4.090   2.371  19.699  0.00  0.00    +0.000 C 
ATOM     27  O   UNL     1       5.209   3.250  19.532  0.00  0.00    +0.000 OA
ENDBRANCH  22  27
ENDBRANCH  20  24
ENDBRANCH   1  21
BRANCH  11  28
ATOM     28  C   UNL     1      -2.830  13.825  24.036  0.00  0.00    +0.000 C 
ATOM     29  N   UNL     1      -3.417  14.232  24.950  0.00  0.00    +0.000 NA
ENDBRANCH  11  28
TORSDOF 5
ENDMDL
