MODEL 1
REMARK VINA RESULT:      -7.4      0.000      0.000
REMARK  Name = 
REMARK  12 active torsions:
REMARK  status: ('A' for Active; 'I' for Inactive)
REMARK    1  A    between atoms: C_1  and  C_2
REMARK    2  A    between atoms: C_2  and  O_4
REMARK    3  A    between atoms: O_4  and  C_5
REMARK    4  A    between atoms: C_5  and  C_6
REMARK    5  A    between atoms: C_6  and  N_7
REMARK    6  A    between atoms: C_6  and  C_13
REMARK    7  A    between atoms: C_8  and  C_10
REMARK    8  A    between atoms: C_13  and  O_14
REMARK    9  A    between atoms: C_13  and  C_18
REMARK   10  A    between atoms: O_14  and  C_15
REMARK   11  A    between atoms: C_15  and  C_16
REMARK   12  A    between atoms: C_21  and  N_22
REMARK                            x       y       z     vdW  Elec       q    Type
REMARK                         _______ _______ _______ _____ _____    ______ ____
ROOT
ATOM      1  C   UNL     1       4.582   5.762  17.770  0.00  0.00    +0.000 C 
ENDROOT
BRANCH   1   2
ATOM      2  C   UNL     1       3.493   6.692  18.301  0.00  0.00    +0.000 A 
ATOM      3  C   UNL     1       3.109   7.821  17.560  0.00  0.00    +0.000 A 
ATOM      4  C   UNL     1       2.193   8.739  18.085  0.00  0.00    +0.000 A 
ATOM      5  C   UNL     1       1.655   8.524  19.361  0.00  0.00    +0.000 A 
ATOM      6  C   UNL     1       1.997   7.384  20.096  0.00  0.00    +0.000 A 
ATOM      7  C   UNL     1       2.913   6.475  19.564  0.00  0.00    +0.000 A 
BRANCH   5   8
ATOM      8  N   UNL     1       0.748   9.519  19.950  0.00  0.00    +0.000 N 
ATOM      9  O   UNL     1       0.996   9.921  21.096  0.00  0.00    +0.000 OA
ATOM     10  O   UNL     1      -0.217   9.893  19.268  0.00  0.00    +0.000 OA
ENDBRANCH   5   8
ENDBRANCH   1   2
BRANCH   1  11
ATOM     11  C   UNL     1       3.992   4.621  16.890  0.00  0.00    +0.000 C 
BRANCH  11  12
ATOM     12  N   UNL     1       4.917   4.104  15.869  0.00  0.00    +0.000 N 
ATOM     13  C   UNL     1       5.579   4.895  14.947  0.00  0.00    +0.000 C 
ATOM     14  O   UNL     1       5.381   6.107  14.869  0.00  0.00    +0.000 OA
ATOM     15  H   UNL     1       5.046   3.100  15.812  0.00  0.00    +0.000 HD
BRANCH  13  16
ATOM     16  C   UNL     1       6.576   4.172  14.037  0.00  0.00    +0.000 C 
ATOM     17 CL   UNL     1       5.704   3.457  12.662  0.00  0.00    +0.000 Cl
ATOM     18 CL   UNL     1       7.786   5.339  13.466  0.00  0.00    +0.000 Cl
ENDBRANCH  13  16
ENDBRANCH  11  12
BRANCH  11  19
ATOM     19  C   UNL     1       3.403   3.482  17.755  0.00  0.00    +0.000 C 
BRANCH  19  20
ATOM     20  O   UNL     1       1.970   3.403  17.579  0.00  0.00    +0.000 OA
BRANCH  20  22
ATOM     21  C   UNL     1       2.017   2.897  19.870  0.00  0.00    +0.000 C 
ATOM     22  C   UNL     1       1.297   2.752  18.566  0.00  0.00    +0.000 C 
ATOM     23  O   UNL     1       0.273   2.102  18.410  0.00  0.00    +0.000 OA
ENDBRANCH  20  22
ENDBRANCH  19  20
ENDBRANCH  11  19
ENDBRANCH   1  11
BRANCH   1  24
ATOM     24  O   UNL     1       5.219   5.154  18.922  0.00  0.00    +0.000 OA
BRANCH  24  25
ATOM     25  C   UNL     1       6.514   5.504  19.148  0.00  0.00    +0.000 C 
ATOM     26  C   UNL     1       7.058   6.285  17.988  0.00  0.00    +0.000 C 
ATOM     27  O   UNL     1       7.173   5.190  20.129  0.00  0.00    +0.000 OA
ENDBRANCH  24  25
ENDBRANCH   1  24
TORSDOF 10
ENDMDL
MODEL 2
REMARK VINA RESULT:      -7.4      2.460      4.467
REMARK  Name = 
REMARK  12 active torsions:
REMARK  status: ('A' for Active; 'I' for Inactive)
REMARK    1  A    between atoms: C_1  and  C_2
REMARK    2  A    between atoms: C_2  and  O_4
REMARK    3  A    between atoms: O_4  and  C_5
REMARK    4  A    between atoms: C_5  and  C_6
REMARK    5  A    between atoms: C_6  and  N_7
REMARK    6  A    between atoms: C_6  and  C_13
REMARK    7  A    between atoms: C_8  and  C_10
REMARK    8  A    between atoms: C_13  and  O_14
REMARK    9  A    between atoms: C_13  and  C_18
REMARK   10  A    between atoms: O_14  and  C_15
REMARK   11  A    between atoms: C_15  and  C_16
REMARK   12  A    between atoms: C_21  and  N_22
REMARK                            x       y       z     vdW  Elec       q    Type
REMARK                         _______ _______ _______ _____ _____    ______ ____
ROOT
ATOM      1  C   UNL     1       3.724   4.304  18.040  0.00  0.00    +0.000 C 
ENDROOT
BRANCH   1   2
ATOM      2  C   UNL     1       2.982   5.469  18.692  0.00  0.00    +0.000 A 
ATOM      3  C   UNL     1       2.920   6.714  18.047  0.00  0.00    +0.000 A 
ATOM      4  C   UNL     1       2.338   7.817  18.682  0.00  0.00    +0.000 A 
ATOM      5  C   UNL     1       1.812   7.671  19.972  0.00  0.00    +0.000 A 
ATOM      6  C   UNL     1       1.829   6.429  20.614  0.00  0.00    +0.000 A 
ATOM      7  C   UNL     1       2.414   5.335  19.972  0.00  0.00    +0.000 A 
BRANCH   5   8
ATOM      8  N   UNL     1       1.264   8.840  20.674  0.00  0.00    +0.000 N 
ATOM      9  O   UNL     1       1.120   9.888  20.028  0.00  0.00    +0.000 OA
ATOM     10  O   UNL     1       0.985   8.712  21.876  0.00  0.00    +0.000 OA
ENDBRANCH   5   8
ENDBRANCH   1   2
BRANCH   1  11
ATOM     11  C   UNL     1       4.779   4.795  17.006  0.00  0.00    +0.000 C 
BRANCH  11  12
ATOM     12  N   UNL     1       6.070   5.185  17.596  0.00  0.00    +0.000 N 
ATOM     13  C   UNL     1       6.681   6.408  17.390  0.00  0.00    +0.000 C 
ATOM     14  O   UNL     1       6.212   7.249  16.624  0.00  0.00    +0.000 OA
ATOM     15  H   UNL     1       6.561   4.497  18.157  0.00  0.00    +0.000 HD
BRANCH  13  16
ATOM     16  C   UNL     1       7.971   6.654  18.178  0.00  0.00    +0.000 C 
ATOM     17 CL   UNL     1       8.242   8.406  18.327  0.00  0.00    +0.000 Cl
ATOM     18 CL   UNL     1       7.816   5.911  19.784  0.00  0.00    +0.000 Cl
ENDBRANCH  13  16
ENDBRANCH  11  12
BRANCH  11  19
ATOM     19  C   UNL     1       4.962   3.778  15.855  0.00  0.00    +0.000 C 
BRANCH  19  20
ATOM     20  O   UNL     1       5.170   4.466  14.601  0.00  0.00    +0.000 OA
BRANCH  20  22
ATOM     21  C   UNL     1       6.361   3.645  12.752  0.00  0.00    +0.000 C 
ATOM     22  C   UNL     1       6.418   4.349  14.072  0.00  0.00    +0.000 C 
ATOM     23  O   UNL     1       7.450   4.721  14.613  0.00  0.00    +0.000 OA
ENDBRANCH  20  22
ENDBRANCH  19  20
ENDBRANCH  11  19
ENDBRANCH   1  11
BRANCH   1  24
ATOM     24  O   UNL     1       2.736   3.515  17.331  0.00  0.00    +0.000 OA
BRANCH  24  25
ATOM     25  C   UNL     1       2.213   2.456  18.006  0.00  0.00    +0.000 C 
ATOM     26  C   UNL     1       3.299   1.498  18.402  0.00  0.00    +0.000 C 
ATOM     27  O   UNL     1       1.025   2.267  18.221  0.00  0.00    +0.000 OA
ENDBRANCH  24  25
ENDBRANCH   1  24
TORSDOF 10
ENDMDL
MODEL 3
REMARK VINA RESULT:      -7.3      2.423      4.485
REMARK  Name = 
REMARK  12 active torsions:
REMARK  status: ('A' for Active; 'I' for Inactive)
REMARK    1  A    between atoms: C_1  and  C_2
REMARK    2  A    between atoms: C_2  and  O_4
REMARK    3  A    between atoms: O_4  and  C_5
REMARK    4  A    between atoms: C_5  and  C_6
REMARK    5  A    between atoms: C_6  and  N_7
REMARK    6  A    between atoms: C_6  and  C_13
REMARK    7  A    between atoms: C_8  and  C_10
REMARK    8  A    between atoms: C_13  and  O_14
REMARK    9  A    between atoms: C_13  and  C_18
REMARK   10  A    between atoms: O_14  and  C_15
REMARK   11  A    between atoms: C_15  and  C_16
REMARK   12  A    between atoms: C_21  and  N_22
REMARK                            x       y       z     vdW  Elec       q    Type
REMARK                         _______ _______ _______ _____ _____    ______ ____
ROOT
ATOM      1  C   UNL     1       3.627   4.574  18.100  0.00  0.00    +0.000 C 
ENDROOT
BRANCH   1   2
ATOM      2  C   UNL     1       3.007   5.802  18.762  0.00  0.00    +0.000 A 
ATOM      3  C   UNL     1       2.448   5.704  20.046  0.00  0.00    +0.000 A 
ATOM      4  C   UNL     1       1.780   6.793  20.618  0.00  0.00    +0.000 A 
ATOM      5  C   UNL     1       1.673   7.990  19.899  0.00  0.00    +0.000 A 
ATOM      6  C   UNL     1       2.258   8.118  18.634  0.00  0.00    +0.000 A 
ATOM      7  C   UNL     1       2.920   7.025  18.072  0.00  0.00    +0.000 A 
BRANCH   5   8
ATOM      8  N   UNL     1       0.912   9.115  20.460  0.00  0.00    +0.000 N 
ATOM      9  O   UNL     1       1.121   9.421  21.644  0.00  0.00    +0.000 OA
ATOM     10  O   UNL     1       0.099   9.687  19.720  0.00  0.00    +0.000 OA
ENDBRANCH   5   8
ENDBRANCH   1   2
BRANCH   1  11
ATOM     11  C   UNL     1       4.724   4.963  17.066  0.00  0.00    +0.000 C 
BRANCH  11  12
ATOM     12  N   UNL     1       6.030   5.286  17.662  0.00  0.00    +0.000 N 
ATOM     13  C   UNL     1       6.724   6.458  17.425  0.00  0.00    +0.000 C 
ATOM     14  O   UNL     1       6.322   7.302  16.625  0.00  0.00    +0.000 OA
ATOM     15  H   UNL     1       6.467   4.587  18.252  0.00  0.00    +0.000 HD
BRANCH  13  16
ATOM     16  C   UNL     1       8.017   6.645  18.223  0.00  0.00    +0.000 C 
ATOM     17 CL   UNL     1       8.327   8.383  18.440  0.00  0.00    +0.000 Cl
ATOM     18 CL   UNL     1       7.844   5.843  19.798  0.00  0.00    +0.000 Cl
ENDBRANCH  13  16
ENDBRANCH  11  12
BRANCH  11  19
ATOM     19  C   UNL     1       4.853   3.902  15.949  0.00  0.00    +0.000 C 
BRANCH  19  20
ATOM     20  O   UNL     1       5.139   4.535  14.680  0.00  0.00    +0.000 OA
BRANCH  20  22
ATOM     21  C   UNL     1       6.334   3.646  12.867  0.00  0.00    +0.000 C 
ATOM     22  C   UNL     1       6.394   4.329  14.197  0.00  0.00    +0.000 C 
ATOM     23  O   UNL     1       7.429   4.619  14.781  0.00  0.00    +0.000 OA
ENDBRANCH  20  22
ENDBRANCH  19  20
ENDBRANCH  11  19
ENDBRANCH   1  11
BRANCH   1  24
ATOM     24  O   UNL     1       2.563   3.892  17.389  0.00  0.00    +0.000 OA
BRANCH  24  25
ATOM     25  C   UNL     1       2.000   2.828  18.022  0.00  0.00    +0.000 C 
ATOM     26  C   UNL     1       3.041   1.796  18.342  0.00  0.00    +0.000 C 
ATOM     27  O   UNL     1       0.808   2.691  18.257  0.00  0.00    +0.000 OA
ENDBRANCH  24  25
ENDBRANCH   1  24
TORSDOF 10
ENDMDL
MODEL 4
REMARK VINA RESULT:      -7.2      2.627      3.580
REMARK  Name = 
REMARK  12 active torsions:
REMARK  status: ('A' for Active; 'I' for Inactive)
REMARK    1  A    between atoms: C_1  and  C_2
REMARK    2  A    between atoms: C_2  and  O_4
REMARK    3  A    between atoms: O_4  and  C_5
REMARK    4  A    between atoms: C_5  and  C_6
REMARK    5  A    between atoms: C_6  and  N_7
REMARK    6  A    between atoms: C_6  and  C_13
REMARK    7  A    between atoms: C_8  and  C_10
REMARK    8  A    between atoms: C_13  and  O_14
REMARK    9  A    between atoms: C_13  and  C_18
REMARK   10  A    between atoms: O_14  and  C_15
REMARK   11  A    between atoms: C_15  and  C_16
REMARK   12  A    between atoms: C_21  and  N_22
REMARK                            x       y       z     vdW  Elec       q    Type
REMARK                         _______ _______ _______ _____ _____    ______ ____
ROOT
ATOM      1  C   UNL     1       2.834   5.944  19.065  0.00  0.00    +0.000 C 
ENDROOT
BRANCH   1   2
ATOM      2  C   UNL     1       2.323   7.383  19.052  0.00  0.00    +0.000 A 
ATOM      3  C   UNL     1       1.682   7.913  20.184  0.00  0.00    +0.000 A 
ATOM      4  C   UNL     1       1.114   9.191  20.147  0.00  0.00    +0.000 A 
ATOM      5  C   UNL     1       1.189   9.945  18.969  0.00  0.00    +0.000 A 
ATOM      6  C   UNL     1       1.857   9.449  17.845  0.00  0.00    +0.000 A 
ATOM      7  C   UNL     1       2.420   8.172  17.891  0.00  0.00    +0.000 A 
BRANCH   5   8
ATOM      8  N   UNL     1       0.532  11.258  18.898  0.00  0.00    +0.000 N 
ATOM      9  O   UNL     1       1.248  12.254  18.714  0.00  0.00    +0.000 OA
ATOM     10  O   UNL     1      -0.700  11.294  19.034  0.00  0.00    +0.000 OA
ENDBRANCH   5   8
ENDBRANCH   1   2
BRANCH   1  11
ATOM     11  C   UNL     1       3.740   5.639  17.836  0.00  0.00    +0.000 C 
BRANCH  11  12
ATOM     12  N   UNL     1       5.178   5.840  18.079  0.00  0.00    +0.000 N 
ATOM     13  C   UNL     1       6.041   6.441  17.182  0.00  0.00    +0.000 C 
ATOM     14  O   UNL     1       5.674   6.796  16.063  0.00  0.00    +0.000 OA
ATOM     15  H   UNL     1       5.567   5.478  18.943  0.00  0.00    +0.000 HD
BRANCH  13  16
ATOM     16  C   UNL     1       7.478   6.646  17.670  0.00  0.00    +0.000 C 
ATOM     17 CL   UNL     1       7.844   8.387  17.702  0.00  0.00    +0.000 Cl
ATOM     18 CL   UNL     1       7.641   5.948  19.295  0.00  0.00    +0.000 Cl
ENDBRANCH  13  16
ENDBRANCH  11  12
BRANCH  11  19
ATOM     19  C   UNL     1       3.450   4.237  17.251  0.00  0.00    +0.000 C 
BRANCH  19  20
ATOM     20  O   UNL     1       4.351   3.257  17.816  0.00  0.00    +0.000 OA
BRANCH  20  22
ATOM     21  C   UNL     1       4.456   2.048  19.825  0.00  0.00    +0.000 C 
ATOM     22  C   UNL     1       3.754   2.257  18.520  0.00  0.00    +0.000 C 
ATOM     23  O   UNL     1       2.807   1.589  18.129  0.00  0.00    +0.000 OA
ENDBRANCH  20  22
ENDBRANCH  19  20
ENDBRANCH  11  19
ENDBRANCH   1  11
BRANCH   1  24
ATOM     24  O   UNL     1       1.671   5.081  18.989  0.00  0.00    +0.000 OA
BRANCH  24  25
ATOM     25  C   UNL     1       1.441   4.283  20.066  0.00  0.00    +0.000 C 
ATOM     26  C   UNL     1       2.387   4.620  21.181  0.00  0.00    +0.000 C 
ATOM     27  O   UNL     1       0.619   3.380  20.118  0.00  0.00    +0.000 OA
ENDBRANCH  24  25
ENDBRANCH   1  24
TORSDOF 10
ENDMDL
MODEL 5
REMARK VINA RESULT:      -7.1      2.698      3.690
REMARK  Name = 
REMARK  12 active torsions:
REMARK  status: ('A' for Active; 'I' for Inactive)
REMARK    1  A    between atoms: C_1  and  C_2
REMARK    2  A    between atoms: C_2  and  O_4
REMARK    3  A    between atoms: O_4  and  C_5
REMARK    4  A    between atoms: C_5  and  C_6
REMARK    5  A    between atoms: C_6  and  N_7
REMARK    6  A    between atoms: C_6  and  C_13
REMARK    7  A    between atoms: C_8  and  C_10
REMARK    8  A    between atoms: C_13  and  O_14
REMARK    9  A    between atoms: C_13  and  C_18
REMARK   10  A    between atoms: O_14  and  C_15
REMARK   11  A    between atoms: C_15  and  C_16
REMARK   12  A    between atoms: C_21  and  N_22
REMARK                            x       y       z     vdW  Elec       q    Type
REMARK                         _______ _______ _______ _____ _____    ______ ____
ROOT
ATOM      1  C   UNL     1       3.216   5.872  19.336  0.00  0.00    +0.000 C 
ENDROOT
BRANCH   1   2
ATOM      2  C   UNL     1       2.574   7.245  19.151  0.00  0.00    +0.000 A 
ATOM      3  C   UNL     1       1.879   7.847  20.212  0.00  0.00    +0.000 A 
ATOM      4  C   UNL     1       1.195   9.053  20.023  0.00  0.00    +0.000 A 
ATOM      5  C   UNL     1       1.209   9.662  18.762  0.00  0.00    +0.000 A 
ATOM      6  C   UNL     1       1.929   9.098  17.704  0.00  0.00    +0.000 A 
ATOM      7  C   UNL     1       2.607   7.893  17.902  0.00  0.00    +0.000 A 
BRANCH   5   8
ATOM      8  N   UNL     1       0.434  10.890  18.536  0.00  0.00    +0.000 N 
ATOM      9  O   UNL     1       1.037  11.973  18.591  0.00  0.00    +0.000 OA
ATOM     10  O   UNL     1      -0.779  10.773  18.309  0.00  0.00    +0.000 OA
ENDBRANCH   5   8
ENDBRANCH   1   2
BRANCH   1  11
ATOM     11  C   UNL     1       4.144   5.500  18.143  0.00  0.00    +0.000 C 
BRANCH  11  12
ATOM     12  N   UNL     1       5.510   6.038  18.248  0.00  0.00    +0.000 N 
ATOM     13  C   UNL     1       6.214   6.583  17.190  0.00  0.00    +0.000 C 
ATOM     14  O   UNL     1       5.764   6.592  16.045  0.00  0.00    +0.000 OA
ATOM     15  H   UNL     1       5.979   5.967  19.144  0.00  0.00    +0.000 HD
BRANCH  13  16
ATOM     16  C   UNL     1       7.582   7.180  17.532  0.00  0.00    +0.000 C 
ATOM     17 CL   UNL     1       7.428   8.945  17.691  0.00  0.00    +0.000 Cl
ATOM     18 CL   UNL     1       8.158   6.468  19.054  0.00  0.00    +0.000 Cl
ENDBRANCH  13  16
ENDBRANCH  11  12
BRANCH  11  19
ATOM     19  C   UNL     1       4.150   3.975  17.881  0.00  0.00    +0.000 C 
BRANCH  19  20
ATOM     20  O   UNL     1       5.016   3.303  18.825  0.00  0.00    +0.000 OA
BRANCH  20  22
ATOM     21  C   UNL     1       3.461   1.596  18.409  0.00  0.00    +0.000 C 
ATOM     22  C   UNL     1       4.556   2.110  19.289  0.00  0.00    +0.000 C 
ATOM     23  O   UNL     1       4.947   1.552  20.305  0.00  0.00    +0.000 OA
ENDBRANCH  20  22
ENDBRANCH  19  20
ENDBRANCH  11  19
ENDBRANCH   1  11
BRANCH   1  24
ATOM     24  O   UNL     1       2.138   4.903  19.383  0.00  0.00    +0.000 OA
BRANCH  24  25
ATOM     25  C   UNL     1       1.939   4.279  20.576  0.00  0.00    +0.000 C 
ATOM     26  C   UNL     1       0.873   3.232  20.448  0.00  0.00    +0.000 C 
ATOM     27  O   UNL     1       2.503   4.556  21.624  0.00  0.00    +0.000 OA
ENDBRANCH  24  25
ENDBRANCH   1  24
TORSDOF 10
ENDMDL
MODEL 6
REMARK VINA RESULT:      -7.1      2.839      4.617
REMARK  Name = 
REMARK  12 active torsions:
REMARK  status: ('A' for Active; 'I' for Inactive)
REMARK    1  A    between atoms: C_1  and  C_2
REMARK    2  A    between atoms: C_2  and  O_4
REMARK    3  A    between atoms: O_4  and  C_5
REMARK    4  A    between atoms: C_5  and  C_6
REMARK    5  A    between atoms: C_6  and  N_7
REMARK    6  A    between atoms: C_6  and  C_13
REMARK    7  A    between atoms: C_8  and  C_10
REMARK    8  A    between atoms: C_13  and  O_14
REMARK    9  A    between atoms: C_13  and  C_18
REMARK   10  A    between atoms: O_14  and  C_15
REMARK   11  A    between atoms: C_15  and  C_16
REMARK   12  A    between atoms: C_21  and  N_22
REMARK                            x       y       z     vdW  Elec       q    Type
REMARK                         _______ _______ _______ _____ _____    ______ ____
ROOT
ATOM      1  C   UNL     1       5.239   5.412  18.263  0.00  0.00    +0.000 C 
ENDROOT
BRANCH   1   2
ATOM      2  C   UNL     1       4.142   6.455  18.462  0.00  0.00    +0.000 A 
ATOM      3  C   UNL     1       3.343   6.425  19.616  0.00  0.00    +0.000 A 
ATOM      4  C   UNL     1       2.266   7.306  19.760  0.00  0.00    +0.000 A 
ATOM      5  C   UNL     1       1.987   8.226  18.741  0.00  0.00    +0.000 A 
ATOM      6  C   UNL     1       2.797   8.297  17.602  0.00  0.00    +0.000 A 
ATOM      7  C   UNL     1       3.868   7.412  17.468  0.00  0.00    +0.000 A 
BRANCH   5   8
ATOM      8  N   UNL     1       0.816   9.106  18.851  0.00  0.00    +0.000 N 
ATOM      9  O   UNL     1       0.340   9.569  17.803  0.00  0.00    +0.000 OA
ATOM     10  O   UNL     1       0.375   9.340  19.986  0.00  0.00    +0.000 OA
ENDBRANCH   5   8
ENDBRANCH   1   2
BRANCH   1  11
ATOM     11  C   UNL     1       4.659   4.038  17.817  0.00  0.00    +0.000 C 
BRANCH  11  12
ATOM     12  N   UNL     1       3.399   3.668  18.482  0.00  0.00    +0.000 N 
ATOM     13  C   UNL     1       3.273   2.632  19.389  0.00  0.00    +0.000 C 
ATOM     14  O   UNL     1       4.213   1.884  19.656  0.00  0.00    +0.000 OA
ATOM     15  H   UNL     1       2.561   4.181  18.228  0.00  0.00    +0.000 HD
BRANCH  13  16
ATOM     16  C   UNL     1       1.898   2.478  20.044  0.00  0.00    +0.000 C 
ATOM     17 CL   UNL     1       1.620   3.841  21.153  0.00  0.00    +0.000 Cl
ATOM     18 CL   UNL     1       0.655   2.446  18.776  0.00  0.00    +0.000 Cl
ENDBRANCH  13  16
ENDBRANCH  11  12
BRANCH  11  19
ATOM     19  C   UNL     1       4.541   3.943  16.278  0.00  0.00    +0.000 C 
BRANCH  19  20
ATOM     20  O   UNL     1       5.817   3.594  15.694  0.00  0.00    +0.000 OA
BRANCH  20  22
ATOM     21  C   UNL     1       6.096   3.799  13.372  0.00  0.00    +0.000 C 
ATOM     22  C   UNL     1       6.259   4.433  14.718  0.00  0.00    +0.000 C 
ATOM     23  O   UNL     1       6.762   5.532  14.909  0.00  0.00    +0.000 OA
ENDBRANCH  20  22
ENDBRANCH  19  20
ENDBRANCH  11  19
ENDBRANCH   1  11
BRANCH   1  24
ATOM     24  O   UNL     1       5.889   5.228  19.545  0.00  0.00    +0.000 OA
BRANCH  24  25
ATOM     25  C   UNL     1       7.215   5.528  19.598  0.00  0.00    +0.000 C 
ATOM     26  C   UNL     1       7.651   6.204  18.331  0.00  0.00    +0.000 C 
ATOM     27  O   UNL     1       7.970   5.247  20.517  0.00  0.00    +0.000 OA
ENDBRANCH  24  25
ENDBRANCH   1  24
TORSDOF 10
ENDMDL
MODEL 7
REMARK VINA RESULT:      -6.9      2.815      4.425
REMARK  Name = 
REMARK  12 active torsions:
REMARK  status: ('A' for Active; 'I' for Inactive)
REMARK    1  A    between atoms: C_1  and  C_2
REMARK    2  A    between atoms: C_2  and  O_4
REMARK    3  A    between atoms: O_4  and  C_5
REMARK    4  A    between atoms: C_5  and  C_6
REMARK    5  A    between atoms: C_6  and  N_7
REMARK    6  A    between atoms: C_6  and  C_13
REMARK    7  A    between atoms: C_8  and  C_10
REMARK    8  A    between atoms: C_13  and  O_14
REMARK    9  A    between atoms: C_13  and  C_18
REMARK   10  A    between atoms: O_14  and  C_15
REMARK   11  A    between atoms: C_15  and  C_16
REMARK   12  A    between atoms: C_21  and  N_22
REMARK                            x       y       z     vdW  Elec       q    Type
REMARK                         _______ _______ _______ _____ _____    ______ ____
ROOT
ATOM      1  C   UNL     1       4.926   5.939  17.662  0.00  0.00    +0.000 C 
ENDROOT
BRANCH   1   2
ATOM      2  C   UNL     1       3.755   6.797  18.136  0.00  0.00    +0.000 A 
ATOM      3  C   UNL     1       3.271   7.839  17.328  0.00  0.00    +0.000 A 
ATOM      4  C   UNL     1       2.273   8.699  17.796  0.00  0.00    +0.000 A 
ATOM      5  C   UNL     1       1.753   8.515  19.084  0.00  0.00    +0.000 A 
ATOM      6  C   UNL     1       2.194   7.459  19.888  0.00  0.00    +0.000 A 
ATOM      7  C   UNL     1       3.192   6.606  19.411  0.00  0.00    +0.000 A 
BRANCH   5   8
ATOM      8  N   UNL     1       0.756   9.457  19.612  0.00  0.00    +0.000 N 
ATOM      9  O   UNL     1       0.693   9.604  20.841  0.00  0.00    +0.000 OA
ATOM     10  O   UNL     1       0.032  10.046  18.796  0.00  0.00    +0.000 OA
ENDBRANCH   5   8
ENDBRANCH   1   2
BRANCH   1  11
ATOM     11  C   UNL     1       4.479   4.491  17.308  0.00  0.00    +0.000 C 
BRANCH  11  12
ATOM     12  N   UNL     1       3.070   4.198  17.620  0.00  0.00    +0.000 N 
ATOM     13  C   UNL     1       2.656   3.191  18.471  0.00  0.00    +0.000 C 
ATOM     14  O   UNL     1       3.451   2.405  18.985  0.00  0.00    +0.000 OA
ATOM     15  H   UNL     1       2.358   4.745  17.149  0.00  0.00    +0.000 HD
BRANCH  13  16
ATOM     16  C   UNL     1       1.150   3.119  18.742  0.00  0.00    +0.000 C 
ATOM     17 CL   UNL     1       0.665   1.416  18.909  0.00  0.00    +0.000 Cl
ATOM     18 CL   UNL     1       0.788   4.017  20.230  0.00  0.00    +0.000 Cl
ENDBRANCH  13  16
ENDBRANCH  11  12
BRANCH  11  19
ATOM     19  C   UNL     1       4.826   4.130  15.845  0.00  0.00    +0.000 C 
BRANCH  19  20
ATOM     20  O   UNL     1       6.239   3.856  15.713  0.00  0.00    +0.000 OA
BRANCH  20  22
ATOM     21  C   UNL     1       6.353   3.975  13.372  0.00  0.00    +0.000 C 
ATOM     22  C   UNL     1       6.861   4.489  14.681  0.00  0.00    +0.000 C 
ATOM     23  O   UNL     1       7.745   5.327  14.800  0.00  0.00    +0.000 OA
ENDBRANCH  20  22
ENDBRANCH  19  20
ENDBRANCH  11  19
ENDBRANCH   1  11
BRANCH   1  24
ATOM     24  O   UNL     1       5.867   5.861  18.761  0.00  0.00    +0.000 OA
BRANCH  24  25
ATOM     25  C   UNL     1       7.183   5.785  18.425  0.00  0.00    +0.000 C 
ATOM     26  C   UNL     1       7.654   7.088  17.849  0.00  0.00    +0.000 C 
ATOM     27  O   UNL     1       7.884   4.789  18.522  0.00  0.00    +0.000 OA
ENDBRANCH  24  25
ENDBRANCH   1  24
TORSDOF 10
ENDMDL
MODEL 8
REMARK VINA RESULT:      -6.9      2.569      3.987
REMARK  Name = 
REMARK  12 active torsions:
REMARK  status: ('A' for Active; 'I' for Inactive)
REMARK    1  A    between atoms: C_1  and  C_2
REMARK    2  A    between atoms: C_2  and  O_4
REMARK    3  A    between atoms: O_4  and  C_5
REMARK    4  A    between atoms: C_5  and  C_6
REMARK    5  A    between atoms: C_6  and  N_7
REMARK    6  A    between atoms: C_6  and  C_13
REMARK    7  A    between atoms: C_8  and  C_10
REMARK    8  A    between atoms: C_13  and  O_14
REMARK    9  A    between atoms: C_13  and  C_18
REMARK   10  A    between atoms: O_14  and  C_15
REMARK   11  A    between atoms: C_15  and  C_16
REMARK   12  A    between atoms: C_21  and  N_22
REMARK                            x       y       z     vdW  Elec       q    Type
REMARK                         _______ _______ _______ _____ _____    ______ ____
ROOT
ATOM      1  C   UNL     1       3.493   5.508  18.996  0.00  0.00    +0.000 C 
ENDROOT
BRANCH   1   2
ATOM      2  C   UNL     1       2.634   6.768  19.071  0.00  0.00    +0.000 A 
ATOM      3  C   UNL     1       2.452   7.566  17.931  0.00  0.00    +0.000 A 
ATOM      4  C   UNL     1       1.759   8.778  18.012  0.00  0.00    +0.000 A 
ATOM      5  C   UNL     1       1.242   9.195  19.246  0.00  0.00    +0.000 A 
ATOM      6  C   UNL     1       1.379   8.394  20.384  0.00  0.00    +0.000 A 
ATOM      7  C   UNL     1       2.074   7.186  20.293  0.00  0.00    +0.000 A 
BRANCH   5   8
ATOM      8  N   UNL     1       0.576  10.500  19.356  0.00  0.00    +0.000 N 
ATOM      9  O   UNL     1       1.104  11.469  18.791  0.00  0.00    +0.000 OA
ATOM     10  O   UNL     1      -0.473  10.557  20.015  0.00  0.00    +0.000 OA
ENDBRANCH   5   8
ENDBRANCH   1   2
BRANCH   1  11
ATOM     11  C   UNL     1       4.418   5.509  17.744  0.00  0.00    +0.000 C 
BRANCH  11  12
ATOM     12  N   UNL     1       5.799   5.944  18.011  0.00  0.00    +0.000 N 
ATOM     13  C   UNL     1       6.492   6.851  17.232  0.00  0.00    +0.000 C 
ATOM     14  O   UNL     1       6.017   7.318  16.197  0.00  0.00    +0.000 OA
ATOM     15  H   UNL     1       6.286   5.519  18.793  0.00  0.00    +0.000 HD
BRANCH  13  16
ATOM     16  C   UNL     1       7.881   7.247  17.741  0.00  0.00    +0.000 C 
ATOM     17 CL   UNL     1       7.936   9.007  17.990  0.00  0.00    +0.000 Cl
ATOM     18 CL   UNL     1       8.202   6.394  19.265  0.00  0.00    +0.000 Cl
ENDBRANCH  13  16
ENDBRANCH  11  12
BRANCH  11  19
ATOM     19  C   UNL     1       4.380   4.150  17.008  0.00  0.00    +0.000 C 
BRANCH  19  20
ATOM     20  O   UNL     1       4.610   4.335  15.592  0.00  0.00    +0.000 OA
BRANCH  20  22
ATOM     21  C   UNL     1       5.842   3.828  13.660  0.00  0.00    +0.000 C 
ATOM     22  C   UNL     1       5.843   3.968  15.150  0.00  0.00    +0.000 C 
ATOM     23  O   UNL     1       6.808   3.739  15.866  0.00  0.00    +0.000 OA
ENDBRANCH  20  22
ENDBRANCH  19  20
ENDBRANCH  11  19
ENDBRANCH   1  11
BRANCH   1  24
ATOM     24  O   UNL     1       2.587   4.382  18.882  0.00  0.00    +0.000 OA
BRANCH  24  25
ATOM     25  C   UNL     1       2.629   3.468  19.889  0.00  0.00    +0.000 C 
ATOM     26  C   UNL     1       1.615   3.802  20.943  0.00  0.00    +0.000 C 
ATOM     27  O   UNL     1       3.412   2.533  19.966  0.00  0.00    +0.000 OA
ENDBRANCH  24  25
ENDBRANCH   1  24
TORSDOF 10
ENDMDL
MODEL 9
REMARK VINA RESULT:      -6.9      2.579      4.227
REMARK  Name = 
REMARK  12 active torsions:
REMARK  status: ('A' for Active; 'I' for Inactive)
REMARK    1  A    between atoms: C_1  and  C_2
REMARK    2  A    between atoms: C_2  and  O_4
REMARK    3  A    between atoms: O_4  and  C_5
REMARK    4  A    between atoms: C_5  and  C_6
REMARK    5  A    between atoms: C_6  and  N_7
REMARK    6  A    between atoms: C_6  and  C_13
REMARK    7  A    between atoms: C_8  and  C_10
REMARK    8  A    between atoms: C_13  and  O_14
REMARK    9  A    between atoms: C_13  and  C_18
REMARK   10  A    between atoms: O_14  and  C_15
REMARK   11  A    between atoms: C_15  and  C_16
REMARK   12  A    between atoms: C_21  and  N_22
REMARK                            x       y       z     vdW  Elec       q    Type
REMARK                         _______ _______ _______ _____ _____    ______ ____
ROOT
ATOM      1  C   UNL     1       5.515   5.427  18.055  0.00  0.00    +0.000 C 
ENDROOT
BRANCH   1   2
ATOM      2  C   UNL     1       4.284   6.307  18.256  0.00  0.00    +0.000 A 
ATOM      3  C   UNL     1       3.964   7.297  17.312  0.00  0.00    +0.000 A 
ATOM      4  C   UNL     1       2.903   8.181  17.539  0.00  0.00    +0.000 A 
ATOM      5  C   UNL     1       2.156   8.072  18.719  0.00  0.00    +0.000 A 
ATOM      6  C   UNL     1       2.435   7.068  19.651  0.00  0.00    +0.000 A 
ATOM      7  C   UNL     1       3.497   6.191  19.416  0.00  0.00    +0.000 A 
BRANCH   5   8
ATOM      8  N   UNL     1       1.087   9.041  18.999  0.00  0.00    +0.000 N 
ATOM      9  O   UNL     1       0.746   9.201  20.180  0.00  0.00    +0.000 OA
ATOM     10  O   UNL     1       0.583   9.637  18.035  0.00  0.00    +0.000 OA
ENDBRANCH   5   8
ENDBRANCH   1   2
BRANCH   1  11
ATOM     11  C   UNL     1       5.130   3.971  17.660  0.00  0.00    +0.000 C 
BRANCH  11  12
ATOM     12  N   UNL     1       3.682   3.708  17.657  0.00  0.00    +0.000 N 
ATOM     13  C   UNL     1       3.049   2.838  18.526  0.00  0.00    +0.000 C 
ATOM     14  O   UNL     1       3.675   2.155  19.335  0.00  0.00    +0.000 OA
ATOM     15  H   UNL     1       3.120   4.162  16.946  0.00  0.00    +0.000 HD
BRANCH  13  16
ATOM     16  C   UNL     1       1.522   2.784  18.425  0.00  0.00    +0.000 C 
ATOM     17 CL   UNL     1       0.822   2.880  20.058  0.00  0.00    +0.000 Cl
ATOM     18 CL   UNL     1       0.961   4.143  17.429  0.00  0.00    +0.000 Cl
ENDBRANCH  13  16
ENDBRANCH  11  12
BRANCH  11  19
ATOM     19  C   UNL     1       5.789   3.551  16.326  0.00  0.00    +0.000 C 
BRANCH  19  20
ATOM     20  O   UNL     1       5.200   4.274  15.221  0.00  0.00    +0.000 OA
BRANCH  20  22
ATOM     21  C   UNL     1       7.171   5.021  14.189  0.00  0.00    +0.000 C 
ATOM     22  C   UNL     1       5.905   4.235  14.057  0.00  0.00    +0.000 C 
ATOM     23  O   UNL     1       5.540   3.677  13.032  0.00  0.00    +0.000 OA
ENDBRANCH  20  22
ENDBRANCH  19  20
ENDBRANCH  11  19
ENDBRANCH   1  11
BRANCH   1  24
ATOM     24  O   UNL     1       6.212   5.377  19.325  0.00  0.00    +0.000 OA
BRANCH  24  25
ATOM     25  C   UNL     1       7.536   5.689  19.300  0.00  0.00    +0.000 C 
ATOM     26  C   UNL     1       7.808   6.739  18.262  0.00  0.00    +0.000 C 
ATOM     27  O   UNL     1       8.403   5.163  19.982  0.00  0.00    +0.000 OA
ENDBRANCH  24  25
ENDBRANCH   1  24
TORSDOF 10
ENDMDL
