MODEL 1
REMARK VINA RESULT:      -8.1      0.000      0.000
REMARK  Name = 
REMARK  7 active torsions:
REMARK  status: ('A' for Active; 'I' for Inactive)
REMARK    1  A    between atoms: C_1  and  S_2
REMARK    2  A    between atoms: S_2  and  N_5
REMARK    3  A    between atoms: N_5  and  C_6
REMARK    4  A    between atoms: N_5  and  C_17
REMARK    5  A    between atoms: C_6  and  C_7
REMARK    6  A    between atoms: N_9  and  C_10
REMARK    7  A    between atoms: C_10  and  C_11
REMARK                            x       y       z     vdW  Elec       q    Type
REMARK                         _______ _______ _______ _____ _____    ______ ____
ROOT
ATOM      1  N   UNL     1       3.582   4.192  19.262  0.00  0.00    +0.000 N 
ENDROOT
BRANCH   1   2
ATOM      2  C   UNL     1       4.749   4.531  18.482  0.00  0.00    +0.000 A 
ATOM      3  C   UNL     1       4.843   4.035  17.181  0.00  0.00    +0.000 A 
ATOM      4  C   UNL     1       5.976   4.311  16.420  0.00  0.00    +0.000 A 
ATOM      5 CL   UNL     1       6.100   3.683  14.824  0.00  0.00    +0.000 Cl
ATOM      6  C   UNL     1       7.012   5.083  16.941  0.00  0.00    +0.000 A 
ATOM      7  C   UNL     1       6.907   5.578  18.238  0.00  0.00    +0.000 A 
ATOM      8 CL   UNL     1       8.182   6.535  18.888  0.00  0.00    +0.000 Cl
ATOM      9  C   UNL     1       5.782   5.306  19.016  0.00  0.00    +0.000 A 
ENDBRANCH   1   2
BRANCH   1  11
ATOM     10  C   UNL     1       2.551   2.655  21.266  0.00  0.00    +0.000 C 
ATOM     11  S   UNL     1       3.546   2.579  19.785  0.00  0.00    +0.000 S 
ATOM     12  O   UNL     1       4.901   2.199  20.124  0.00  0.00    +0.000 OA
ATOM     13  O   UNL     1       2.784   1.798  18.826  0.00  0.00    +0.000 OA
ENDBRANCH   1  11
BRANCH   1  14
ATOM     14  C   UNL     1       3.048   5.299  20.098  0.00  0.00    +0.000 C 
BRANCH  14  15
ATOM     15  C   UNL     1       2.418   6.526  19.469  0.00  0.00    +0.000 C 
ATOM     16  O   UNL     1       2.292   6.632  18.251  0.00  0.00    +0.000 OA
ATOM     17  N   UNL     1       2.035   7.513  20.346  0.00  0.00    +0.000 N 
ATOM     18  H   UNL     1       1.896   7.259  21.325  0.00  0.00    +0.000 HD
BRANCH  17  19
ATOM     19  C   UNL     1       1.427   8.746  19.895  0.00  0.00    +0.000 C 
BRANCH  19  20
ATOM     20  C   UNL     1       0.740   9.465  21.023  0.00  0.00    +0.000 A 
ATOM     21  C   UNL     1       0.197  10.740  20.829  0.00  0.00    +0.000 A 
ATOM     22  C   UNL     1      -0.429  11.368  21.895  0.00  0.00    +0.000 A 
ATOM     23  N   UNL     1      -0.543  10.824  23.125  0.00  0.00    +0.000 NA
ATOM     24  C   UNL     1      -0.002   9.600  23.297  0.00  0.00    +0.000 A 
ATOM     25  C   UNL     1       0.644   8.892  22.294  0.00  0.00    +0.000 A 
ENDBRANCH  19  20
ENDBRANCH  17  19
ENDBRANCH  14  15
ENDBRANCH   1  14
TORSDOF 6
ENDMDL
MODEL 2
REMARK VINA RESULT:      -8.0      0.096      1.842
REMARK  Name = 
REMARK  7 active torsions:
REMARK  status: ('A' for Active; 'I' for Inactive)
REMARK    1  A    between atoms: C_1  and  S_2
REMARK    2  A    between atoms: S_2  and  N_5
REMARK    3  A    between atoms: N_5  and  C_6
REMARK    4  A    between atoms: N_5  and  C_17
REMARK    5  A    between atoms: C_6  and  C_7
REMARK    6  A    between atoms: N_9  and  C_10
REMARK    7  A    between atoms: C_10  and  C_11
REMARK                            x       y       z     vdW  Elec       q    Type
REMARK                         _______ _______ _______ _____ _____    ______ ____
ROOT
ATOM      1  N   UNL     1       3.554   4.171  19.223  0.00  0.00    +0.000 N 
ENDROOT
BRANCH   1   2
ATOM      2  C   UNL     1       4.716   4.458  18.416  0.00  0.00    +0.000 A 
ATOM      3  C   UNL     1       5.729   5.241  18.968  0.00  0.00    +0.000 A 
ATOM      4  C   UNL     1       6.842   5.569  18.197  0.00  0.00    +0.000 A 
ATOM      5 CL   UNL     1       8.082   6.551  18.872  0.00  0.00    +0.000 Cl
ATOM      6  C   UNL     1       6.957   5.116  16.886  0.00  0.00    +0.000 A 
ATOM      7  C   UNL     1       5.943   4.330  16.345  0.00  0.00    +0.000 A 
ATOM      8 CL   UNL     1       6.081   3.765  14.724  0.00  0.00    +0.000 Cl
ATOM      9  C   UNL     1       4.819   3.998  17.100  0.00  0.00    +0.000 A 
ENDBRANCH   1   2
BRANCH   1  11
ATOM     10  C   UNL     1       2.463   2.694  21.240  0.00  0.00    +0.000 C 
ATOM     11  S   UNL     1       3.473   2.568  19.773  0.00  0.00    +0.000 S 
ATOM     12  O   UNL     1       4.815   2.163  20.136  0.00  0.00    +0.000 OA
ATOM     13  O   UNL     1       2.705   1.789  18.819  0.00  0.00    +0.000 OA
ENDBRANCH   1  11
BRANCH   1  14
ATOM     14  C   UNL     1       3.072   5.308  20.050  0.00  0.00    +0.000 C 
BRANCH  14  15
ATOM     15  C   UNL     1       2.426   6.523  19.415  0.00  0.00    +0.000 C 
ATOM     16  O   UNL     1       2.260   6.604  18.200  0.00  0.00    +0.000 OA
ATOM     17  N   UNL     1       2.074   7.531  20.283  0.00  0.00    +0.000 N 
ATOM     18  H   UNL     1       1.966   7.299  21.271  0.00  0.00    +0.000 HD
BRANCH  17  19
ATOM     19  C   UNL     1       1.455   8.756  19.826  0.00  0.00    +0.000 C 
BRANCH  19  20
ATOM     20  C   UNL     1       0.766   9.478  20.951  0.00  0.00    +0.000 A 
ATOM     21  C   UNL     1       0.128  10.702  20.726  0.00  0.00    +0.000 A 
ATOM     22  C   UNL     1      -0.497  11.334  21.790  0.00  0.00    +0.000 A 
ATOM     23  N   UNL     1      -0.522  10.841  23.046  0.00  0.00    +0.000 NA
ATOM     24  C   UNL     1       0.110   9.666  23.247  0.00  0.00    +0.000 A 
ATOM     25  C   UNL     1       0.764   8.959  22.248  0.00  0.00    +0.000 A 
ENDBRANCH  19  20
ENDBRANCH  17  19
ENDBRANCH  14  15
ENDBRANCH   1  14
TORSDOF 6
ENDMDL
MODEL 3
REMARK VINA RESULT:      -7.8      0.657      2.175
REMARK  Name = 
REMARK  7 active torsions:
REMARK  status: ('A' for Active; 'I' for Inactive)
REMARK    1  A    between atoms: C_1  and  S_2
REMARK    2  A    between atoms: S_2  and  N_5
REMARK    3  A    between atoms: N_5  and  C_6
REMARK    4  A    between atoms: N_5  and  C_17
REMARK    5  A    between atoms: C_6  and  C_7
REMARK    6  A    between atoms: N_9  and  C_10
REMARK    7  A    between atoms: C_10  and  C_11
REMARK                            x       y       z     vdW  Elec       q    Type
REMARK                         _______ _______ _______ _____ _____    ______ ____
ROOT
ATOM      1  N   UNL     1       3.151   4.346  18.704  0.00  0.00    +0.000 N 
ENDROOT
BRANCH   1   2
ATOM      2  C   UNL     1       4.471   4.431  18.127  0.00  0.00    +0.000 A 
ATOM      3  C   UNL     1       5.512   4.910  18.922  0.00  0.00    +0.000 A 
ATOM      4  C   UNL     1       6.788   5.043  18.378  0.00  0.00    +0.000 A 
ATOM      5 CL   UNL     1       8.067   5.652  19.352  0.00  0.00    +0.000 Cl
ATOM      6  C   UNL     1       7.035   4.694  17.052  0.00  0.00    +0.000 A 
ATOM      7  C   UNL     1       5.991   4.212  16.268  0.00  0.00    +0.000 A 
ATOM      8 CL   UNL     1       6.291   3.777  14.629  0.00  0.00    +0.000 Cl
ATOM      9  C   UNL     1       4.706   4.079  16.795  0.00  0.00    +0.000 A 
ENDBRANCH   1   2
BRANCH   1  11
ATOM     10  C   UNL     1       1.961   2.769  20.585  0.00  0.00    +0.000 C 
ATOM     11  S   UNL     1       2.588   2.760  18.913  0.00  0.00    +0.000 S 
ATOM     12  O   UNL     1       3.731   1.876  18.823  0.00  0.00    +0.000 OA
ATOM     13  O   UNL     1       1.438   2.559  18.050  0.00  0.00    +0.000 OA
ENDBRANCH   1  11
BRANCH   1  14
ATOM     14  C   UNL     1       2.821   5.428  19.670  0.00  0.00    +0.000 C 
BRANCH  14  15
ATOM     15  C   UNL     1       2.370   6.794  19.196  0.00  0.00    +0.000 C 
ATOM     16  O   UNL     1       2.458   7.128  18.016  0.00  0.00    +0.000 OA
ATOM     17  N   UNL     1       1.892   7.635  20.174  0.00  0.00    +0.000 N 
ATOM     18  H   UNL     1       1.576   7.221  21.051  0.00  0.00    +0.000 HD
BRANCH  17  19
ATOM     19  C   UNL     1       1.432   8.974  19.877  0.00  0.00    +0.000 C 
BRANCH  19  20
ATOM     20  C   UNL     1       0.725   9.587  21.054  0.00  0.00    +0.000 A 
ATOM     21  C   UNL     1       0.685   8.921  22.284  0.00  0.00    +0.000 A 
ATOM     22  C   UNL     1       0.024   9.521  23.346  0.00  0.00    +0.000 A 
ATOM     23  N   UNL     1      -0.597  10.716  23.264  0.00  0.00    +0.000 NA
ATOM     24  C   UNL     1      -0.559  11.337  22.067  0.00  0.00    +0.000 A 
ATOM     25  C   UNL     1       0.075  10.819  20.947  0.00  0.00    +0.000 A 
ENDBRANCH  19  20
ENDBRANCH  17  19
ENDBRANCH  14  15
ENDBRANCH   1  14
TORSDOF 6
ENDMDL
MODEL 4
REMARK VINA RESULT:      -7.7      0.843      2.310
REMARK  Name = 
REMARK  7 active torsions:
REMARK  status: ('A' for Active; 'I' for Inactive)
REMARK    1  A    between atoms: C_1  and  S_2
REMARK    2  A    between atoms: S_2  and  N_5
REMARK    3  A    between atoms: N_5  and  C_6
REMARK    4  A    between atoms: N_5  and  C_17
REMARK    5  A    between atoms: C_6  and  C_7
REMARK    6  A    between atoms: N_9  and  C_10
REMARK    7  A    between atoms: C_10  and  C_11
REMARK                            x       y       z     vdW  Elec       q    Type
REMARK                         _______ _______ _______ _____ _____    ______ ____
ROOT
ATOM      1  N   UNL     1       3.440   4.342  19.013  0.00  0.00    +0.000 N 
ENDROOT
BRANCH   1   2
ATOM      2  C   UNL     1       4.714   4.479  18.348  0.00  0.00    +0.000 A 
ATOM      3  C   UNL     1       5.788   4.995  19.074  0.00  0.00    +0.000 A 
ATOM      4  C   UNL     1       7.017   5.179  18.446  0.00  0.00    +0.000 A 
ATOM      5 CL   UNL     1       8.335   5.834  19.335  0.00  0.00    +0.000 Cl
ATOM      6  C   UNL     1       7.187   4.845  17.105  0.00  0.00    +0.000 A 
ATOM      7  C   UNL     1       6.111   4.325  16.390  0.00  0.00    +0.000 A 
ATOM      8 CL   UNL     1       6.316   3.908  14.732  0.00  0.00    +0.000 Cl
ATOM      9  C   UNL     1       4.872   4.141  17.001  0.00  0.00    +0.000 A 
ENDBRANCH   1   2
BRANCH   1  11
ATOM     10  C   UNL     1       2.431   2.089  17.851  0.00  0.00    +0.000 C 
ATOM     11  S   UNL     1       3.032   2.741  19.401  0.00  0.00    +0.000 S 
ATOM     12  O   UNL     1       1.952   2.787  20.364  0.00  0.00    +0.000 OA
ATOM     13  O   UNL     1       4.251   2.012  19.701  0.00  0.00    +0.000 OA
ENDBRANCH   1  11
BRANCH   1  14
ATOM     14  C   UNL     1       3.070   5.479  19.896  0.00  0.00    +0.000 C 
BRANCH  14  15
ATOM     15  C   UNL     1       2.467   6.749  19.330  0.00  0.00    +0.000 C 
ATOM     16  O   UNL     1       2.472   6.982  18.122  0.00  0.00    +0.000 OA
ATOM     17  N   UNL     1       1.950   7.626  20.255  0.00  0.00    +0.000 N 
ATOM     18  H   UNL     1       1.714   7.265  21.179  0.00  0.00    +0.000 HD
BRANCH  17  19
ATOM     19  C   UNL     1       1.349   8.884  19.868  0.00  0.00    +0.000 C 
BRANCH  19  20
ATOM     20  C   UNL     1       0.684   9.557  21.036  0.00  0.00    +0.000 A 
ATOM     21  C   UNL     1       0.588   8.908  22.272  0.00  0.00    +0.000 A 
ATOM     22  C   UNL     1      -0.032   9.565  23.324  0.00  0.00    +0.000 A 
ATOM     23  N   UNL     1      -0.562  10.802  23.229  0.00  0.00    +0.000 NA
ATOM     24  C   UNL     1      -0.471  11.408  22.026  0.00  0.00    +0.000 A 
ATOM     25  C   UNL     1       0.128  10.834  20.915  0.00  0.00    +0.000 A 
ENDBRANCH  19  20
ENDBRANCH  17  19
ENDBRANCH  14  15
ENDBRANCH   1  14
TORSDOF 6
ENDMDL
MODEL 5
REMARK VINA RESULT:      -7.6      4.504      5.690
REMARK  Name = 
REMARK  7 active torsions:
REMARK  status: ('A' for Active; 'I' for Inactive)
REMARK    1  A    between atoms: C_1  and  S_2
REMARK    2  A    between atoms: S_2  and  N_5
REMARK    3  A    between atoms: N_5  and  C_6
REMARK    4  A    between atoms: N_5  and  C_17
REMARK    5  A    between atoms: C_6  and  C_7
REMARK    6  A    between atoms: N_9  and  C_10
REMARK    7  A    between atoms: C_10  and  C_11
REMARK                            x       y       z     vdW  Elec       q    Type
REMARK                         _______ _______ _______ _____ _____    ______ ____
ROOT
ATOM      1  N   UNL     1       5.804   4.979  16.535  0.00  0.00    +0.000 N 
ENDROOT
BRANCH   1   2
ATOM      2  C   UNL     1       6.229   4.731  15.178  0.00  0.00    +0.000 A 
ATOM      3  C   UNL     1       7.341   5.421  14.695  0.00  0.00    +0.000 A 
ATOM      4  C   UNL     1       7.747   5.233  13.376  0.00  0.00    +0.000 A 
ATOM      5 CL   UNL     1       9.105   6.099  12.775  0.00  0.00    +0.000 Cl
ATOM      6  C   UNL     1       7.061   4.357  12.539  0.00  0.00    +0.000 A 
ATOM      7  C   UNL     1       5.956   3.668  13.032  0.00  0.00    +0.000 A 
ATOM      8 CL   UNL     1       5.104   2.581  12.002  0.00  0.00    +0.000 Cl
ATOM      9  C   UNL     1       5.531   3.849  14.348  0.00  0.00    +0.000 A 
ENDBRANCH   1   2
BRANCH   1  11
ATOM     10  C   UNL     1       7.483   6.521  18.035  0.00  0.00    +0.000 C 
ATOM     11  S   UNL     1       7.042   4.826  17.686  0.00  0.00    +0.000 S 
ATOM     12  O   UNL     1       8.152   4.153  17.046  0.00  0.00    +0.000 OA
ATOM     13  O   UNL     1       6.471   4.296  18.911  0.00  0.00    +0.000 OA
ENDBRANCH   1  11
BRANCH   1  14
ATOM     14  C   UNL     1       4.725   5.992  16.676  0.00  0.00    +0.000 C 
BRANCH  14  15
ATOM     15  C   UNL     1       3.457   5.687  17.448  0.00  0.00    +0.000 C 
ATOM     16  O   UNL     1       2.945   6.516  18.198  0.00  0.00    +0.000 OA
ATOM     17  N   UNL     1       2.947   4.421  17.277  0.00  0.00    +0.000 N 
ATOM     18  H   UNL     1       3.232   3.896  16.450  0.00  0.00    +0.000 HD
BRANCH  17  19
ATOM     19  C   UNL     1       1.747   3.980  17.954  0.00  0.00    +0.000 C 
BRANCH  19  20
ATOM     20  C   UNL     1       2.053   3.454  19.329  0.00  0.00    +0.000 A 
ATOM     21  C   UNL     1       3.320   2.941  19.629  0.00  0.00    +0.000 A 
ATOM     22  C   UNL     1       3.561   2.467  20.909  0.00  0.00    +0.000 A 
ATOM     23  N   UNL     1       2.640   2.464  21.895  0.00  0.00    +0.000 NA
ATOM     24  C   UNL     1       1.420   2.952  21.584  0.00  0.00    +0.000 A 
ATOM     25  C   UNL     1       1.081   3.446  20.333  0.00  0.00    +0.000 A 
ENDBRANCH  19  20
ENDBRANCH  17  19
ENDBRANCH  14  15
ENDBRANCH   1  14
TORSDOF 6
ENDMDL
MODEL 6
REMARK VINA RESULT:      -7.5      1.355      1.410
REMARK  Name = 
REMARK  7 active torsions:
REMARK  status: ('A' for Active; 'I' for Inactive)
REMARK    1  A    between atoms: C_1  and  S_2
REMARK    2  A    between atoms: S_2  and  N_5
REMARK    3  A    between atoms: N_5  and  C_6
REMARK    4  A    between atoms: N_5  and  C_17
REMARK    5  A    between atoms: C_6  and  C_7
REMARK    6  A    between atoms: N_9  and  C_10
REMARK    7  A    between atoms: C_10  and  C_11
REMARK                            x       y       z     vdW  Elec       q    Type
REMARK                         _______ _______ _______ _____ _____    ______ ____
ROOT
ATOM      1  N   UNL     1       3.148   5.128  18.365  0.00  0.00    +0.000 N 
ENDROOT
BRANCH   1   2
ATOM      2  C   UNL     1       4.513   5.029  17.906  0.00  0.00    +0.000 A 
ATOM      3  C   UNL     1       4.744   4.578  16.606  0.00  0.00    +0.000 A 
ATOM      4  C   UNL     1       6.052   4.432  16.151  0.00  0.00    +0.000 A 
ATOM      5 CL   UNL     1       6.336   3.857  14.556  0.00  0.00    +0.000 Cl
ATOM      6  C   UNL     1       7.131   4.739  16.977  0.00  0.00    +0.000 A 
ATOM      7  C   UNL     1       6.891   5.194  18.270  0.00  0.00    +0.000 A 
ATOM      8 CL   UNL     1       8.220   5.578  19.296  0.00  0.00    +0.000 Cl
ATOM      9  C   UNL     1       5.587   5.340  18.745  0.00  0.00    +0.000 A 
ENDBRANCH   1   2
BRANCH   1  11
ATOM     10  C   UNL     1       3.520   2.558  19.202  0.00  0.00    +0.000 C 
ATOM     11  S   UNL     1       2.331   3.643  18.429  0.00  0.00    +0.000 S 
ATOM     12  O   UNL     1       2.092   3.217  17.066  0.00  0.00    +0.000 OA
ATOM     13  O   UNL     1       1.225   3.763  19.363  0.00  0.00    +0.000 OA
ENDBRANCH   1  11
BRANCH   1  14
ATOM     14  C   UNL     1       2.902   6.201  19.364  0.00  0.00    +0.000 C 
BRANCH  14  15
ATOM     15  C   UNL     1       2.298   7.530  18.957  0.00  0.00    +0.000 C 
ATOM     16  O   UNL     1       2.425   7.974  17.818  0.00  0.00    +0.000 OA
ATOM     17  N   UNL     1       1.634   8.211  19.951  0.00  0.00    +0.000 N 
ATOM     18  H   UNL     1       1.315   7.683  20.764  0.00  0.00    +0.000 HD
BRANCH  17  19
ATOM     19  C   UNL     1       1.011   9.496  19.717  0.00  0.00    +0.000 C 
BRANCH  19  20
ATOM     20  C   UNL     1       0.340  10.015  20.958  0.00  0.00    +0.000 A 
ATOM     21  C   UNL     1      -0.101  11.341  21.027  0.00  0.00    +0.000 A 
ATOM     22  C   UNL     1      -0.717  11.780  22.189  0.00  0.00    +0.000 A 
ATOM     23  N   UNL     1      -0.913  11.002  23.274  0.00  0.00    +0.000 NA
ATOM     24  C   UNL     1      -0.470   9.730  23.195  0.00  0.00    +0.000 A 
ATOM     25  C   UNL     1       0.158   9.199  22.078  0.00  0.00    +0.000 A 
ENDBRANCH  19  20
ENDBRANCH  17  19
ENDBRANCH  14  15
ENDBRANCH   1  14
TORSDOF 6
ENDMDL
MODEL 7
REMARK VINA RESULT:      -7.4      5.520      7.375
REMARK  Name = 
REMARK  7 active torsions:
REMARK  status: ('A' for Active; 'I' for Inactive)
REMARK    1  A    between atoms: C_1  and  S_2
REMARK    2  A    between atoms: S_2  and  N_5
REMARK    3  A    between atoms: N_5  and  C_6
REMARK    4  A    between atoms: N_5  and  C_17
REMARK    5  A    between atoms: C_6  and  C_7
REMARK    6  A    between atoms: N_9  and  C_10
REMARK    7  A    between atoms: C_10  and  C_11
REMARK                            x       y       z     vdW  Elec       q    Type
REMARK                         _______ _______ _______ _____ _____    ______ ____
ROOT
ATOM      1  N   UNL     1       6.435   6.170  17.273  0.00  0.00    +0.000 N 
ENDROOT
BRANCH   1   2
ATOM      2  C   UNL     1       5.115   6.143  17.857  0.00  0.00    +0.000 A 
ATOM      3  C   UNL     1       4.215   7.151  17.509  0.00  0.00    +0.000 A 
ATOM      4  C   UNL     1       2.949   7.173  18.090  0.00  0.00    +0.000 A 
ATOM      5 CL   UNL     1       1.848   8.426  17.675  0.00  0.00    +0.000 Cl
ATOM      6  C   UNL     1       2.571   6.197  19.008  0.00  0.00    +0.000 A 
ATOM      7  C   UNL     1       3.474   5.192  19.345  0.00  0.00    +0.000 A 
ATOM      8 CL   UNL     1       3.012   3.980  20.478  0.00  0.00    +0.000 Cl
ATOM      9  C   UNL     1       4.748   5.158  18.778  0.00  0.00    +0.000 A 
ENDBRANCH   1   2
BRANCH   1  11
ATOM     10  C   UNL     1       5.154   4.076  16.083  0.00  0.00    +0.000 C 
ATOM     11  S   UNL     1       6.683   4.998  16.072  0.00  0.00    +0.000 S 
ATOM     12  O   UNL     1       7.771   4.148  16.510  0.00  0.00    +0.000 OA
ATOM     13  O   UNL     1       6.747   5.662  14.782  0.00  0.00    +0.000 OA
ENDBRANCH   1  11
BRANCH   1  14
ATOM     14  C   UNL     1       7.053   7.520  17.189  0.00  0.00    +0.000 C 
BRANCH  14  15
ATOM     15  C   UNL     1       8.058   7.989  18.221  0.00  0.00    +0.000 C 
ATOM     16  O   UNL     1       8.549   7.215  19.041  0.00  0.00    +0.000 OA
ATOM     17  N   UNL     1       8.352   9.333  18.197  0.00  0.00    +0.000 N 
ATOM     18  H   UNL     1       8.152   9.853  17.343  0.00  0.00    +0.000 HD
BRANCH  17  19
ATOM     19  C   UNL     1       9.287   9.931  19.126  0.00  0.00    +0.000 C 
BRANCH  19  20
ATOM     20  C   UNL     1       9.855  11.213  18.584  0.00  0.00    +0.000 A 
ATOM     21  C   UNL     1       9.032  12.136  17.930  0.00  0.00    +0.000 A 
ATOM     22  C   UNL     1       9.595  13.307  17.447  0.00  0.00    +0.000 A 
ATOM     23  N   UNL     1      10.904  13.614  17.562  0.00  0.00    +0.000 NA
ATOM     24  C   UNL     1      11.685  12.707  18.186  0.00  0.00    +0.000 A 
ATOM     25  C   UNL     1      11.216  11.508  18.701  0.00  0.00    +0.000 A 
ENDBRANCH  19  20
ENDBRANCH  17  19
ENDBRANCH  14  15
ENDBRANCH   1  14
TORSDOF 6
ENDMDL
MODEL 8
REMARK VINA RESULT:      -7.3      1.383      2.421
REMARK  Name = 
REMARK  7 active torsions:
REMARK  status: ('A' for Active; 'I' for Inactive)
REMARK    1  A    between atoms: C_1  and  S_2
REMARK    2  A    between atoms: S_2  and  N_5
REMARK    3  A    between atoms: N_5  and  C_6
REMARK    4  A    between atoms: N_5  and  C_17
REMARK    5  A    between atoms: C_6  and  C_7
REMARK    6  A    between atoms: N_9  and  C_10
REMARK    7  A    between atoms: C_10  and  C_11
REMARK                            x       y       z     vdW  Elec       q    Type
REMARK                         _______ _______ _______ _____ _____    ______ ____
ROOT
ATOM      1  N   UNL     1       3.067   5.228  18.365  0.00  0.00    +0.000 N 
ENDROOT
BRANCH   1   2
ATOM      2  C   UNL     1       4.422   5.033  17.905  0.00  0.00    +0.000 A 
ATOM      3  C   UNL     1       5.468   5.376  18.762  0.00  0.00    +0.000 A 
ATOM      4  C   UNL     1       6.785   5.238  18.329  0.00  0.00    +0.000 A 
ATOM      5 CL   UNL     1       8.073   5.679  19.379  0.00  0.00    +0.000 Cl
ATOM      6  C   UNL     1       7.067   4.755  17.054  0.00  0.00    +0.000 A 
ATOM      7  C   UNL     1       6.017   4.411  16.208  0.00  0.00    +0.000 A 
ATOM      8 CL   UNL     1       6.359   3.810  14.630  0.00  0.00    +0.000 Cl
ATOM      9  C   UNL     1       4.692   4.548  16.623  0.00  0.00    +0.000 A 
ENDBRANCH   1   2
BRANCH   1  11
ATOM     10  C   UNL     1       1.176   4.207  20.045  0.00  0.00    +0.000 C 
ATOM     11  S   UNL     1       2.224   3.786  18.662  0.00  0.00    +0.000 S 
ATOM     12  O   UNL     1       3.193   2.789  19.067  0.00  0.00    +0.000 OA
ATOM     13  O   UNL     1       1.335   3.530  17.543  0.00  0.00    +0.000 OA
ENDBRANCH   1  11
BRANCH   1  14
ATOM     14  C   UNL     1       2.859   6.443  19.197  0.00  0.00    +0.000 C 
BRANCH  14  15
ATOM     15  C   UNL     1       2.476   7.768  18.569  0.00  0.00    +0.000 C 
ATOM     16  O   UNL     1       3.014   8.174  17.541  0.00  0.00    +0.000 OA
ATOM     17  N   UNL     1       1.517   8.489  19.242  0.00  0.00    +0.000 N 
ATOM     18  H   UNL     1       0.915   7.993  19.899  0.00  0.00    +0.000 HD
BRANCH  17  19
ATOM     19  C   UNL     1       1.054   9.777  18.771  0.00  0.00    +0.000 C 
BRANCH  19  20
ATOM     20  C   UNL     1       0.679  10.678  19.915  0.00  0.00    +0.000 A 
ATOM     21  C   UNL     1       1.163  11.989  19.976  0.00  0.00    +0.000 A 
ATOM     22  C   UNL     1       0.792  12.787  21.047  0.00  0.00    +0.000 A 
ATOM     23  N   UNL     1      -0.010  12.373  22.050  0.00  0.00    +0.000 NA
ATOM     24  C   UNL     1      -0.458  11.102  21.980  0.00  0.00    +0.000 A 
ATOM     25  C   UNL     1      -0.142  10.227  20.952  0.00  0.00    +0.000 A 
ENDBRANCH  19  20
ENDBRANCH  17  19
ENDBRANCH  14  15
ENDBRANCH   1  14
TORSDOF 6
ENDMDL
MODEL 9
REMARK VINA RESULT:      -7.3      1.663      2.152
REMARK  Name = 
REMARK  7 active torsions:
REMARK  status: ('A' for Active; 'I' for Inactive)
REMARK    1  A    between atoms: C_1  and  S_2
REMARK    2  A    between atoms: S_2  and  N_5
REMARK    3  A    between atoms: N_5  and  C_6
REMARK    4  A    between atoms: N_5  and  C_17
REMARK    5  A    between atoms: C_6  and  C_7
REMARK    6  A    between atoms: N_9  and  C_10
REMARK    7  A    between atoms: C_10  and  C_11
REMARK                            x       y       z     vdW  Elec       q    Type
REMARK                         _______ _______ _______ _____ _____    ______ ____
ROOT
ATOM      1  N   UNL     1       3.168   3.704  17.879  0.00  0.00    +0.000 N 
ENDROOT
BRANCH   1   2
ATOM      2  C   UNL     1       4.493   4.095  17.461  0.00  0.00    +0.000 A 
ATOM      3  C   UNL     1       4.833   3.953  16.116  0.00  0.00    +0.000 A 
ATOM      4  C   UNL     1       6.119   4.281  15.693  0.00  0.00    +0.000 A 
ATOM      5 CL   UNL     1       6.543   4.087  14.038  0.00  0.00    +0.000 Cl
ATOM      6  C   UNL     1       7.065   4.758  16.597  0.00  0.00    +0.000 A 
ATOM      7  C   UNL     1       6.715   4.902  17.937  0.00  0.00    +0.000 A 
ATOM      8 CL   UNL     1       7.879   5.493  19.060  0.00  0.00    +0.000 Cl
ATOM      9  C   UNL     1       5.434   4.571  18.379  0.00  0.00    +0.000 A 
ENDBRANCH   1   2
BRANCH   1  11
ATOM     10  C   UNL     1       1.406   2.073  19.173  0.00  0.00    +0.000 C 
ATOM     11  S   UNL     1       3.144   2.455  19.026  0.00  0.00    +0.000 S 
ATOM     12  O   UNL     1       3.633   3.000  20.275  0.00  0.00    +0.000 OA
ATOM     13  O   UNL     1       3.769   1.280  18.445  0.00  0.00    +0.000 OA
ENDBRANCH   1  11
BRANCH   1  14
ATOM     14  C   UNL     1       2.170   4.807  17.901  0.00  0.00    +0.000 C 
BRANCH  14  15
ATOM     15  C   UNL     1       2.478   6.131  18.571  0.00  0.00    +0.000 C 
ATOM     16  O   UNL     1       2.792   6.194  19.758  0.00  0.00    +0.000 OA
ATOM     17  N   UNL     1       2.348   7.245  17.775  0.00  0.00    +0.000 N 
ATOM     18  H   UNL     1       2.373   7.117  16.763  0.00  0.00    +0.000 HD
BRANCH  17  19
ATOM     19  C   UNL     1       2.599   8.579  18.275  0.00  0.00    +0.000 C 
BRANCH  19  20
ATOM     20  C   UNL     1       1.335   9.229  18.764  0.00  0.00    +0.000 A 
ATOM     21  C   UNL     1       1.032   9.257  20.130  0.00  0.00    +0.000 A 
ATOM     22  C   UNL     1      -0.144   9.868  20.540  0.00  0.00    +0.000 A 
ATOM     23  N   UNL     1      -1.028  10.438  19.694  0.00  0.00    +0.000 NA
ATOM     24  C   UNL     1      -0.725  10.391  18.380  0.00  0.00    +0.000 A 
ATOM     25  C   UNL     1       0.424   9.802  17.873  0.00  0.00    +0.000 A 
ENDBRANCH  19  20
ENDBRANCH  17  19
ENDBRANCH  14  15
ENDBRANCH   1  14
TORSDOF 6
ENDMDL
