MODEL 1
REMARK VINA RESULT:      -7.6      0.000      0.000
REMARK  Name = 
REMARK  9 active torsions:
REMARK  status: ('A' for Active; 'I' for Inactive)
REMARK    1  A    between atoms: C_2  and  C_3
REMARK    2  A    between atoms: C_3  and  C_4
REMARK    3  A    between atoms: C_4  and  C_5
REMARK    4  A    between atoms: C_5  and  C_6
REMARK    5  A    between atoms: C_6  and  C_7
REMARK    6  A    between atoms: C_7  and  O_8
REMARK    7  A    between atoms: O_8  and  N_9
REMARK    8  A    between atoms: N_12  and  C_13
REMARK    9  A    between atoms: N_23  and  O_24
REMARK                            x       y       z     vdW  Elec       q    Type
REMARK                         _______ _______ _______ _____ _____    ______ ____
ROOT
ATOM      1  N   UNL     1       7.027   5.641  17.710  0.00  0.00    +0.000 N 
ATOM      2  C   UNL     1       6.060   5.447  18.655  0.00  0.00    +0.000 C 
ATOM      3  O   UNL     1       6.408   5.122  19.787  0.00  0.00    +0.000 OA
ATOM      4  N   UNL     1       4.772   5.592  18.199  0.00  0.00    +0.000 N 
ATOM      5  H   UNL     1       7.968   5.793  18.054  0.00  0.00    +0.000 HD
ATOM      6  H   UNL     1       4.659   5.757  17.204  0.00  0.00    +0.000 HD
ENDROOT
BRANCH   4   7
ATOM      7  C   UNL     1       3.574   5.394  18.925  0.00  0.00    +0.000 A 
ATOM      8  C   UNL     1       3.067   6.390  19.771  0.00  0.00    +0.000 A 
ATOM      9  C   UNL     1       1.914   6.173  20.511  0.00  0.00    +0.000 A 
ATOM     10  C   UNL     1       1.255   4.957  20.410  0.00  0.00    +0.000 A 
ATOM     11  C   UNL     1       1.735   3.958  19.554  0.00  0.00    +0.000 A 
ATOM     12  C   UNL     1       1.059   2.740  19.459  0.00  0.00    +0.000 A 
ATOM     13  C   UNL     1       1.531   1.751  18.610  0.00  0.00    +0.000 A 
ATOM     14  C   UNL     1       2.672   2.024  17.879  0.00  0.00    +0.000 A 
ATOM     15  N   UNL     1       3.361   3.189  17.944  0.00  0.00    +0.000 NA
ATOM     16  C   UNL     1       2.902   4.161  18.776  0.00  0.00    +0.000 A 
ENDBRANCH   4   7
BRANCH   1  17
ATOM     17  O   UNL     1       6.688   6.232  16.480  0.00  0.00    +0.000 OA
BRANCH  17  18
ATOM     18  C   UNL     1       7.059   5.311  15.453  0.00  0.00    +0.000 C 
BRANCH  18  19
ATOM     19  C   UNL     1       5.790   4.763  14.826  0.00  0.00    +0.000 C 
BRANCH  19  20
ATOM     20  C   UNL     1       6.089   3.493  14.041  0.00  0.00    +0.000 C 
BRANCH  20  21
ATOM     21  C   UNL     1       6.290   3.797  12.561  0.00  0.00    +0.000 C 
BRANCH  21  22
ATOM     22  C   UNL     1       5.552   2.785  11.690  0.00  0.00    +0.000 C 
BRANCH  22  24
ATOM     23  O   UNL     1       7.576   1.652  10.961  0.00  0.00    +0.000 OA
ATOM     24  C   UNL     1       6.415   1.589  11.355  0.00  0.00    +0.000 C 
ATOM     25  N   UNL     1       5.771   0.390  11.534  0.00  0.00    +0.000 N 
ATOM     26  H   UNL     1       4.847   0.273  11.934  0.00  0.00    +0.000 HD
BRANCH  25  27
ATOM     27  O   UNL     1       6.523  -0.775  11.278  0.00  0.00    +0.000 OA
ATOM     28  H   UNL     1       6.041  -1.171  10.518  0.00  0.00    +0.000 HD
ENDBRANCH  25  27
ENDBRANCH  22  24
ENDBRANCH  21  22
ENDBRANCH  20  21
ENDBRANCH  19  20
ENDBRANCH  18  19
ENDBRANCH  17  18
ENDBRANCH   1  17
TORSDOF 9
ENDMDL
MODEL 2
REMARK VINA RESULT:      -7.1      4.573      7.580
REMARK  Name = 
REMARK  9 active torsions:
REMARK  status: ('A' for Active; 'I' for Inactive)
REMARK    1  A    between atoms: C_2  and  C_3
REMARK    2  A    between atoms: C_3  and  C_4
REMARK    3  A    between atoms: C_4  and  C_5
REMARK    4  A    between atoms: C_5  and  C_6
REMARK    5  A    between atoms: C_6  and  C_7
REMARK    6  A    between atoms: C_7  and  O_8
REMARK    7  A    between atoms: O_8  and  N_9
REMARK    8  A    between atoms: N_12  and  C_13
REMARK    9  A    between atoms: N_23  and  O_24
REMARK                            x       y       z     vdW  Elec       q    Type
REMARK                         _______ _______ _______ _____ _____    ______ ____
ROOT
ATOM      1  N   UNL     1       7.486   6.618  18.026  0.00  0.00    +0.000 N 
ATOM      2  C   UNL     1       6.687   5.578  18.408  0.00  0.00    +0.000 C 
ATOM      3  O   UNL     1       7.130   4.767  19.215  0.00  0.00    +0.000 OA
ATOM      4  N   UNL     1       5.464   5.533  17.783  0.00  0.00    +0.000 N 
ATOM      5  H   UNL     1       8.269   6.829  18.633  0.00  0.00    +0.000 HD
ATOM      6  H   UNL     1       5.298   6.224  17.057  0.00  0.00    +0.000 HD
ENDROOT
BRANCH   4   7
ATOM      7  C   UNL     1       4.459   4.547  17.928  0.00  0.00    +0.000 A 
ATOM      8  C   UNL     1       4.502   3.356  17.192  0.00  0.00    +0.000 A 
ATOM      9  C   UNL     1       3.492   2.412  17.309  0.00  0.00    +0.000 A 
ATOM     10  C   UNL     1       2.429   2.650  18.168  0.00  0.00    +0.000 A 
ATOM     11  C   UNL     1       2.381   3.826  18.928  0.00  0.00    +0.000 A 
ATOM     12  C   UNL     1       1.306   4.052  19.792  0.00  0.00    +0.000 A 
ATOM     13  C   UNL     1       1.258   5.214  20.546  0.00  0.00    +0.000 A 
ATOM     14  C   UNL     1       2.299   6.113  20.408  0.00  0.00    +0.000 A 
ATOM     15  N   UNL     1       3.357   5.936  19.579  0.00  0.00    +0.000 NA
ATOM     16  C   UNL     1       3.408   4.798  18.837  0.00  0.00    +0.000 A 
ENDBRANCH   4   7
BRANCH   1  17
ATOM     17  O   UNL     1       6.937   7.682  17.289  0.00  0.00    +0.000 OA
BRANCH  17  18
ATOM     18  C   UNL     1       7.804   8.804  17.457  0.00  0.00    +0.000 C 
BRANCH  18  19
ATOM     19  C   UNL     1       8.562   8.626  18.761  0.00  0.00    +0.000 C 
BRANCH  19  20
ATOM     20  C   UNL     1       9.227   9.933  19.173  0.00  0.00    +0.000 C 
BRANCH  20  21
ATOM     21  C   UNL     1       9.277  10.915  18.008  0.00  0.00    +0.000 C 
BRANCH  21  22
ATOM     22  C   UNL     1       9.669  12.309  18.486  0.00  0.00    +0.000 C 
BRANCH  22  24
ATOM     23  O   UNL     1      11.846  12.512  17.421  0.00  0.00    +0.000 OA
ATOM     24  C   UNL     1      10.709  12.944  17.589  0.00  0.00    +0.000 C 
ATOM     25  N   UNL     1      10.261  14.078  16.961  0.00  0.00    +0.000 N 
ATOM     26  H   UNL     1       9.313  14.434  16.995  0.00  0.00    +0.000 HD
BRANCH  25  27
ATOM     27  O   UNL     1      11.162  14.709  16.077  0.00  0.00    +0.000 OA
ATOM     28  H   UNL     1      11.589  15.377  16.657  0.00  0.00    +0.000 HD
ENDBRANCH  25  27
ENDBRANCH  22  24
ENDBRANCH  21  22
ENDBRANCH  20  21
ENDBRANCH  19  20
ENDBRANCH  18  19
ENDBRANCH  17  18
ENDBRANCH   1  17
TORSDOF 9
ENDMDL
MODEL 3
REMARK VINA RESULT:      -7.0      4.737      7.751
REMARK  Name = 
REMARK  9 active torsions:
REMARK  status: ('A' for Active; 'I' for Inactive)
REMARK    1  A    between atoms: C_2  and  C_3
REMARK    2  A    between atoms: C_3  and  C_4
REMARK    3  A    between atoms: C_4  and  C_5
REMARK    4  A    between atoms: C_5  and  C_6
REMARK    5  A    between atoms: C_6  and  C_7
REMARK    6  A    between atoms: C_7  and  O_8
REMARK    7  A    between atoms: O_8  and  N_9
REMARK    8  A    between atoms: N_12  and  C_13
REMARK    9  A    between atoms: N_23  and  O_24
REMARK                            x       y       z     vdW  Elec       q    Type
REMARK                         _______ _______ _______ _____ _____    ______ ____
ROOT
ATOM      1  N   UNL     1       6.526   6.803  16.367  0.00  0.00    +0.000 N 
ATOM      2  C   UNL     1       5.883   5.603  16.476  0.00  0.00    +0.000 C 
ATOM      3  O   UNL     1       6.079   4.755  15.610  0.00  0.00    +0.000 OA
ATOM      4  N   UNL     1       5.026   5.504  17.546  0.00  0.00    +0.000 N 
ATOM      5  H   UNL     1       7.336   6.825  15.759  0.00  0.00    +0.000 HD
ATOM      6  H   UNL     1       4.900   6.342  18.105  0.00  0.00    +0.000 HD
ENDROOT
BRANCH   4   7
ATOM      7  C   UNL     1       4.185   4.416  17.878  0.00  0.00    +0.000 A 
ATOM      8  C   UNL     1       4.346   3.164  17.268  0.00  0.00    +0.000 A 
ATOM      9  C   UNL     1       3.492   2.113  17.569  0.00  0.00    +0.000 A 
ATOM     10  C   UNL     1       2.470   2.303  18.486  0.00  0.00    +0.000 A 
ATOM     11  C   UNL     1       2.308   3.541  19.121  0.00  0.00    +0.000 A 
ATOM     12  C   UNL     1       1.276   3.718  20.047  0.00  0.00    +0.000 A 
ATOM     13  C   UNL     1       1.115   4.941  20.679  0.00  0.00    +0.000 A 
ATOM     14  C   UNL     1       2.004   5.950  20.359  0.00  0.00    +0.000 A 
ATOM     15  N   UNL     1       3.016   5.823  19.465  0.00  0.00    +0.000 NA
ATOM     16  C   UNL     1       3.176   4.625  18.843  0.00  0.00    +0.000 A 
ENDBRANCH   4   7
BRANCH   1  17
ATOM     17  O   UNL     1       6.507   7.702  17.447  0.00  0.00    +0.000 OA
BRANCH  17  18
ATOM     18  C   UNL     1       7.863   8.040  17.739  0.00  0.00    +0.000 C 
BRANCH  18  19
ATOM     19  C   UNL     1       7.958   9.550  17.872  0.00  0.00    +0.000 C 
BRANCH  19  20
ATOM     20  C   UNL     1       9.286   9.947  18.502  0.00  0.00    +0.000 C 
BRANCH  20  21
ATOM     21  C   UNL     1       9.405  11.463  18.622  0.00  0.00    +0.000 C 
BRANCH  21  22
ATOM     22  C   UNL     1      10.557  11.989  17.772  0.00  0.00    +0.000 C 
BRANCH  22  24
ATOM     23  O   UNL     1       9.564  14.204  17.908  0.00  0.00    +0.000 OA
ATOM     24  C   UNL     1      10.351  13.432  17.368  0.00  0.00    +0.000 C 
ATOM     25  N   UNL     1      11.141  13.816  16.314  0.00  0.00    +0.000 N 
ATOM     26  H   UNL     1      11.864  13.251  15.884  0.00  0.00    +0.000 HD
BRANCH  25  27
ATOM     27  O   UNL     1      11.033  15.161  15.902  0.00  0.00    +0.000 OA
ATOM     28  H   UNL     1      10.129  15.190  15.519  0.00  0.00    +0.000 HD
ENDBRANCH  25  27
ENDBRANCH  22  24
ENDBRANCH  21  22
ENDBRANCH  20  21
ENDBRANCH  19  20
ENDBRANCH  18  19
ENDBRANCH  17  18
ENDBRANCH   1  17
TORSDOF 9
ENDMDL
MODEL 4
REMARK VINA RESULT:      -7.0      4.020      7.677
REMARK  Name = 
REMARK  9 active torsions:
REMARK  status: ('A' for Active; 'I' for Inactive)
REMARK    1  A    between atoms: C_2  and  C_3
REMARK    2  A    between atoms: C_3  and  C_4
REMARK    3  A    between atoms: C_4  and  C_5
REMARK    4  A    between atoms: C_5  and  C_6
REMARK    5  A    between atoms: C_6  and  C_7
REMARK    6  A    between atoms: C_7  and  O_8
REMARK    7  A    between atoms: O_8  and  N_9
REMARK    8  A    between atoms: N_12  and  C_13
REMARK    9  A    between atoms: N_23  and  O_24
REMARK                            x       y       z     vdW  Elec       q    Type
REMARK                         _______ _______ _______ _____ _____    ______ ____
ROOT
ATOM      1  N   UNL     1       6.731   6.382  17.129  0.00  0.00    +0.000 N 
ATOM      2  C   UNL     1       5.621   5.596  17.009  0.00  0.00    +0.000 C 
ATOM      3  O   UNL     1       4.934   5.707  15.998  0.00  0.00    +0.000 OA
ATOM      4  N   UNL     1       5.369   4.787  18.091  0.00  0.00    +0.000 N 
ATOM      5  H   UNL     1       7.087   6.791  16.273  0.00  0.00    +0.000 HD
ATOM      6  H   UNL     1       5.980   4.898  18.893  0.00  0.00    +0.000 HD
ENDROOT
BRANCH   4   7
ATOM      7  C   UNL     1       4.268   3.917  18.277  0.00  0.00    +0.000 A 
ATOM      8  C   UNL     1       4.233   2.654  17.671  0.00  0.00    +0.000 A 
ATOM      9  C   UNL     1       3.132   1.823  17.825  0.00  0.00    +0.000 A 
ATOM     10  C   UNL     1       2.057   2.247  18.591  0.00  0.00    +0.000 A 
ATOM     11  C   UNL     1       2.085   3.497  19.223  0.00  0.00    +0.000 A 
ATOM     12  C   UNL     1       0.997   3.910  19.996  0.00  0.00    +0.000 A 
ATOM     13  C   UNL     1       1.023   5.145  20.624  0.00  0.00    +0.000 A 
ATOM     14  C   UNL     1       2.151   5.927  20.455  0.00  0.00    +0.000 A 
ATOM     15  N   UNL     1       3.226   5.567  19.712  0.00  0.00    +0.000 NA
ATOM     16  C   UNL     1       3.204   4.357  19.093  0.00  0.00    +0.000 A 
ENDBRANCH   4   7
BRANCH   1  17
ATOM     17  O   UNL     1       7.659   6.122  18.153  0.00  0.00    +0.000 OA
BRANCH  17  18
ATOM     18  C   UNL     1       8.261   7.369  18.504  0.00  0.00    +0.000 C 
BRANCH  18  19
ATOM     19  C   UNL     1       7.651   8.452  17.632  0.00  0.00    +0.000 C 
BRANCH  19  20
ATOM     20  C   UNL     1       8.428   9.753  17.777  0.00  0.00    +0.000 C 
BRANCH  20  21
ATOM     21  C   UNL     1       9.089   9.848  19.147  0.00  0.00    +0.000 C 
BRANCH  21  22
ATOM     22  C   UNL     1      10.020  11.054  19.222  0.00  0.00    +0.000 C 
BRANCH  22  24
ATOM     23  O   UNL     1      10.815  12.556  20.961  0.00  0.00    +0.000 OA
ATOM     24  C   UNL     1      10.061  11.653  20.610  0.00  0.00    +0.000 C 
ATOM     25  N   UNL     1       9.158  11.084  21.472  0.00  0.00    +0.000 N 
ATOM     26  H   UNL     1       8.457  10.396  21.219  0.00  0.00    +0.000 HD
BRANCH  25  27
ATOM     27  O   UNL     1       9.109  11.615  22.778  0.00  0.00    +0.000 OA
ATOM     28  H   UNL     1       8.397  11.080  23.193  0.00  0.00    +0.000 HD
ENDBRANCH  25  27
ENDBRANCH  22  24
ENDBRANCH  21  22
ENDBRANCH  20  21
ENDBRANCH  19  20
ENDBRANCH  18  19
ENDBRANCH  17  18
ENDBRANCH   1  17
TORSDOF 9
ENDMDL
MODEL 5
REMARK VINA RESULT:      -7.0      5.794      8.890
REMARK  Name = 
REMARK  9 active torsions:
REMARK  status: ('A' for Active; 'I' for Inactive)
REMARK    1  A    between atoms: C_2  and  C_3
REMARK    2  A    between atoms: C_3  and  C_4
REMARK    3  A    between atoms: C_4  and  C_5
REMARK    4  A    between atoms: C_5  and  C_6
REMARK    5  A    between atoms: C_6  and  C_7
REMARK    6  A    between atoms: C_7  and  O_8
REMARK    7  A    between atoms: O_8  and  N_9
REMARK    8  A    between atoms: N_12  and  C_13
REMARK    9  A    between atoms: N_23  and  O_24
REMARK                            x       y       z     vdW  Elec       q    Type
REMARK                         _______ _______ _______ _____ _____    ______ ____
ROOT
ATOM      1  N   UNL     1       8.679   7.770  19.015  0.00  0.00    +0.000 N 
ATOM      2  C   UNL     1       7.990   6.641  18.675  0.00  0.00    +0.000 C 
ATOM      3  O   UNL     1       8.081   5.659  19.406  0.00  0.00    +0.000 OA
ATOM      4  N   UNL     1       7.297   6.725  17.491  0.00  0.00    +0.000 N 
ATOM      5  H   UNL     1       8.984   7.837  19.979  0.00  0.00    +0.000 HD
ATOM      6  H   UNL     1       7.416   7.577  16.954  0.00  0.00    +0.000 HD
ENDROOT
BRANCH   4   7
ATOM      7  C   UNL     1       6.548   5.704  16.858  0.00  0.00    +0.000 A 
ATOM      8  C   UNL     1       7.040   5.042  15.726  0.00  0.00    +0.000 A 
ATOM      9  C   UNL     1       6.283   4.070  15.087  0.00  0.00    +0.000 A 
ATOM     10  C   UNL     1       5.026   3.750  15.577  0.00  0.00    +0.000 A 
ATOM     11  C   UNL     1       4.528   4.387  16.721  0.00  0.00    +0.000 A 
ATOM     12  C   UNL     1       3.261   4.052  17.207  0.00  0.00    +0.000 A 
ATOM     13  C   UNL     1       2.767   4.678  18.340  0.00  0.00    +0.000 A 
ATOM     14  C   UNL     1       3.568   5.624  18.951  0.00  0.00    +0.000 A 
ATOM     15  N   UNL     1       4.800   5.982  18.512  0.00  0.00    +0.000 NA
ATOM     16  C   UNL     1       5.288   5.371  17.400  0.00  0.00    +0.000 A 
ENDBRANCH   4   7
BRANCH   1  17
ATOM     17  O   UNL     1       8.419   8.974  18.336  0.00  0.00    +0.000 OA
BRANCH  17  18
ATOM     18  C   UNL     1       8.981  10.029  19.118  0.00  0.00    +0.000 C 
BRANCH  18  19
ATOM     19  C   UNL     1       9.334  11.174  18.185  0.00  0.00    +0.000 C 
BRANCH  19  20
ATOM     20  C   UNL     1      10.822  11.161  17.865  0.00  0.00    +0.000 C 
BRANCH  20  21
ATOM     21  C   UNL     1      11.318  12.558  17.505  0.00  0.00    +0.000 C 
BRANCH  21  22
ATOM     22  C   UNL     1      10.183  13.574  17.570  0.00  0.00    +0.000 C 
BRANCH  22  24
ATOM     23  O   UNL     1      11.532  15.410  18.420  0.00  0.00    +0.000 OA
ATOM     24  C   UNL     1      10.697  14.996  17.621  0.00  0.00    +0.000 C 
ATOM     25  N   UNL     1      10.132  15.809  16.671  0.00  0.00    +0.000 N 
ATOM     26  H   UNL     1       9.503  15.506  15.936  0.00  0.00    +0.000 HD
BRANCH  25  27
ATOM     27  O   UNL     1      10.588  17.144  16.630  0.00  0.00    +0.000 OA
ATOM     28  H   UNL     1      10.139  17.540  17.409  0.00  0.00    +0.000 HD
ENDBRANCH  25  27
ENDBRANCH  22  24
ENDBRANCH  21  22
ENDBRANCH  20  21
ENDBRANCH  19  20
ENDBRANCH  18  19
ENDBRANCH  17  18
ENDBRANCH   1  17
TORSDOF 9
ENDMDL
MODEL 6
REMARK VINA RESULT:      -6.9      3.913      6.919
REMARK  Name = 
REMARK  9 active torsions:
REMARK  status: ('A' for Active; 'I' for Inactive)
REMARK    1  A    between atoms: C_2  and  C_3
REMARK    2  A    between atoms: C_3  and  C_4
REMARK    3  A    between atoms: C_4  and  C_5
REMARK    4  A    between atoms: C_5  and  C_6
REMARK    5  A    between atoms: C_6  and  C_7
REMARK    6  A    between atoms: C_7  and  O_8
REMARK    7  A    between atoms: O_8  and  N_9
REMARK    8  A    between atoms: N_12  and  C_13
REMARK    9  A    between atoms: N_23  and  O_24
REMARK                            x       y       z     vdW  Elec       q    Type
REMARK                         _______ _______ _______ _____ _____    ______ ____
ROOT
ATOM      1  N   UNL     1       2.826   5.712  20.028  0.00  0.00    +0.000 N 
ATOM      2  C   UNL     1       2.502   6.938  19.520  0.00  0.00    +0.000 C 
ATOM      3  O   UNL     1       3.048   7.302  18.482  0.00  0.00    +0.000 OA
ATOM      4  N   UNL     1       1.616   7.660  20.282  0.00  0.00    +0.000 N 
ATOM      5  H   UNL     1       3.263   5.061  19.387  0.00  0.00    +0.000 HD
ATOM      6  H   UNL     1       1.344   7.253  21.171  0.00  0.00    +0.000 HD
ENDROOT
BRANCH   4   7
ATOM      7  C   UNL     1       1.147   8.974  20.043  0.00  0.00    +0.000 A 
ATOM      8  C   UNL     1       1.396   9.621  18.825  0.00  0.00    +0.000 A 
ATOM      9  C   UNL     1       0.969  10.924  18.613  0.00  0.00    +0.000 A 
ATOM     10  C   UNL     1       0.283  11.591  19.617  0.00  0.00    +0.000 A 
ATOM     11  C   UNL     1       0.006  10.952  20.832  0.00  0.00    +0.000 A 
ATOM     12  C   UNL     1      -0.689  11.634  21.834  0.00  0.00    +0.000 A 
ATOM     13  C   UNL     1      -0.967  11.002  23.036  0.00  0.00    +0.000 A 
ATOM     14  C   UNL     1      -0.537   9.698  23.190  0.00  0.00    +0.000 A 
ATOM     15  N   UNL     1       0.143   9.001  22.247  0.00  0.00    +0.000 NA
ATOM     16  C   UNL     1       0.419   9.617  21.067  0.00  0.00    +0.000 A 
ENDBRANCH   4   7
BRANCH   1  17
ATOM     17  O   UNL     1       2.060   5.169  21.075  0.00  0.00    +0.000 OA
BRANCH  17  18
ATOM     18  C   UNL     1       1.128   4.261  20.488  0.00  0.00    +0.000 C 
BRANCH  18  19
ATOM     19  C   UNL     1       1.900   3.064  19.960  0.00  0.00    +0.000 C 
BRANCH  19  20
ATOM     20  C   UNL     1       1.798   2.992  18.443  0.00  0.00    +0.000 C 
BRANCH  20  21
ATOM     21  C   UNL     1       3.109   2.517  17.826  0.00  0.00    +0.000 C 
BRANCH  21  22
ATOM     22  C   UNL     1       3.923   3.694  17.301  0.00  0.00    +0.000 C 
BRANCH  22  24
ATOM     23  O   UNL     1       5.254   3.927  19.323  0.00  0.00    +0.000 OA
ATOM     24  C   UNL     1       5.192   3.906  18.097  0.00  0.00    +0.000 C 
ATOM     25  N   UNL     1       6.302   4.079  17.309  0.00  0.00    +0.000 N 
ATOM     26  H   UNL     1       6.326   3.990  16.299  0.00  0.00    +0.000 HD
BRANCH  25  27
ATOM     27  O   UNL     1       7.533   4.246  17.978  0.00  0.00    +0.000 OA
ATOM     28  H   UNL     1       7.841   3.319  18.080  0.00  0.00    +0.000 HD
ENDBRANCH  25  27
ENDBRANCH  22  24
ENDBRANCH  21  22
ENDBRANCH  20  21
ENDBRANCH  19  20
ENDBRANCH  18  19
ENDBRANCH  17  18
ENDBRANCH   1  17
TORSDOF 9
ENDMDL
MODEL 7
REMARK VINA RESULT:      -6.9      4.127      6.922
REMARK  Name = 
REMARK  9 active torsions:
REMARK  status: ('A' for Active; 'I' for Inactive)
REMARK    1  A    between atoms: C_2  and  C_3
REMARK    2  A    between atoms: C_3  and  C_4
REMARK    3  A    between atoms: C_4  and  C_5
REMARK    4  A    between atoms: C_5  and  C_6
REMARK    5  A    between atoms: C_6  and  C_7
REMARK    6  A    between atoms: C_7  and  O_8
REMARK    7  A    between atoms: O_8  and  N_9
REMARK    8  A    between atoms: N_12  and  C_13
REMARK    9  A    between atoms: N_23  and  O_24
REMARK                            x       y       z     vdW  Elec       q    Type
REMARK                         _______ _______ _______ _____ _____    ______ ____
ROOT
ATOM      1  N   UNL     1       6.957   5.878  17.751  0.00  0.00    +0.000 N 
ATOM      2  C   UNL     1       6.002   5.356  18.576  0.00  0.00    +0.000 C 
ATOM      3  O   UNL     1       6.327   4.466  19.356  0.00  0.00    +0.000 OA
ATOM      4  N   UNL     1       4.740   5.869  18.392  0.00  0.00    +0.000 N 
ATOM      5  H   UNL     1       7.920   5.718  18.022  0.00  0.00    +0.000 HD
ATOM      6  H   UNL     1       4.624   6.525  17.627  0.00  0.00    +0.000 HD
ENDROOT
BRANCH   4   7
ATOM      7  C   UNL     1       3.549   5.483  19.052  0.00  0.00    +0.000 A 
ATOM      8  C   UNL     1       2.917   6.338  19.964  0.00  0.00    +0.000 A 
ATOM      9  C   UNL     1       1.772   5.937  20.638  0.00  0.00    +0.000 A 
ATOM     10  C   UNL     1       1.247   4.675  20.402  0.00  0.00    +0.000 A 
ATOM     11  C   UNL     1       1.854   3.815  19.477  0.00  0.00    +0.000 A 
ATOM     12  C   UNL     1       1.312   2.548  19.246  0.00  0.00    +0.000 A 
ATOM     13  C   UNL     1       1.909   1.697  18.330  0.00  0.00    +0.000 A 
ATOM     14  C   UNL     1       3.035   2.152  17.671  0.00  0.00    +0.000 A 
ATOM     15  N   UNL     1       3.596   3.370  17.867  0.00  0.00    +0.000 NA
ATOM     16  C   UNL     1       3.014   4.208  18.766  0.00  0.00    +0.000 A 
ENDBRANCH   4   7
BRANCH   1  17
ATOM     17  O   UNL     1       6.679   7.043  17.016  0.00  0.00    +0.000 OA
BRANCH  17  18
ATOM     18  C   UNL     1       7.878   7.819  16.987  0.00  0.00    +0.000 C 
BRANCH  18  19
ATOM     19  C   UNL     1       7.759   8.915  18.031  0.00  0.00    +0.000 C 
BRANCH  19  20
ATOM     20  C   UNL     1       8.844   9.964  17.828  0.00  0.00    +0.000 C 
BRANCH  20  21
ATOM     21  C   UNL     1       9.224  10.623  19.150  0.00  0.00    +0.000 C 
BRANCH  21  22
ATOM     22  C   UNL     1      10.609  11.258  19.065  0.00  0.00    +0.000 C 
BRANCH  22  24
ATOM     23  O   UNL     1       9.879  12.837  17.366  0.00  0.00    +0.000 OA
ATOM     24  C   UNL     1      10.761  12.123  17.833  0.00  0.00    +0.000 C 
ATOM     25  N   UNL     1      12.007  12.038  17.265  0.00  0.00    +0.000 N 
ATOM     26  H   UNL     1      12.797  11.533  17.651  0.00  0.00    +0.000 HD
BRANCH  25  27
ATOM     27  O   UNL     1      12.240  12.846  16.131  0.00  0.00    +0.000 OA
ATOM     28  H   UNL     1      13.221  12.842  16.072  0.00  0.00    +0.000 HD
ENDBRANCH  25  27
ENDBRANCH  22  24
ENDBRANCH  21  22
ENDBRANCH  20  21
ENDBRANCH  19  20
ENDBRANCH  18  19
ENDBRANCH  17  18
ENDBRANCH   1  17
TORSDOF 9
ENDMDL
MODEL 8
REMARK VINA RESULT:      -6.9      5.458      8.772
REMARK  Name = 
REMARK  9 active torsions:
REMARK  status: ('A' for Active; 'I' for Inactive)
REMARK    1  A    between atoms: C_2  and  C_3
REMARK    2  A    between atoms: C_3  and  C_4
REMARK    3  A    between atoms: C_4  and  C_5
REMARK    4  A    between atoms: C_5  and  C_6
REMARK    5  A    between atoms: C_6  and  C_7
REMARK    6  A    between atoms: C_7  and  O_8
REMARK    7  A    between atoms: O_8  and  N_9
REMARK    8  A    between atoms: N_12  and  C_13
REMARK    9  A    between atoms: N_23  and  O_24
REMARK                            x       y       z     vdW  Elec       q    Type
REMARK                         _______ _______ _______ _____ _____    ______ ____
ROOT
ATOM      1  N   UNL     1       8.474   8.567  18.215  0.00  0.00    +0.000 N 
ATOM      2  C   UNL     1       7.765   7.400  18.203  0.00  0.00    +0.000 C 
ATOM      3  O   UNL     1       8.151   6.475  18.912  0.00  0.00    +0.000 OA
ATOM      4  N   UNL     1       6.702   7.382  17.332  0.00  0.00    +0.000 N 
ATOM      5  H   UNL     1       9.090   8.711  19.006  0.00  0.00    +0.000 HD
ATOM      6  H   UNL     1       6.587   8.197  16.738  0.00  0.00    +0.000 HD
ENDROOT
BRANCH   4   7
ATOM      7  C   UNL     1       5.831   6.300  17.060  0.00  0.00    +0.000 A 
ATOM      8  C   UNL     1       4.747   6.015  17.900  0.00  0.00    +0.000 A 
ATOM      9  C   UNL     1       3.921   4.928  17.649  0.00  0.00    +0.000 A 
ATOM     10  C   UNL     1       4.171   4.118  16.552  0.00  0.00    +0.000 A 
ATOM     11  C   UNL     1       5.237   4.401  15.689  0.00  0.00    +0.000 A 
ATOM     12  C   UNL     1       5.476   3.578  14.585  0.00  0.00    +0.000 A 
ATOM     13  C   UNL     1       6.529   3.858  13.728  0.00  0.00    +0.000 A 
ATOM     14  C   UNL     1       7.309   4.964  14.010  0.00  0.00    +0.000 A 
ATOM     15  N   UNL     1       7.116   5.785  15.072  0.00  0.00    +0.000 NA
ATOM     16  C   UNL     1       6.085   5.513  15.915  0.00  0.00    +0.000 A 
ENDBRANCH   4   7
BRANCH   1  17
ATOM     17  O   UNL     1       7.937   9.713  17.600  0.00  0.00    +0.000 OA
BRANCH  17  18
ATOM     18  C   UNL     1       8.546  10.847  18.218  0.00  0.00    +0.000 C 
BRANCH  18  19
ATOM     19  C   UNL     1       9.660  10.354  19.124  0.00  0.00    +0.000 C 
BRANCH  19  20
ATOM     20  C   UNL     1      10.297  11.519  19.869  0.00  0.00    +0.000 C 
BRANCH  20  21
ATOM     21  C   UNL     1      11.765  11.677  19.489  0.00  0.00    +0.000 C 
BRANCH  21  22
ATOM     22  C   UNL     1      11.907  12.306  18.107  0.00  0.00    +0.000 C 
BRANCH  22  24
ATOM     23  O   UNL     1      11.695  14.629  18.797  0.00  0.00    +0.000 OA
ATOM     24  C   UNL     1      11.343  13.710  18.063  0.00  0.00    +0.000 C 
ATOM     25  N   UNL     1      10.375  13.873  17.105  0.00  0.00    +0.000 N 
ATOM     26  H   UNL     1      10.103  13.178  16.419  0.00  0.00    +0.000 HD
BRANCH  25  27
ATOM     27  O   UNL     1       9.825  15.166  16.976  0.00  0.00    +0.000 OA
ATOM     28  H   UNL     1       8.877  14.973  16.807  0.00  0.00    +0.000 HD
ENDBRANCH  25  27
ENDBRANCH  22  24
ENDBRANCH  21  22
ENDBRANCH  20  21
ENDBRANCH  19  20
ENDBRANCH  18  19
ENDBRANCH  17  18
ENDBRANCH   1  17
TORSDOF 9
ENDMDL
MODEL 9
REMARK VINA RESULT:      -6.8      4.489      6.864
REMARK  Name = 
REMARK  9 active torsions:
REMARK  status: ('A' for Active; 'I' for Inactive)
REMARK    1  A    between atoms: C_2  and  C_3
REMARK    2  A    between atoms: C_3  and  C_4
REMARK    3  A    between atoms: C_4  and  C_5
REMARK    4  A    between atoms: C_5  and  C_6
REMARK    5  A    between atoms: C_6  and  C_7
REMARK    6  A    between atoms: C_7  and  O_8
REMARK    7  A    between atoms: O_8  and  N_9
REMARK    8  A    between atoms: N_12  and  C_13
REMARK    9  A    between atoms: N_23  and  O_24
REMARK                            x       y       z     vdW  Elec       q    Type
REMARK                         _______ _______ _______ _____ _____    ______ ____
ROOT
ATOM      1  N   UNL     1       2.890   5.753  19.408  0.00  0.00    +0.000 N 
ATOM      2  C   UNL     1       2.022   6.386  20.251  0.00  0.00    +0.000 C 
ATOM      3  O   UNL     1       1.291   5.700  20.960  0.00  0.00    +0.000 OA
ATOM      4  N   UNL     1       2.034   7.758  20.165  0.00  0.00    +0.000 N 
ATOM      5  H   UNL     1       3.092   4.782  19.618  0.00  0.00    +0.000 HD
ATOM      6  H   UNL     1       2.624   8.162  19.446  0.00  0.00    +0.000 HD
ENDROOT
BRANCH   4   7
ATOM      7  C   UNL     1       1.209   8.671  20.863  0.00  0.00    +0.000 A 
ATOM      8  C   UNL     1       1.160   8.678  22.264  0.00  0.00    +0.000 A 
ATOM      9  C   UNL     1       0.318   9.549  22.941  0.00  0.00    +0.000 A 
ATOM     10  C   UNL     1      -0.481  10.425  22.222  0.00  0.00    +0.000 A 
ATOM     11  C   UNL     1      -0.429  10.447  20.822  0.00  0.00    +0.000 A 
ATOM     12  C   UNL     1      -1.236  11.338  20.110  0.00  0.00    +0.000 A 
ATOM     13  C   UNL     1      -1.184  11.363  18.726  0.00  0.00    +0.000 A 
ATOM     14  C   UNL     1      -0.315  10.490  18.100  0.00  0.00    +0.000 A 
ATOM     15  N   UNL     1       0.482   9.607  18.751  0.00  0.00    +0.000 NA
ATOM     16  C   UNL     1       0.434   9.578  20.109  0.00  0.00    +0.000 A 
ENDBRANCH   4   7
BRANCH   1  17
ATOM     17  O   UNL     1       3.893   6.494  18.758  0.00  0.00    +0.000 OA
BRANCH  17  18
ATOM     18  C   UNL     1       4.069   5.919  17.463  0.00  0.00    +0.000 C 
BRANCH  18  19
ATOM     19  C   UNL     1       4.968   4.704  17.601  0.00  0.00    +0.000 C 
BRANCH  19  20
ATOM     20  C   UNL     1       4.382   3.519  16.845  0.00  0.00    +0.000 C 
BRANCH  20  21
ATOM     21  C   UNL     1       2.891   3.370  17.126  0.00  0.00    +0.000 C 
BRANCH  21  22
ATOM     22  C   UNL     1       2.618   2.144  17.990  0.00  0.00    +0.000 C 
BRANCH  22  24
ATOM     23  O   UNL     1       0.251   2.229  18.539  0.00  0.00    +0.000 OA
ATOM     24  C   UNL     1       1.421   2.341  18.893  0.00  0.00    +0.000 C 
ATOM     25  N   UNL     1       1.764   2.668  20.181  0.00  0.00    +0.000 N 
ATOM     26  H   UNL     1       2.707   2.693  20.550  0.00  0.00    +0.000 HD
BRANCH  25  27
ATOM     27  O   UNL     1       0.701   2.832  21.095  0.00  0.00    +0.000 OA
ATOM     28  H   UNL     1       0.397   1.907  21.229  0.00  0.00    +0.000 HD
ENDBRANCH  25  27
ENDBRANCH  22  24
ENDBRANCH  21  22
ENDBRANCH  20  21
ENDBRANCH  19  20
ENDBRANCH  18  19
ENDBRANCH  17  18
ENDBRANCH   1  17
TORSDOF 9
ENDMDL
