MODEL 1
REMARK VINA RESULT:      -8.3      0.000      0.000
REMARK  Name = 
REMARK  8 active torsions:
REMARK  status: ('A' for Active; 'I' for Inactive)
REMARK    1  A    between atoms: C_1  and  C_2
REMARK    2  A    between atoms: C_5  and  C_6
REMARK    3  A    between atoms: C_6  and  O_8
REMARK    4  A    between atoms: O_8  and  C_9
REMARK    5  A    between atoms: C_9  and  C_10
REMARK    6  A    between atoms: N_12  and  C_13
REMARK    7  A    between atoms: C_15  and  C_16
REMARK    8  A    between atoms: N_23  and  C_24
REMARK                            x       y       z     vdW  Elec       q    Type
REMARK                         _______ _______ _______ _____ _____    ______ ____
ROOT
ATOM      1  C   UNL     1       4.172   6.016  17.404  0.00  0.00    +0.000 A 
ATOM      2  C   UNL     1       4.891   6.242  16.260  0.00  0.00    +0.000 A 
ATOM      3  C   UNL     1       5.176   4.953  15.729  0.00  0.00    +0.000 A 
ATOM      4  N   UNL     1       4.743   3.992  16.557  0.00  0.00    +0.000 NA
ATOM      5  N   UNL     1       4.036   4.642  17.507  0.00  0.00    +0.000 N 
ENDROOT
BRANCH   3   6
ATOM      6  C   UNL     1       5.863   4.641  14.477  0.00  0.00    +0.000 A 
ATOM      7  C   UNL     1       5.303   3.748  13.554  0.00  0.00    +0.000 A 
ATOM      8  C   UNL     1       5.979   3.434  12.373  0.00  0.00    +0.000 A 
ATOM      9  C   UNL     1       7.214   4.019  12.100  0.00  0.00    +0.000 A 
ATOM     10  C   UNL     1       7.772   4.923  13.002  0.00  0.00    +0.000 A 
ATOM     11  C   UNL     1       7.100   5.234  14.185  0.00  0.00    +0.000 A 
ENDBRANCH   3   6
BRANCH   5  12
ATOM     12  C   UNL     1       3.176   3.926  18.374  0.00  0.00    +0.000 A 
ATOM     13  C   UNL     1       3.647   3.500  19.621  0.00  0.00    +0.000 A 
ATOM     14  C   UNL     1       2.819   2.739  20.444  0.00  0.00    +0.000 A 
ATOM     15  C   UNL     1       1.547   2.370  20.008  0.00  0.00    +0.000 A 
ATOM     16  C   UNL     1       1.085   2.779  18.759  0.00  0.00    +0.000 A 
ATOM     17  C   UNL     1       1.891   3.569  17.946  0.00  0.00    +0.000 A 
ENDBRANCH   5  12
BRANCH   1  20
ATOM     18  C   UNL     1       2.405   7.510  18.244  0.00  0.00    +0.000 C 
ATOM     19  O   UNL     1       1.642   7.128  17.378  0.00  0.00    +0.000 OA
ATOM     20  N   UNL     1       3.740   6.980  18.315  0.00  0.00    +0.000 N 
ATOM     21  H   UNL     1       4.332   7.206  19.109  0.00  0.00    +0.000 HD
BRANCH  18  22
ATOM     22  C   UNL     1       2.024   8.495  19.344  0.00  0.00    +0.000 C 
BRANCH  22  23
ATOM     23  O   UNL     1       1.336   9.623  18.805  0.00  0.00    +0.000 OA
BRANCH  23  24
ATOM     24  C   UNL     1       0.395  10.144  19.632  0.00  0.00    +0.000 C 
ATOM     25  O   UNL     1       0.564  10.310  20.838  0.00  0.00    +0.000 OA
BRANCH  24  30
ATOM     26  C   UNL     1      -4.282  11.451  16.682  0.00  0.00    +0.000 C 
ATOM     27  C   UNL     1      -3.053  11.119  17.471  0.00  0.00    +0.000 A 
ATOM     28  C   UNL     1      -2.788  11.715  18.701  0.00  0.00    +0.000 A 
ATOM     29  N   UNL     1      -1.686  11.431  19.442  0.00  0.00    +0.000 NA
ATOM     30  C   UNL     1      -0.841  10.518  18.896  0.00  0.00    +0.000 A 
ATOM     31  C   UNL     1      -1.099   9.918  17.673  0.00  0.00    +0.000 A 
ATOM     32  N   UNL     1      -2.203  10.203  16.940  0.00  0.00    +0.000 NA
ENDBRANCH  24  30
ENDBRANCH  23  24
ENDBRANCH  22  23
ENDBRANCH  18  22
ENDBRANCH   1  20
TORSDOF 7
ENDMDL
MODEL 2
REMARK VINA RESULT:      -8.1      0.587      1.356
REMARK  Name = 
REMARK  8 active torsions:
REMARK  status: ('A' for Active; 'I' for Inactive)
REMARK    1  A    between atoms: C_1  and  C_2
REMARK    2  A    between atoms: C_5  and  C_6
REMARK    3  A    between atoms: C_6  and  O_8
REMARK    4  A    between atoms: O_8  and  C_9
REMARK    5  A    between atoms: C_9  and  C_10
REMARK    6  A    between atoms: N_12  and  C_13
REMARK    7  A    between atoms: C_15  and  C_16
REMARK    8  A    between atoms: N_23  and  C_24
REMARK                            x       y       z     vdW  Elec       q    Type
REMARK                         _______ _______ _______ _____ _____    ______ ____
ROOT
ATOM      1  C   UNL     1       4.119   6.203  17.460  0.00  0.00    +0.000 A 
ATOM      2  C   UNL     1       4.876   6.382  16.332  0.00  0.00    +0.000 A 
ATOM      3  C   UNL     1       5.122   5.074  15.829  0.00  0.00    +0.000 A 
ATOM      4  N   UNL     1       4.630   4.145  16.660  0.00  0.00    +0.000 NA
ATOM      5  N   UNL     1       3.926   4.838  17.581  0.00  0.00    +0.000 N 
ENDROOT
BRANCH   3   6
ATOM      6  C   UNL     1       5.828   4.714  14.601  0.00  0.00    +0.000 A 
ATOM      7  C   UNL     1       7.080   5.269  14.303  0.00  0.00    +0.000 A 
ATOM      8  C   UNL     1       7.735   4.941  13.114  0.00  0.00    +0.000 A 
ATOM      9  C   UNL     1       7.151   4.047  12.220  0.00  0.00    +0.000 A 
ATOM     10  C   UNL     1       5.915   3.473  12.514  0.00  0.00    +0.000 A 
ATOM     11  C   UNL     1       5.256   3.804  13.699  0.00  0.00    +0.000 A 
ENDBRANCH   3   6
BRANCH   5  12
ATOM     12  C   UNL     1       3.016   4.171  18.436  0.00  0.00    +0.000 A 
ATOM     13  C   UNL     1       1.913   3.505  17.889  0.00  0.00    +0.000 A 
ATOM     14  C   UNL     1       0.983   2.906  18.736  0.00  0.00    +0.000 A 
ATOM     15  C   UNL     1       1.130   3.007  20.120  0.00  0.00    +0.000 A 
ATOM     16  C   UNL     1       2.218   3.685  20.664  0.00  0.00    +0.000 A 
ATOM     17  C   UNL     1       3.170   4.255  19.826  0.00  0.00    +0.000 A 
ENDBRANCH   5  12
BRANCH   1  20
ATOM     18  C   UNL     1       2.372   7.739  18.266  0.00  0.00    +0.000 C 
ATOM     19  O   UNL     1       1.600   7.339  17.416  0.00  0.00    +0.000 OA
ATOM     20  N   UNL     1       3.703   7.198  18.345  0.00  0.00    +0.000 N 
ATOM     21  H   UNL     1       4.302   7.442  19.128  0.00  0.00    +0.000 HD
BRANCH  18  22
ATOM     22  C   UNL     1       2.008   8.761  19.338  0.00  0.00    +0.000 C 
BRANCH  22  23
ATOM     23  O   UNL     1       0.638   9.144  19.236  0.00  0.00    +0.000 OA
BRANCH  23  24
ATOM     24  C   UNL     1       0.449  10.441  18.886  0.00  0.00    +0.000 C 
ATOM     25  O   UNL     1       1.346  11.282  18.883  0.00  0.00    +0.000 OA
BRANCH  24  30
ATOM     26  C   UNL     1      -4.903  11.321  17.196  0.00  0.00    +0.000 C 
ATOM     27  C   UNL     1      -3.494  11.102  17.652  0.00  0.00    +0.000 A 
ATOM     28  C   UNL     1      -2.953  11.806  18.725  0.00  0.00    +0.000 A 
ATOM     29  N   UNL     1      -1.681  11.626  19.167  0.00  0.00    +0.000 NA
ATOM     30  C   UNL     1      -0.955  10.706  18.480  0.00  0.00    +0.000 A 
ATOM     31  C   UNL     1      -1.486  10.000  17.412  0.00  0.00    +0.000 A 
ATOM     32  N   UNL     1      -2.758  10.181  16.979  0.00  0.00    +0.000 NA
ENDBRANCH  24  30
ENDBRANCH  23  24
ENDBRANCH  22  23
ENDBRANCH  18  22
ENDBRANCH   1  20
TORSDOF 7
ENDMDL
MODEL 3
REMARK VINA RESULT:      -8.1      0.637      1.361
REMARK  Name = 
REMARK  8 active torsions:
REMARK  status: ('A' for Active; 'I' for Inactive)
REMARK    1  A    between atoms: C_1  and  C_2
REMARK    2  A    between atoms: C_5  and  C_6
REMARK    3  A    between atoms: C_6  and  O_8
REMARK    4  A    between atoms: O_8  and  C_9
REMARK    5  A    between atoms: C_9  and  C_10
REMARK    6  A    between atoms: N_12  and  C_13
REMARK    7  A    between atoms: C_15  and  C_16
REMARK    8  A    between atoms: N_23  and  C_24
REMARK                            x       y       z     vdW  Elec       q    Type
REMARK                         _______ _______ _______ _____ _____    ______ ____
ROOT
ATOM      1  C   UNL     1       4.230   5.975  17.433  0.00  0.00    +0.000 A 
ATOM      2  C   UNL     1       4.967   6.208  16.302  0.00  0.00    +0.000 A 
ATOM      3  C   UNL     1       5.223   4.924  15.745  0.00  0.00    +0.000 A 
ATOM      4  N   UNL     1       4.756   3.957  16.545  0.00  0.00    +0.000 NA
ATOM      5  N   UNL     1       4.057   4.603  17.504  0.00  0.00    +0.000 N 
ENDROOT
BRANCH   3   6
ATOM      6  C   UNL     1       5.915   4.622  14.492  0.00  0.00    +0.000 A 
ATOM      7  C   UNL     1       7.143   5.223  14.188  0.00  0.00    +0.000 A 
ATOM      8  C   UNL     1       7.784   4.950  12.977  0.00  0.00    +0.000 A 
ATOM      9  C   UNL     1       7.208   4.065  12.068  0.00  0.00    +0.000 A 
ATOM     10  C   UNL     1       5.996   3.446  12.368  0.00  0.00    +0.000 A 
ATOM     11  C   UNL     1       5.351   3.722  13.575  0.00  0.00    +0.000 A 
ENDBRANCH   3   6
BRANCH   5  12
ATOM     12  C   UNL     1       3.170   3.892  18.345  0.00  0.00    +0.000 A 
ATOM     13  C   UNL     1       3.580   3.523  19.631  0.00  0.00    +0.000 A 
ATOM     14  C   UNL     1       2.728   2.764  20.433  0.00  0.00    +0.000 A 
ATOM     15  C   UNL     1       1.494   2.342  19.939  0.00  0.00    +0.000 A 
ATOM     16  C   UNL     1       1.093   2.694  18.652  0.00  0.00    +0.000 A 
ATOM     17  C   UNL     1       1.922   3.481  17.858  0.00  0.00    +0.000 A 
ENDBRANCH   5  12
BRANCH   1  20
ATOM     18  C   UNL     1       2.481   7.464  18.317  0.00  0.00    +0.000 C 
ATOM     19  O   UNL     1       1.704   7.095  17.457  0.00  0.00    +0.000 OA
ATOM     20  N   UNL     1       3.815   6.930  18.363  0.00  0.00    +0.000 N 
ATOM     21  H   UNL     1       4.419   7.144  19.150  0.00  0.00    +0.000 HD
BRANCH  18  22
ATOM     22  C   UNL     1       2.119   8.438  19.434  0.00  0.00    +0.000 C 
BRANCH  22  23
ATOM     23  O   UNL     1       0.783   8.913  19.285  0.00  0.00    +0.000 OA
BRANCH  23  24
ATOM     24  C   UNL     1       0.691  10.134  18.699  0.00  0.00    +0.000 C 
ATOM     25  O   UNL     1       1.664  10.838  18.438  0.00  0.00    +0.000 OA
BRANCH  24  30
ATOM     26  C   UNL     1      -4.690  11.623  17.647  0.00  0.00    +0.000 C 
ATOM     27  C   UNL     1      -3.273  11.219  17.912  0.00  0.00    +0.000 A 
ATOM     28  C   UNL     1      -2.604  10.310  17.096  0.00  0.00    +0.000 A 
ATOM     29  N   UNL     1      -1.318   9.927  17.306  0.00  0.00    +0.000 NA
ATOM     30  C   UNL     1      -0.716  10.492  18.386  0.00  0.00    +0.000 A 
ATOM     31  C   UNL     1      -1.373  11.400  19.202  0.00  0.00    +0.000 A 
ATOM     32  N   UNL     1      -2.656  11.780  18.983  0.00  0.00    +0.000 NA
ENDBRANCH  24  30
ENDBRANCH  23  24
ENDBRANCH  22  23
ENDBRANCH  18  22
ENDBRANCH   1  20
TORSDOF 7
ENDMDL
MODEL 4
REMARK VINA RESULT:      -8.0      1.631      2.306
REMARK  Name = 
REMARK  8 active torsions:
REMARK  status: ('A' for Active; 'I' for Inactive)
REMARK    1  A    between atoms: C_1  and  C_2
REMARK    2  A    between atoms: C_5  and  C_6
REMARK    3  A    between atoms: C_6  and  O_8
REMARK    4  A    between atoms: O_8  and  C_9
REMARK    5  A    between atoms: C_9  and  C_10
REMARK    6  A    between atoms: N_12  and  C_13
REMARK    7  A    between atoms: C_15  and  C_16
REMARK    8  A    between atoms: N_23  and  C_24
REMARK                            x       y       z     vdW  Elec       q    Type
REMARK                         _______ _______ _______ _____ _____    ______ ____
ROOT
ATOM      1  C   UNL     1       4.281   5.729  17.481  0.00  0.00    +0.000 A 
ATOM      2  C   UNL     1       4.988   6.026  16.345  0.00  0.00    +0.000 A 
ATOM      3  C   UNL     1       5.262   4.774  15.730  0.00  0.00    +0.000 A 
ATOM      4  N   UNL     1       4.836   3.763  16.499  0.00  0.00    +0.000 NA
ATOM      5  N   UNL     1       4.143   4.352  17.498  0.00  0.00    +0.000 N 
ENDROOT
BRANCH   3   6
ATOM      6  C   UNL     1       5.933   4.541  14.452  0.00  0.00    +0.000 A 
ATOM      7  C   UNL     1       5.391   3.660  13.507  0.00  0.00    +0.000 A 
ATOM      8  C   UNL     1       6.053   3.422  12.300  0.00  0.00    +0.000 A 
ATOM      9  C   UNL     1       7.254   4.073  12.024  0.00  0.00    +0.000 A 
ATOM     10  C   UNL     1       7.793   4.966  12.948  0.00  0.00    +0.000 A 
ATOM     11  C   UNL     1       7.135   5.201  14.157  0.00  0.00    +0.000 A 
ENDBRANCH   3   6
BRANCH   5  12
ATOM     12  C   UNL     1       3.291   3.584  18.327  0.00  0.00    +0.000 A 
ATOM     13  C   UNL     1       2.017   3.229  17.871  0.00  0.00    +0.000 A 
ATOM     14  C   UNL     1       1.155   2.530  18.715  0.00  0.00    +0.000 A 
ATOM     15  C   UNL     1       1.547   2.224  20.018  0.00  0.00    +0.000 A 
ATOM     16  C   UNL     1       2.809   2.594  20.478  0.00  0.00    +0.000 A 
ATOM     17  C   UNL     1       3.688   3.260  19.631  0.00  0.00    +0.000 A 
ENDBRANCH   5  12
BRANCH   1  20
ATOM     18  C   UNL     1       2.510   7.118  18.477  0.00  0.00    +0.000 C 
ATOM     19  O   UNL     1       1.718   6.750  17.631  0.00  0.00    +0.000 OA
ATOM     20  N   UNL     1       3.864   6.634  18.458  0.00  0.00    +0.000 N 
ATOM     21  H   UNL     1       4.487   6.843  19.233  0.00  0.00    +0.000 HD
BRANCH  18  22
ATOM     22  C   UNL     1       2.152   8.037  19.641  0.00  0.00    +0.000 C 
BRANCH  22  23
ATOM     23  O   UNL     1       1.433   9.182  19.186  0.00  0.00    +0.000 OA
BRANCH  23  24
ATOM     24  C   UNL     1       0.655   9.761  20.136  0.00  0.00    +0.000 C 
ATOM     25  O   UNL     1       0.041   9.128  20.991  0.00  0.00    +0.000 OA
BRANCH  24  30
ATOM     26  C   UNL     1       0.607  15.415  19.576  0.00  0.00    +0.000 C 
ATOM     27  C   UNL     1       0.630  13.926  19.737  0.00  0.00    +0.000 A 
ATOM     28  C   UNL     1       1.209  13.317  20.847  0.00  0.00    +0.000 A 
ATOM     29  N   UNL     1       1.241  11.971  21.025  0.00  0.00    +0.000 NA
ATOM     30  C   UNL     1       0.668  11.243  20.032  0.00  0.00    +0.000 A 
ATOM     31  C   UNL     1       0.086  11.841  18.925  0.00  0.00    +0.000 A 
ATOM     32  N   UNL     1       0.055  13.186  18.755  0.00  0.00    +0.000 NA
ENDBRANCH  24  30
ENDBRANCH  23  24
ENDBRANCH  22  23
ENDBRANCH  18  22
ENDBRANCH   1  20
TORSDOF 7
ENDMDL
MODEL 5
REMARK VINA RESULT:      -7.9      3.301      6.204
REMARK  Name = 
REMARK  8 active torsions:
REMARK  status: ('A' for Active; 'I' for Inactive)
REMARK    1  A    between atoms: C_1  and  C_2
REMARK    2  A    between atoms: C_5  and  C_6
REMARK    3  A    between atoms: C_6  and  O_8
REMARK    4  A    between atoms: O_8  and  C_9
REMARK    5  A    between atoms: C_9  and  C_10
REMARK    6  A    between atoms: N_12  and  C_13
REMARK    7  A    between atoms: C_15  and  C_16
REMARK    8  A    between atoms: N_23  and  C_24
REMARK                            x       y       z     vdW  Elec       q    Type
REMARK                         _______ _______ _______ _____ _____    ______ ____
ROOT
ATOM      1  C   UNL     1       0.582   9.701  18.309  0.00  0.00    +0.000 A 
ATOM      2  C   UNL     1       1.306   8.881  17.483  0.00  0.00    +0.000 A 
ATOM      3  C   UNL     1       2.082   8.060  18.346  0.00  0.00    +0.000 A 
ATOM      4  N   UNL     1       1.919   8.427  19.625  0.00  0.00    +0.000 NA
ATOM      5  N   UNL     1       0.924   9.341  19.602  0.00  0.00    +0.000 N 
ENDROOT
BRANCH   3   6
ATOM      6  C   UNL     1       2.976   6.968  17.966  0.00  0.00    +0.000 A 
ATOM      7  C   UNL     1       4.220   7.230  17.377  0.00  0.00    +0.000 A 
ATOM      8  C   UNL     1       5.056   6.180  16.991  0.00  0.00    +0.000 A 
ATOM      9  C   UNL     1       4.661   4.861  17.202  0.00  0.00    +0.000 A 
ATOM     10  C   UNL     1       3.434   4.587  17.804  0.00  0.00    +0.000 A 
ATOM     11  C   UNL     1       2.595   5.636  18.186  0.00  0.00    +0.000 A 
ENDBRANCH   3   6
BRANCH   5  12
ATOM     12  C   UNL     1       0.273   9.720  20.800  0.00  0.00    +0.000 A 
ATOM     13  C   UNL     1       0.066  11.076  21.075  0.00  0.00    +0.000 A 
ATOM     14  C   UNL     1      -0.515  11.450  22.286  0.00  0.00    +0.000 A 
ATOM     15  C   UNL     1      -0.849  10.480  23.231  0.00  0.00    +0.000 A 
ATOM     16  C   UNL     1      -0.625   9.131  22.964  0.00  0.00    +0.000 A 
ATOM     17  C   UNL     1      -0.078   8.747  21.744  0.00  0.00    +0.000 A 
ENDBRANCH   5  12
BRANCH   1  20
ATOM     18  C   UNL     1      -1.676  10.520  17.773  0.00  0.00    +0.000 C 
ATOM     19  O   UNL     1      -2.148   9.420  17.987  0.00  0.00    +0.000 OA
ATOM     20  N   UNL     1      -0.261  10.740  17.915  0.00  0.00    +0.000 N 
ATOM     21  H   UNL     1       0.112  11.682  17.858  0.00  0.00    +0.000 HD
BRANCH  18  22
ATOM     22  C   UNL     1      -2.505  11.751  17.418  0.00  0.00    +0.000 C 
BRANCH  22  23
ATOM     23  O   UNL     1      -3.434  12.058  18.455  0.00  0.00    +0.000 OA
BRANCH  23  24
ATOM     24  C   UNL     1      -4.716  11.715  18.170  0.00  0.00    +0.000 C 
ATOM     25  O   UNL     1      -5.093  11.356  17.056  0.00  0.00    +0.000 OA
BRANCH  24  30
ATOM     26  C   UNL     1      -7.913  12.098  22.851  0.00  0.00    +0.000 C 
ATOM     27  C   UNL     1      -7.083  11.988  21.609  0.00  0.00    +0.000 A 
ATOM     28  C   UNL     1      -7.594  11.452  20.430  0.00  0.00    +0.000 A 
ATOM     29  N   UNL     1      -6.869  11.344  19.287  0.00  0.00    +0.000 NA
ATOM     30  C   UNL     1      -5.589  11.794  19.369  0.00  0.00    +0.000 A 
ATOM     31  C   UNL     1      -5.073  12.331  20.538  0.00  0.00    +0.000 A 
ATOM     32  N   UNL     1      -5.804  12.440  21.675  0.00  0.00    +0.000 NA
ENDBRANCH  24  30
ENDBRANCH  23  24
ENDBRANCH  22  23
ENDBRANCH  18  22
ENDBRANCH   1  20
TORSDOF 7
ENDMDL
MODEL 6
REMARK VINA RESULT:      -7.9      1.539      2.396
REMARK  Name = 
REMARK  8 active torsions:
REMARK  status: ('A' for Active; 'I' for Inactive)
REMARK    1  A    between atoms: C_1  and  C_2
REMARK    2  A    between atoms: C_5  and  C_6
REMARK    3  A    between atoms: C_6  and  O_8
REMARK    4  A    between atoms: O_8  and  C_9
REMARK    5  A    between atoms: C_9  and  C_10
REMARK    6  A    between atoms: N_12  and  C_13
REMARK    7  A    between atoms: C_15  and  C_16
REMARK    8  A    between atoms: N_23  and  C_24
REMARK                            x       y       z     vdW  Elec       q    Type
REMARK                         _______ _______ _______ _____ _____    ______ ____
ROOT
ATOM      1  C   UNL     1       4.191   6.029  17.369  0.00  0.00    +0.000 A 
ATOM      2  C   UNL     1       4.916   6.251  16.228  0.00  0.00    +0.000 A 
ATOM      3  C   UNL     1       5.219   4.961  15.713  0.00  0.00    +0.000 A 
ATOM      4  N   UNL     1       4.792   4.004  16.548  0.00  0.00    +0.000 NA
ATOM      5  N   UNL     1       4.071   4.655  17.486  0.00  0.00    +0.000 N 
ENDROOT
BRANCH   3   6
ATOM      6  C   UNL     1       5.919   4.644  14.469  0.00  0.00    +0.000 A 
ATOM      7  C   UNL     1       7.147   5.244  14.164  0.00  0.00    +0.000 A 
ATOM      8  C   UNL     1       7.796   4.956  12.960  0.00  0.00    +0.000 A 
ATOM      9  C   UNL     1       7.228   4.057  12.061  0.00  0.00    +0.000 A 
ATOM     10  C   UNL     1       6.016   3.439  12.362  0.00  0.00    +0.000 A 
ATOM     11  C   UNL     1       5.364   3.729  13.562  0.00  0.00    +0.000 A 
ENDBRANCH   3   6
BRANCH   5  12
ATOM     12  C   UNL     1       3.213   3.938  18.354  0.00  0.00    +0.000 A 
ATOM     13  C   UNL     1       3.662   3.579  19.630  0.00  0.00    +0.000 A 
ATOM     14  C   UNL     1       2.840   2.815  20.457  0.00  0.00    +0.000 A 
ATOM     15  C   UNL     1       1.596   2.380  19.999  0.00  0.00    +0.000 A 
ATOM     16  C   UNL     1       1.158   2.722  18.722  0.00  0.00    +0.000 A 
ATOM     17  C   UNL     1       1.957   3.513  17.903  0.00  0.00    +0.000 A 
ENDBRANCH   5  12
BRANCH   1  20
ATOM     18  C   UNL     1       2.376   7.448  18.236  0.00  0.00    +0.000 C 
ATOM     19  O   UNL     1       1.602   6.995  17.414  0.00  0.00    +0.000 OA
ATOM     20  N   UNL     1       3.741   6.997  18.268  0.00  0.00    +0.000 N 
ATOM     21  H   UNL     1       4.351   7.283  19.029  0.00  0.00    +0.000 HD
BRANCH  18  22
ATOM     22  C   UNL     1       1.983   8.447  19.319  0.00  0.00    +0.000 C 
BRANCH  22  23
ATOM     23  O   UNL     1       1.806   9.753  18.772  0.00  0.00    +0.000 OA
BRANCH  23  24
ATOM     24  C   UNL     1       0.509  10.132  18.653  0.00  0.00    +0.000 C 
ATOM     25  O   UNL     1      -0.234   9.744  17.754  0.00  0.00    +0.000 OA
BRANCH  24  30
ATOM     26  C   UNL     1      -0.893  13.634  22.901  0.00  0.00    +0.000 C 
ATOM     27  C   UNL     1      -0.540  12.707  21.780  0.00  0.00    +0.000 A 
ATOM     28  C   UNL     1      -1.517  12.090  21.002  0.00  0.00    +0.000 A 
ATOM     29  N   UNL     1      -1.230  11.249  19.976  0.00  0.00    +0.000 NA
ATOM     30  C   UNL     1       0.094  11.039  19.754  0.00  0.00    +0.000 A 
ATOM     31  C   UNL     1       1.073  11.651  20.521  0.00  0.00    +0.000 A 
ATOM     32  N   UNL     1       0.779  12.493  21.542  0.00  0.00    +0.000 NA
ENDBRANCH  24  30
ENDBRANCH  23  24
ENDBRANCH  22  23
ENDBRANCH  18  22
ENDBRANCH   1  20
TORSDOF 7
ENDMDL
MODEL 7
REMARK VINA RESULT:      -7.9      0.786      1.392
REMARK  Name = 
REMARK  8 active torsions:
REMARK  status: ('A' for Active; 'I' for Inactive)
REMARK    1  A    between atoms: C_1  and  C_2
REMARK    2  A    between atoms: C_5  and  C_6
REMARK    3  A    between atoms: C_6  and  O_8
REMARK    4  A    between atoms: O_8  and  C_9
REMARK    5  A    between atoms: C_9  and  C_10
REMARK    6  A    between atoms: N_12  and  C_13
REMARK    7  A    between atoms: C_15  and  C_16
REMARK    8  A    between atoms: N_23  and  C_24
REMARK                            x       y       z     vdW  Elec       q    Type
REMARK                         _______ _______ _______ _____ _____    ______ ____
ROOT
ATOM      1  C   UNL     1       3.899   6.029  17.900  0.00  0.00    +0.000 A 
ATOM      2  C   UNL     1       4.638   6.272  16.772  0.00  0.00    +0.000 A 
ATOM      3  C   UNL     1       4.920   4.992  16.220  0.00  0.00    +0.000 A 
ATOM      4  N   UNL     1       4.467   4.019  17.021  0.00  0.00    +0.000 NA
ATOM      5  N   UNL     1       3.751   4.655  17.973  0.00  0.00    +0.000 N 
ENDROOT
BRANCH   3   6
ATOM      6  C   UNL     1       5.625   4.699  14.972  0.00  0.00    +0.000 A 
ATOM      7  C   UNL     1       5.038   3.891  13.990  0.00  0.00    +0.000 A 
ATOM      8  C   UNL     1       5.729   3.594  12.812  0.00  0.00    +0.000 A 
ATOM      9  C   UNL     1       7.005   4.112  12.604  0.00  0.00    +0.000 A 
ATOM     10  C   UNL     1       7.592   4.933  13.566  0.00  0.00    +0.000 A 
ATOM     11  C   UNL     1       6.905   5.227  14.745  0.00  0.00    +0.000 A 
ENDBRANCH   3   6
BRANCH   5  12
ATOM     12  C   UNL     1       2.872   3.929  18.812  0.00  0.00    +0.000 A 
ATOM     13  C   UNL     1       1.666   3.442  18.295  0.00  0.00    +0.000 A 
ATOM     14  C   UNL     1       0.772   2.785  19.139  0.00  0.00    +0.000 A 
ATOM     15  C   UNL     1       1.061   2.653  20.497  0.00  0.00    +0.000 A 
ATOM     16  C   UNL     1       2.253   3.154  21.015  0.00  0.00    +0.000 A 
ATOM     17  C   UNL     1       3.167   3.779  20.173  0.00  0.00    +0.000 A 
ENDBRANCH   5  12
BRANCH   1  20
ATOM     18  C   UNL     1       2.362   7.851  18.512  0.00  0.00    +0.000 C 
ATOM     19  O   UNL     1       1.810   7.776  17.431  0.00  0.00    +0.000 OA
ATOM     20  N   UNL     1       3.461   6.978  18.824  0.00  0.00    +0.000 N 
ATOM     21  H   UNL     1       3.838   6.957  19.767  0.00  0.00    +0.000 HD
BRANCH  18  22
ATOM     22  C   UNL     1       1.922   8.789  19.632  0.00  0.00    +0.000 C 
BRANCH  22  23
ATOM     23  O   UNL     1       0.552   9.157  19.483  0.00  0.00    +0.000 OA
BRANCH  23  24
ATOM     24  C   UNL     1       0.364  10.447  19.103  0.00  0.00    +0.000 C 
ATOM     25  O   UNL     1       1.213  11.326  19.234  0.00  0.00    +0.000 OA
BRANCH  24  30
ATOM     26  C   UNL     1      -4.778  11.360  16.867  0.00  0.00    +0.000 C 
ATOM     27  C   UNL     1      -3.421  11.106  17.445  0.00  0.00    +0.000 A 
ATOM     28  C   UNL     1      -2.544  10.183  16.882  0.00  0.00    +0.000 A 
ATOM     29  N   UNL     1      -1.305   9.934  17.379  0.00  0.00    +0.000 NA
ATOM     30  C   UNL     1      -0.971  10.651  18.484  0.00  0.00    +0.000 A 
ATOM     31  C   UNL     1      -1.837  11.574  19.050  0.00  0.00    +0.000 A 
ATOM     32  N   UNL     1      -3.071  11.820  18.546  0.00  0.00    +0.000 NA
ENDBRANCH  24  30
ENDBRANCH  23  24
ENDBRANCH  22  23
ENDBRANCH  18  22
ENDBRANCH   1  20
TORSDOF 7
ENDMDL
MODEL 8
REMARK VINA RESULT:      -7.9      5.058      8.457
REMARK  Name = 
REMARK  8 active torsions:
REMARK  status: ('A' for Active; 'I' for Inactive)
REMARK    1  A    between atoms: C_1  and  C_2
REMARK    2  A    between atoms: C_5  and  C_6
REMARK    3  A    between atoms: C_6  and  O_8
REMARK    4  A    between atoms: O_8  and  C_9
REMARK    5  A    between atoms: C_9  and  C_10
REMARK    6  A    between atoms: N_12  and  C_13
REMARK    7  A    between atoms: C_15  and  C_16
REMARK    8  A    between atoms: N_23  and  C_24
REMARK                            x       y       z     vdW  Elec       q    Type
REMARK                         _______ _______ _______ _____ _____    ______ ____
ROOT
ATOM      1  C   UNL     1       5.366   6.211  17.155  0.00  0.00    +0.000 A 
ATOM      2  C   UNL     1       4.595   6.027  18.273  0.00  0.00    +0.000 A 
ATOM      3  C   UNL     1       3.823   4.861  18.014  0.00  0.00    +0.000 A 
ATOM      4  N   UNL     1       4.035   4.417  16.768  0.00  0.00    +0.000 NA
ATOM      5  N   UNL     1       5.054   5.169  16.298  0.00  0.00    +0.000 N 
ENDROOT
BRANCH   3   6
ATOM      6  C   UNL     1       2.887   4.196  18.920  0.00  0.00    +0.000 A 
ATOM      7  C   UNL     1       3.163   4.096  20.290  0.00  0.00    +0.000 A 
ATOM      8  C   UNL     1       2.277   3.436  21.145  0.00  0.00    +0.000 A 
ATOM      9  C   UNL     1       1.103   2.882  20.638  0.00  0.00    +0.000 A 
ATOM     10  C   UNL     1       0.808   2.992  19.281  0.00  0.00    +0.000 A 
ATOM     11  C   UNL     1       1.695   3.647  18.424  0.00  0.00    +0.000 A 
ENDBRANCH   3   6
BRANCH   5  12
ATOM     12  C   UNL     1       5.752   4.780  15.130  0.00  0.00    +0.000 A 
ATOM     13  C   UNL     1       7.032   5.288  14.887  0.00  0.00    +0.000 A 
ATOM     14  C   UNL     1       7.690   4.955  13.703  0.00  0.00    +0.000 A 
ATOM     15  C   UNL     1       7.057   4.155  12.752  0.00  0.00    +0.000 A 
ATOM     16  C   UNL     1       5.775   3.664  12.987  0.00  0.00    +0.000 A 
ATOM     17  C   UNL     1       5.125   3.962  14.180  0.00  0.00    +0.000 A 
ENDBRANCH   5  12
BRANCH   1  20
ATOM     18  C   UNL     1       7.455   7.417  17.643  0.00  0.00    +0.000 C 
ATOM     19  O   UNL     1       7.750   6.602  18.496  0.00  0.00    +0.000 OA
ATOM     20  N   UNL     1       6.226   7.281  16.909  0.00  0.00    +0.000 N 
ATOM     21  H   UNL     1       6.041   7.888  16.116  0.00  0.00    +0.000 HD
BRANCH  18  22
ATOM     22  C   UNL     1       8.350   8.580  17.227  0.00  0.00    +0.000 C 
BRANCH  22  23
ATOM     23  O   UNL     1       7.993   9.774  17.921  0.00  0.00    +0.000 OA
BRANCH  23  24
ATOM     24  C   UNL     1       8.949  10.229  18.770  0.00  0.00    +0.000 C 
ATOM     25  O   UNL     1       9.278   9.644  19.800  0.00  0.00    +0.000 OA
BRANCH  24  30
ATOM     26  C   UNL     1      11.143  15.143  16.950  0.00  0.00    +0.000 C 
ATOM     27  C   UNL     1      10.579  13.840  17.424  0.00  0.00    +0.000 A 
ATOM     28  C   UNL     1      11.339  12.673  17.440  0.00  0.00    +0.000 A 
ATOM     29  N   UNL     1      10.859  11.478  17.870  0.00  0.00    +0.000 NA
ATOM     30  C   UNL     1       9.565  11.490  18.285  0.00  0.00    +0.000 A 
ATOM     31  C   UNL     1       8.802  12.647  18.275  0.00  0.00    +0.000 A 
ATOM     32  N   UNL     1       9.289  13.838  17.848  0.00  0.00    +0.000 NA
ENDBRANCH  24  30
ENDBRANCH  23  24
ENDBRANCH  22  23
ENDBRANCH  18  22
ENDBRANCH   1  20
TORSDOF 7
ENDMDL
MODEL 9
REMARK VINA RESULT:      -7.9      1.442      2.144
REMARK  Name = 
REMARK  8 active torsions:
REMARK  status: ('A' for Active; 'I' for Inactive)
REMARK    1  A    between atoms: C_1  and  C_2
REMARK    2  A    between atoms: C_5  and  C_6
REMARK    3  A    between atoms: C_6  and  O_8
REMARK    4  A    between atoms: O_8  and  C_9
REMARK    5  A    between atoms: C_9  and  C_10
REMARK    6  A    between atoms: N_12  and  C_13
REMARK    7  A    between atoms: C_15  and  C_16
REMARK    8  A    between atoms: N_23  and  C_24
REMARK                            x       y       z     vdW  Elec       q    Type
REMARK                         _______ _______ _______ _____ _____    ______ ____
ROOT
ATOM      1  C   UNL     1       4.281   5.887  17.372  0.00  0.00    +0.000 A 
ATOM      2  C   UNL     1       5.000   6.144  16.234  0.00  0.00    +0.000 A 
ATOM      3  C   UNL     1       5.286   4.870  15.671  0.00  0.00    +0.000 A 
ATOM      4  N   UNL     1       4.854   3.887  16.472  0.00  0.00    +0.000 NA
ATOM      5  N   UNL     1       4.147   4.511  17.440  0.00  0.00    +0.000 N 
ENDROOT
BRANCH   3   6
ATOM      6  C   UNL     1       5.974   4.591  14.411  0.00  0.00    +0.000 A 
ATOM      7  C   UNL     1       7.180   5.230  14.095  0.00  0.00    +0.000 A 
ATOM      8  C   UNL     1       7.817   4.978  12.877  0.00  0.00    +0.000 A 
ATOM      9  C   UNL     1       7.259   4.078  11.973  0.00  0.00    +0.000 A 
ATOM     10  C   UNL     1       6.069   3.423  12.283  0.00  0.00    +0.000 A 
ATOM     11  C   UNL     1       5.429   3.676  13.498  0.00  0.00    +0.000 A 
ENDBRANCH   3   6
BRANCH   5  12
ATOM     12  C   UNL     1       3.287   3.771  18.287  0.00  0.00    +0.000 A 
ATOM     13  C   UNL     1       3.678   3.499  19.602  0.00  0.00    +0.000 A 
ATOM     14  C   UNL     1       2.860   2.714  20.413  0.00  0.00    +0.000 A 
ATOM     15  C   UNL     1       1.681   2.172  19.902  0.00  0.00    +0.000 A 
ATOM     16  C   UNL     1       1.301   2.428  18.586  0.00  0.00    +0.000 A 
ATOM     17  C   UNL     1       2.094   3.239  17.781  0.00  0.00    +0.000 A 
ENDBRANCH   5  12
BRANCH   1  20
ATOM     18  C   UNL     1       2.464   7.215  18.371  0.00  0.00    +0.000 C 
ATOM     19  O   UNL     1       1.659   6.734  17.596  0.00  0.00    +0.000 OA
ATOM     20  N   UNL     1       3.848   6.826  18.309  0.00  0.00    +0.000 N 
ATOM     21  H   UNL     1       4.492   7.132  19.032  0.00  0.00    +0.000 HD
BRANCH  18  22
ATOM     22  C   UNL     1       2.099   8.186  19.489  0.00  0.00    +0.000 C 
BRANCH  22  23
ATOM     23  O   UNL     1       1.491   9.365  18.964  0.00  0.00    +0.000 OA
BRANCH  23  24
ATOM     24  C   UNL     1       0.566   9.924  19.785  0.00  0.00    +0.000 C 
ATOM     25  O   UNL     1      -0.002   9.311  20.687  0.00  0.00    +0.000 OA
BRANCH  24  30
ATOM     26  C   UNL     1      -0.110  15.467  18.742  0.00  0.00    +0.000 C 
ATOM     27  C   UNL     1       0.055  14.003  19.008  0.00  0.00    +0.000 A 
ATOM     28  C   UNL     1      -0.714  13.047  18.348  0.00  0.00    +0.000 A 
ATOM     29  N   UNL     1      -0.585  11.712  18.562  0.00  0.00    +0.000 NA
ATOM     30  C   UNL     1       0.353  11.362  19.480  0.00  0.00    +0.000 A 
ATOM     31  C   UNL     1       1.124  12.306  20.139  0.00  0.00    +0.000 A 
ATOM     32  N   UNL     1       0.993  13.637  19.918  0.00  0.00    +0.000 NA
ENDBRANCH  24  30
ENDBRANCH  23  24
ENDBRANCH  22  23
ENDBRANCH  18  22
ENDBRANCH   1  20
TORSDOF 7
ENDMDL
