MODEL 1
REMARK VINA RESULT:      -7.9      0.000      0.000
REMARK  Name = 
REMARK  8 active torsions:
REMARK  status: ('A' for Active; 'I' for Inactive)
REMARK    1  A    between atoms: C_1  and  C_2
REMARK    2  A    between atoms: C_5  and  C_6
REMARK    3  A    between atoms: C_9  and  N_10
REMARK    4  A    between atoms: N_10  and  C_11
REMARK    5  A    between atoms: N_14  and  C_15
REMARK    6  A    between atoms: C_17  and  C_18
REMARK    7  A    between atoms: N_20  and  C_21
REMARK    8  A    between atoms: C_31  and  C_32
REMARK                            x       y       z     vdW  Elec       q    Type
REMARK                         _______ _______ _______ _____ _____    ______ ____
ROOT
ATOM      1  C   UNL     1      -0.032  10.426  19.254  0.00  0.00    +0.000 A 
ATOM      2  C   UNL     1       0.122  11.040  20.494  0.00  0.00    +0.000 A 
ATOM      3  N   UNL     1      -0.765  11.884  21.069  0.00  0.00    +0.000 NA
ATOM      4  C   UNL     1      -1.898  12.164  20.403  0.00  0.00    +0.000 A 
ATOM      5  C   UNL     1      -2.145  11.609  19.131  0.00  0.00    +0.000 A 
ATOM      6  N   UNL     1      -3.341  11.885  18.438  0.00  0.00    +0.000 N 
ATOM      7  C   UNL     1      -3.668  11.382  17.207  0.00  0.00    +0.000 A 
ATOM      8  O   UNL     1      -4.738  11.660  16.684  0.00  0.00    +0.000 OA
ATOM      9  C   UNL     1      -2.660  10.503  16.553  0.00  0.00    +0.000 A 
ATOM     10  C   UNL     1      -2.975   9.936  15.205  0.00  0.00    +0.000 C 
ATOM     11  C   UNL     1      -1.505  10.236  17.188  0.00  0.00    +0.000 A 
ATOM     12  C   UNL     1      -1.200  10.746  18.538  0.00  0.00    +0.000 A 
ATOM     13  H   UNL     1      -4.059  12.452  18.866  0.00  0.00    +0.000 HD
ENDROOT
BRANCH   1  18
ATOM     14  C   UNL     1       2.556   6.435  19.834  0.00  0.00    +0.000 C 
ATOM     15  C   UNL     1       2.211   7.668  19.101  0.00  0.00    +0.000 A 
ATOM     16  C   UNL     1       2.682   8.273  17.958  0.00  0.00    +0.000 A 
ATOM     17  C   UNL     1       1.901   9.443  17.779  0.00  0.00    +0.000 A 
ATOM     18  C   UNL     1       0.994   9.481  18.822  0.00  0.00    +0.000 A 
ATOM     19  O   UNL     1       1.211   8.411  19.640  0.00  0.00    +0.000 OA
ENDBRANCH   1  18
BRANCH   4  20
ATOM     20  N   UNL     1      -2.777  13.043  21.006  0.00  0.00    +0.000 N 
ATOM     21  H   UNL     1      -3.765  12.966  20.815  0.00  0.00    +0.000 HD
BRANCH  20  22
ATOM     22  C   UNL     1      -2.371  13.897  22.145  0.00  0.00    +0.000 C 
ATOM     23  C   UNL     1      -3.161  13.422  23.382  0.00  0.00    +0.000 C 
ATOM     24  C   UNL     1      -3.271  14.451  24.503  0.00  0.00    +0.000 C 
ATOM     25  N   UNL     1      -3.723  15.739  23.975  0.00  0.00    +0.000 NA
ATOM     26  C   UNL     1      -3.938  16.696  25.064  0.00  0.00    +0.000 C 
ATOM     27  C   UNL     1      -2.724  16.260  23.033  0.00  0.00    +0.000 C 
ATOM     28  C   UNL     1      -2.625  15.375  21.782  0.00  0.00    +0.000 C 
BRANCH  28  29
ATOM     29  C   UNL     1      -1.520  15.950  20.889  0.00  0.00    +0.000 C 
ATOM     30  O   UNL     1      -1.712  16.872  20.101  0.00  0.00    +0.000 OA
ATOM     31  N   UNL     1      -0.305  15.309  20.985  0.00  0.00    +0.000 N 
ATOM     32  H   UNL     1      -0.178  14.686  21.778  0.00  0.00    +0.000 HD
BRANCH  31  33
ATOM     33  C   UNL     1       0.876  15.771  20.267  0.00  0.00    +0.000 C 
ATOM     34  C   UNL     1       2.156  15.350  21.002  0.00  0.00    +0.000 C 
ATOM     35  C   UNL     1       2.472  13.864  20.839  0.00  0.00    +0.000 C 
ATOM     36  C   UNL     1       2.552  13.486  19.365  0.00  0.00    +0.000 C 
ATOM     37  C   UNL     1       1.253  13.823  18.641  0.00  0.00    +0.000 C 
ATOM     38  C   UNL     1       0.875  15.296  18.805  0.00  0.00    +0.000 C 
ENDBRANCH  31  33
ENDBRANCH  28  29
ENDBRANCH  20  22
ENDBRANCH   4  20
TORSDOF 5
ENDMDL
MODEL 2
REMARK VINA RESULT:      -7.6      5.466      8.561
REMARK  Name = 
REMARK  8 active torsions:
REMARK  status: ('A' for Active; 'I' for Inactive)
REMARK    1  A    between atoms: C_1  and  C_2
REMARK    2  A    between atoms: C_5  and  C_6
REMARK    3  A    between atoms: C_9  and  N_10
REMARK    4  A    between atoms: N_10  and  C_11
REMARK    5  A    between atoms: N_14  and  C_15
REMARK    6  A    between atoms: C_17  and  C_18
REMARK    7  A    between atoms: N_20  and  C_21
REMARK    8  A    between atoms: C_31  and  C_32
REMARK                            x       y       z     vdW  Elec       q    Type
REMARK                         _______ _______ _______ _____ _____    ______ ____
ROOT
ATOM      1  C   UNL     1       1.340  13.191  18.826  0.00  0.00    +0.000 A 
ATOM      2  C   UNL     1       2.552  12.551  18.579  0.00  0.00    +0.000 A 
ATOM      3  N   UNL     1       3.688  13.153  18.159  0.00  0.00    +0.000 NA
ATOM      4  C   UNL     1       3.666  14.482  17.961  0.00  0.00    +0.000 A 
ATOM      5  C   UNL     1       2.486  15.224  18.165  0.00  0.00    +0.000 A 
ATOM      6  N   UNL     1       2.464  16.621  17.977  0.00  0.00    +0.000 N 
ATOM      7  C   UNL     1       1.368  17.420  18.162  0.00  0.00    +0.000 A 
ATOM      8  O   UNL     1       1.442  18.629  17.994  0.00  0.00    +0.000 OA
ATOM      9  C   UNL     1       0.105  16.743  18.564  0.00  0.00    +0.000 A 
ATOM     10  C   UNL     1      -1.118  17.578  18.774  0.00  0.00    +0.000 C 
ATOM     11  C   UNL     1       0.096  15.409  18.737  0.00  0.00    +0.000 A 
ATOM     12  C   UNL     1       1.305  14.577  18.584  0.00  0.00    +0.000 A 
ATOM     13  H   UNL     1       3.310  17.115  17.734  0.00  0.00    +0.000 HD
ENDROOT
BRANCH   1  18
ATOM     14  C   UNL     1      -1.310  11.495  22.440  0.00  0.00    +0.000 C 
ATOM     15  C   UNL     1      -0.964  11.582  21.008  0.00  0.00    +0.000 A 
ATOM     16  C   UNL     1      -1.462  11.010  19.860  0.00  0.00    +0.000 A 
ATOM     17  C   UNL     1      -0.688  11.530  18.791  0.00  0.00    +0.000 A 
ATOM     18  C   UNL     1       0.236  12.394  19.351  0.00  0.00    +0.000 A 
ATOM     19  O   UNL     1       0.080  12.396  20.705  0.00  0.00    +0.000 OA
ENDBRANCH   1  18
BRANCH   4  20
ATOM     20  N   UNL     1       4.836  15.067  17.515  0.00  0.00    +0.000 N 
ATOM     21  H   UNL     1       4.865  15.479  16.595  0.00  0.00    +0.000 HD
BRANCH  20  22
ATOM     22  C   UNL     1       5.954  15.380  18.435  0.00  0.00    +0.000 C 
ATOM     23  C   UNL     1       5.716  16.803  18.981  0.00  0.00    +0.000 C 
ATOM     24  C   UNL     1       6.962  17.493  19.528  0.00  0.00    +0.000 C 
ATOM     25  N   UNL     1       8.061  17.407  18.565  0.00  0.00    +0.000 NA
ATOM     26  C   UNL     1       9.222  18.166  19.039  0.00  0.00    +0.000 C 
ATOM     27  C   UNL     1       8.425  15.999  18.360  0.00  0.00    +0.000 C 
ATOM     28  C   UNL     1       7.288  15.225  17.677  0.00  0.00    +0.000 C 
BRANCH  28  29
ATOM     29  C   UNL     1       7.723  13.759  17.563  0.00  0.00    +0.000 C 
ATOM     30  O   UNL     1       6.973  12.871  17.166  0.00  0.00    +0.000 OA
ATOM     31  N   UNL     1       9.001  13.498  18.004  0.00  0.00    +0.000 N 
ATOM     32  H   UNL     1       9.610  14.300  18.142  0.00  0.00    +0.000 HD
BRANCH  31  33
ATOM     33  C   UNL     1       9.604  12.175  17.896  0.00  0.00    +0.000 C 
ATOM     34  C   UNL     1      11.098  12.288  17.564  0.00  0.00    +0.000 C 
ATOM     35  C   UNL     1      11.940  12.722  18.762  0.00  0.00    +0.000 C 
ATOM     36  C   UNL     1      11.723  11.787  19.945  0.00  0.00    +0.000 C 
ATOM     37  C   UNL     1      10.250  11.733  20.338  0.00  0.00    +0.000 C 
ATOM     38  C   UNL     1       9.361  11.335  19.160  0.00  0.00    +0.000 C 
ENDBRANCH  31  33
ENDBRANCH  28  29
ENDBRANCH  20  22
ENDBRANCH   4  20
TORSDOF 5
ENDMDL
MODEL 3
REMARK VINA RESULT:      -7.5      1.405      1.645
REMARK  Name = 
REMARK  8 active torsions:
REMARK  status: ('A' for Active; 'I' for Inactive)
REMARK    1  A    between atoms: C_1  and  C_2
REMARK    2  A    between atoms: C_5  and  C_6
REMARK    3  A    between atoms: C_9  and  N_10
REMARK    4  A    between atoms: N_10  and  C_11
REMARK    5  A    between atoms: N_14  and  C_15
REMARK    6  A    between atoms: C_17  and  C_18
REMARK    7  A    between atoms: N_20  and  C_21
REMARK    8  A    between atoms: C_31  and  C_32
REMARK                            x       y       z     vdW  Elec       q    Type
REMARK                         _______ _______ _______ _____ _____    ______ ____
ROOT
ATOM      1  C   UNL     1       0.647  10.230  19.273  0.00  0.00    +0.000 A 
ATOM      2  C   UNL     1       1.076  11.009  20.345  0.00  0.00    +0.000 A 
ATOM      3  N   UNL     1       0.425  12.083  20.847  0.00  0.00    +0.000 NA
ATOM      4  C   UNL     1      -0.737  12.444  20.277  0.00  0.00    +0.000 A 
ATOM      5  C   UNL     1      -1.254  11.734  19.175  0.00  0.00    +0.000 A 
ATOM      6  N   UNL     1      -2.483  12.097  18.588  0.00  0.00    +0.000 N 
ATOM      7  C   UNL     1      -3.063  11.459  17.525  0.00  0.00    +0.000 A 
ATOM      8  O   UNL     1      -4.143  11.831  17.088  0.00  0.00    +0.000 OA
ATOM      9  C   UNL     1      -2.311  10.316  16.938  0.00  0.00    +0.000 A 
ATOM     10  C   UNL     1      -2.907   9.593  15.772  0.00  0.00    +0.000 C 
ATOM     11  C   UNL     1      -1.129   9.958  17.472  0.00  0.00    +0.000 A 
ATOM     12  C   UNL     1      -0.552  10.627  18.653  0.00  0.00    +0.000 A 
ATOM     13  H   UNL     1      -3.032  12.848  18.980  0.00  0.00    +0.000 HD
ENDROOT
BRANCH   1  18
ATOM     14  C   UNL     1       2.447   5.891  20.219  0.00  0.00    +0.000 C 
ATOM     15  C   UNL     1       2.298   7.080  19.357  0.00  0.00    +0.000 A 
ATOM     16  C   UNL     1       2.797   7.447  18.129  0.00  0.00    +0.000 A 
ATOM     17  C   UNL     1       2.247   8.723  17.844  0.00  0.00    +0.000 A 
ATOM     18  C   UNL     1       1.438   9.057  18.915  0.00  0.00    +0.000 A 
ATOM     19  O   UNL     1       1.499   8.063  19.847  0.00  0.00    +0.000 OA
ENDBRANCH   1  18
BRANCH   4  20
ATOM     20  N   UNL     1      -1.370  13.556  20.799  0.00  0.00    +0.000 N 
ATOM     21  H   UNL     1      -2.075  14.028  20.253  0.00  0.00    +0.000 HD
BRANCH  20  22
ATOM     22  C   UNL     1      -1.276  13.908  22.235  0.00  0.00    +0.000 C 
ATOM     23  C   UNL     1      -2.676  13.706  22.851  0.00  0.00    +0.000 C 
ATOM     24  C   UNL     1      -2.916  14.467  24.151  0.00  0.00    +0.000 C 
ATOM     25  N   UNL     1      -2.536  15.873  24.001  0.00  0.00    +0.000 NA
ATOM     26  C   UNL     1      -2.871  16.630  25.211  0.00  0.00    +0.000 C 
ATOM     27  C   UNL     1      -1.095  15.964  23.730  0.00  0.00    +0.000 C 
ATOM     28  C   UNL     1      -0.747  15.351  22.366  0.00  0.00    +0.000 C 
BRANCH  28  29
ATOM     29  C   UNL     1       0.775  15.428  22.193  0.00  0.00    +0.000 C 
ATOM     30  O   UNL     1       1.543  15.620  23.132  0.00  0.00    +0.000 OA
ATOM     31  N   UNL     1       1.216  15.333  20.892  0.00  0.00    +0.000 N 
ATOM     32  H   UNL     1       0.545  14.996  20.206  0.00  0.00    +0.000 HD
BRANCH  31  33
ATOM     33  C   UNL     1       2.632  15.307  20.552  0.00  0.00    +0.000 C 
ATOM     34  C   UNL     1       2.971  14.052  19.735  0.00  0.00    +0.000 C 
ATOM     35  C   UNL     1       2.487  14.140  18.289  0.00  0.00    +0.000 C 
ATOM     36  C   UNL     1       3.036  15.387  17.608  0.00  0.00    +0.000 C 
ATOM     37  C   UNL     1       2.635  16.648  18.366  0.00  0.00    +0.000 C 
ATOM     38  C   UNL     1       3.067  16.593  19.832  0.00  0.00    +0.000 C 
ENDBRANCH  31  33
ENDBRANCH  28  29
ENDBRANCH  20  22
ENDBRANCH   4  20
TORSDOF 5
ENDMDL
MODEL 4
REMARK VINA RESULT:      -7.5      1.073      1.210
REMARK  Name = 
REMARK  8 active torsions:
REMARK  status: ('A' for Active; 'I' for Inactive)
REMARK    1  A    between atoms: C_1  and  C_2
REMARK    2  A    between atoms: C_5  and  C_6
REMARK    3  A    between atoms: C_9  and  N_10
REMARK    4  A    between atoms: N_10  and  C_11
REMARK    5  A    between atoms: N_14  and  C_15
REMARK    6  A    between atoms: C_17  and  C_18
REMARK    7  A    between atoms: N_20  and  C_21
REMARK    8  A    between atoms: C_31  and  C_32
REMARK                            x       y       z     vdW  Elec       q    Type
REMARK                         _______ _______ _______ _____ _____    ______ ____
ROOT
ATOM      1  C   UNL     1       0.505  10.097  19.534  0.00  0.00    +0.000 A 
ATOM      2  C   UNL     1       0.842  10.664  20.760  0.00  0.00    +0.000 A 
ATOM      3  N   UNL     1       0.095  11.561  21.444  0.00  0.00    +0.000 NA
ATOM      4  C   UNL     1      -1.075  11.950  20.911  0.00  0.00    +0.000 A 
ATOM      5  C   UNL     1      -1.504  11.451  19.664  0.00  0.00    +0.000 A 
ATOM      6  N   UNL     1      -2.740  11.841  19.111  0.00  0.00    +0.000 N 
ATOM      7  C   UNL     1      -3.238  11.399  17.915  0.00  0.00    +0.000 A 
ATOM      8  O   UNL     1      -4.332  11.776  17.517  0.00  0.00    +0.000 OA
ATOM      9  C   UNL     1      -2.383  10.459  17.139  0.00  0.00    +0.000 A 
ATOM     10  C   UNL     1      -2.887   9.955  15.824  0.00  0.00    +0.000 C 
ATOM     11  C   UNL     1      -1.192  10.082  17.638  0.00  0.00    +0.000 A 
ATOM     12  C   UNL     1      -0.703  10.530  18.956  0.00  0.00    +0.000 A 
ATOM     13  H   UNL     1      -3.357  12.452  19.625  0.00  0.00    +0.000 HD
ENDROOT
BRANCH   1  18
ATOM     14  C   UNL     1       2.879   5.944  19.799  0.00  0.00    +0.000 C 
ATOM     15  C   UNL     1       2.518   7.195  19.106  0.00  0.00    +0.000 A 
ATOM     16  C   UNL     1       2.864   7.763  17.901  0.00  0.00    +0.000 A 
ATOM     17  C   UNL     1       2.144   8.982  17.817  0.00  0.00    +0.000 A 
ATOM     18  C   UNL     1       1.396   9.084  18.976  0.00  0.00    +0.000 A 
ATOM     19  O   UNL     1       1.654   8.005  19.769  0.00  0.00    +0.000 OA
ENDBRANCH   1  18
BRANCH   4  20
ATOM     20  N   UNL     1      -1.808  12.880  21.622  0.00  0.00    +0.000 N 
ATOM     21  H   UNL     1      -2.763  12.672  21.875  0.00  0.00    +0.000 HD
BRANCH  20  22
ATOM     22  C   UNL     1      -1.168  14.039  22.285  0.00  0.00    +0.000 C 
ATOM     23  C   UNL     1      -1.451  13.918  23.797  0.00  0.00    +0.000 C 
ATOM     24  C   UNL     1      -1.323  15.223  24.576  0.00  0.00    +0.000 C 
ATOM     25  N   UNL     1      -2.079  16.291  23.919  0.00  0.00    +0.000 NA
ATOM     26  C   UNL     1      -2.051  17.515  24.725  0.00  0.00    +0.000 C 
ATOM     27  C   UNL     1      -1.511  16.546  22.589  0.00  0.00    +0.000 C 
ATOM     28  C   UNL     1      -1.710  15.341  21.659  0.00  0.00    +0.000 C 
BRANCH  28  29
ATOM     29  C   UNL     1      -1.033  15.665  20.322  0.00  0.00    +0.000 C 
ATOM     30  O   UNL     1      -1.534  16.412  19.485  0.00  0.00    +0.000 OA
ATOM     31  N   UNL     1       0.152  15.001  20.096  0.00  0.00    +0.000 N 
ATOM     32  H   UNL     1       0.584  14.552  20.899  0.00  0.00    +0.000 HD
BRANCH  31  33
ATOM     33  C   UNL     1       0.968  15.249  18.914  0.00  0.00    +0.000 C 
ATOM     34  C   UNL     1       2.058  16.286  19.216  0.00  0.00    +0.000 C 
ATOM     35  C   UNL     1       3.202  15.717  20.052  0.00  0.00    +0.000 C 
ATOM     36  C   UNL     1       3.803  14.487  19.383  0.00  0.00    +0.000 C 
ATOM     37  C   UNL     1       2.744  13.414  19.154  0.00  0.00    +0.000 C 
ATOM     38  C   UNL     1       1.558  13.947  18.349  0.00  0.00    +0.000 C 
ENDBRANCH  31  33
ENDBRANCH  28  29
ENDBRANCH  20  22
ENDBRANCH   4  20
TORSDOF 5
ENDMDL
MODEL 5
REMARK VINA RESULT:      -7.5      5.368      8.548
REMARK  Name = 
REMARK  8 active torsions:
REMARK  status: ('A' for Active; 'I' for Inactive)
REMARK    1  A    between atoms: C_1  and  C_2
REMARK    2  A    between atoms: C_5  and  C_6
REMARK    3  A    between atoms: C_9  and  N_10
REMARK    4  A    between atoms: N_10  and  C_11
REMARK    5  A    between atoms: N_14  and  C_15
REMARK    6  A    between atoms: C_17  and  C_18
REMARK    7  A    between atoms: N_20  and  C_21
REMARK    8  A    between atoms: C_31  and  C_32
REMARK                            x       y       z     vdW  Elec       q    Type
REMARK                         _______ _______ _______ _____ _____    ______ ____
ROOT
ATOM      1  C   UNL     1       0.863  13.436  18.980  0.00  0.00    +0.000 A 
ATOM      2  C   UNL     1       1.986  12.615  18.919  0.00  0.00    +0.000 A 
ATOM      3  N   UNL     1       3.217  12.995  18.506  0.00  0.00    +0.000 NA
ATOM      4  C   UNL     1       3.391  14.270  18.121  0.00  0.00    +0.000 A 
ATOM      5  C   UNL     1       2.316  15.181  18.127  0.00  0.00    +0.000 A 
ATOM      6  N   UNL     1       2.499  16.525  17.742  0.00  0.00    +0.000 N 
ATOM      7  C   UNL     1       1.517  17.478  17.728  0.00  0.00    +0.000 A 
ATOM      8  O   UNL     1       1.767  18.628  17.396  0.00  0.00    +0.000 OA
ATOM      9  C   UNL     1       0.151  17.037  18.125  0.00  0.00    +0.000 A 
ATOM     10  C   UNL     1      -0.954  18.046  18.119  0.00  0.00    +0.000 C 
ATOM     11  C   UNL     1      -0.054  15.757  18.483  0.00  0.00    +0.000 A 
ATOM     12  C   UNL     1       1.035  14.763  18.543  0.00  0.00    +0.000 A 
ATOM     13  H   UNL     1       3.418  16.863  17.497  0.00  0.00    +0.000 HD
ENDROOT
BRANCH   1  18
ATOM     14  C   UNL     1      -3.505  11.532  18.477  0.00  0.00    +0.000 C 
ATOM     15  C   UNL     1      -2.391  12.036  19.304  0.00  0.00    +0.000 A 
ATOM     16  C   UNL     1      -2.176  12.160  20.657  0.00  0.00    +0.000 A 
ATOM     17  C   UNL     1      -0.875  12.705  20.802  0.00  0.00    +0.000 A 
ATOM     18  C   UNL     1      -0.370  12.877  19.526  0.00  0.00    +0.000 A 
ATOM     19  O   UNL     1      -1.313  12.495  18.618  0.00  0.00    +0.000 OA
ENDBRANCH   1  18
BRANCH   4  20
ATOM     20  N   UNL     1       4.654  14.625  17.687  0.00  0.00    +0.000 N 
ATOM     21  H   UNL     1       4.798  14.861  16.717  0.00  0.00    +0.000 HD
BRANCH  20  22
ATOM     22  C   UNL     1       5.740  14.964  18.636  0.00  0.00    +0.000 C 
ATOM     23  C   UNL     1       5.352  16.287  19.326  0.00  0.00    +0.000 C 
ATOM     24  C   UNL     1       6.520  17.051  19.944  0.00  0.00    +0.000 C 
ATOM     25  N   UNL     1       7.612  17.188  18.978  0.00  0.00    +0.000 NA
ATOM     26  C   UNL     1       8.687  18.017  19.530  0.00  0.00    +0.000 C 
ATOM     27  C   UNL     1       8.127  15.857  18.628  0.00  0.00    +0.000 C 
ATOM     28  C   UNL     1       7.076  15.038  17.867  0.00  0.00    +0.000 C 
BRANCH  28  29
ATOM     29  C   UNL     1       7.668  13.649  17.601  0.00  0.00    +0.000 C 
ATOM     30  O   UNL     1       7.055  12.765  17.008  0.00  0.00    +0.000 OA
ATOM     31  N   UNL     1       8.919  13.440  18.139  0.00  0.00    +0.000 N 
ATOM     32  H   UNL     1       9.426  14.264  18.450  0.00  0.00    +0.000 HD
BRANCH  31  33
ATOM     33  C   UNL     1       9.663  12.206  17.917  0.00  0.00    +0.000 C 
ATOM     34  C   UNL     1      11.117  12.514  17.534  0.00  0.00    +0.000 C 
ATOM     35  C   UNL     1      11.960  12.967  18.724  0.00  0.00    +0.000 C 
ATOM     36  C   UNL     1      11.908  11.941  19.848  0.00  0.00    +0.000 C 
ATOM     37  C   UNL     1      10.471  11.689  20.295  0.00  0.00    +0.000 C 
ATOM     38  C   UNL     1       9.578  11.266  19.129  0.00  0.00    +0.000 C 
ENDBRANCH  31  33
ENDBRANCH  28  29
ENDBRANCH  20  22
ENDBRANCH   4  20
TORSDOF 5
ENDMDL
MODEL 6
REMARK VINA RESULT:      -7.4      3.763      8.799
REMARK  Name = 
REMARK  8 active torsions:
REMARK  status: ('A' for Active; 'I' for Inactive)
REMARK    1  A    between atoms: C_1  and  C_2
REMARK    2  A    between atoms: C_5  and  C_6
REMARK    3  A    between atoms: C_9  and  N_10
REMARK    4  A    between atoms: N_10  and  C_11
REMARK    5  A    between atoms: N_14  and  C_15
REMARK    6  A    between atoms: C_17  and  C_18
REMARK    7  A    between atoms: N_20  and  C_21
REMARK    8  A    between atoms: C_31  and  C_32
REMARK                            x       y       z     vdW  Elec       q    Type
REMARK                         _______ _______ _______ _____ _____    ______ ____
ROOT
ATOM      1  C   UNL     1      -0.444  10.711  22.229  0.00  0.00    +0.000 A 
ATOM      2  C   UNL     1       0.380   9.979  23.079  0.00  0.00    +0.000 A 
ATOM      3  N   UNL     1       1.246   9.013  22.695  0.00  0.00    +0.000 NA
ATOM      4  C   UNL     1       1.334   8.723  21.386  0.00  0.00    +0.000 A 
ATOM      5  C   UNL     1       0.531   9.393  20.441  0.00  0.00    +0.000 A 
ATOM      6  N   UNL     1       0.634   9.105  19.066  0.00  0.00    +0.000 N 
ATOM      7  C   UNL     1      -0.096   9.713  18.080  0.00  0.00    +0.000 A 
ATOM      8  O   UNL     1       0.070   9.414  16.906  0.00  0.00    +0.000 OA
ATOM      9  C   UNL     1      -1.091  10.731  18.515  0.00  0.00    +0.000 A 
ATOM     10  C   UNL     1      -1.914  11.417  17.471  0.00  0.00    +0.000 C 
ATOM     11  C   UNL     1      -1.219  11.014  19.824  0.00  0.00    +0.000 A 
ATOM     12  C   UNL     1      -0.380  10.384  20.861  0.00  0.00    +0.000 A 
ATOM     13  H   UNL     1       1.320   8.443  18.734  0.00  0.00    +0.000 HD
ENDROOT
BRANCH   1  18
ATOM     14  C   UNL     1      -4.363  12.268  24.505  0.00  0.00    +0.000 C 
ATOM     15  C   UNL     1      -3.076  12.499  23.821  0.00  0.00    +0.000 A 
ATOM     16  C   UNL     1      -2.335  13.618  23.517  0.00  0.00    +0.000 A 
ATOM     17  C   UNL     1      -1.167  13.151  22.861  0.00  0.00    +0.000 A 
ATOM     18  C   UNL     1      -1.262  11.773  22.809  0.00  0.00    +0.000 A 
ATOM     19  O   UNL     1      -2.443  11.386  23.369  0.00  0.00    +0.000 OA
ENDBRANCH   1  18
BRANCH   4  20
ATOM     20  N   UNL     1       2.213   7.720  21.026  0.00  0.00    +0.000 N 
ATOM     21  H   UNL     1       3.078   7.611  21.534  0.00  0.00    +0.000 HD
BRANCH  20  22
ATOM     22  C   UNL     1       1.812   6.615  20.125  0.00  0.00    +0.000 C 
ATOM     23  C   UNL     1       0.873   5.687  20.923  0.00  0.00    +0.000 C 
ATOM     24  C   UNL     1       0.754   4.271  20.370  0.00  0.00    +0.000 C 
ATOM     25  N   UNL     1       2.080   3.700  20.129  0.00  0.00    +0.000 NA
ATOM     26  C   UNL     1       1.971   2.301  19.706  0.00  0.00    +0.000 C 
ATOM     27  C   UNL     1       2.773   4.488  19.101  0.00  0.00    +0.000 C 
ATOM     28  C   UNL     1       3.079   5.907  19.601  0.00  0.00    +0.000 C 
BRANCH  28  29
ATOM     29  C   UNL     1       3.739   6.676  18.451  0.00  0.00    +0.000 C 
ATOM     30  O   UNL     1       3.270   7.713  17.988  0.00  0.00    +0.000 OA
ATOM     31  N   UNL     1       4.864   6.081  17.925  0.00  0.00    +0.000 N 
ATOM     32  H   UNL     1       5.284   5.335  18.473  0.00  0.00    +0.000 HD
BRANCH  31  33
ATOM     33  C   UNL     1       5.660   6.712  16.881  0.00  0.00    +0.000 C 
ATOM     34  C   UNL     1       7.143   6.348  17.037  0.00  0.00    +0.000 C 
ATOM     35  C   UNL     1       7.451   4.919  16.595  0.00  0.00    +0.000 C 
ATOM     36  C   UNL     1       6.989   4.682  15.163  0.00  0.00    +0.000 C 
ATOM     37  C   UNL     1       5.497   4.960  15.015  0.00  0.00    +0.000 C 
ATOM     38  C   UNL     1       5.132   6.371  15.478  0.00  0.00    +0.000 C 
ENDBRANCH  31  33
ENDBRANCH  28  29
ENDBRANCH  20  22
ENDBRANCH   4  20
TORSDOF 5
ENDMDL
MODEL 7
REMARK VINA RESULT:      -7.4      3.445      6.610
REMARK  Name = 
REMARK  8 active torsions:
REMARK  status: ('A' for Active; 'I' for Inactive)
REMARK    1  A    between atoms: C_1  and  C_2
REMARK    2  A    between atoms: C_5  and  C_6
REMARK    3  A    between atoms: C_9  and  N_10
REMARK    4  A    between atoms: N_10  and  C_11
REMARK    5  A    between atoms: N_14  and  C_15
REMARK    6  A    between atoms: C_17  and  C_18
REMARK    7  A    between atoms: N_20  and  C_21
REMARK    8  A    between atoms: C_31  and  C_32
REMARK                            x       y       z     vdW  Elec       q    Type
REMARK                         _______ _______ _______ _____ _____    ______ ____
ROOT
ATOM      1  C   UNL     1       4.067   6.416  17.957  0.00  0.00    +0.000 A 
ATOM      2  C   UNL     1       3.423   7.633  17.747  0.00  0.00    +0.000 A 
ATOM      3  N   UNL     1       2.345   8.080  18.430  0.00  0.00    +0.000 NA
ATOM      4  C   UNL     1       1.839   7.300  19.400  0.00  0.00    +0.000 A 
ATOM      5  C   UNL     1       2.405   6.040  19.683  0.00  0.00    +0.000 A 
ATOM      6  N   UNL     1       1.890   5.227  20.712  0.00  0.00    +0.000 N 
ATOM      7  C   UNL     1       2.382   3.998  21.062  0.00  0.00    +0.000 A 
ATOM      8  O   UNL     1       1.884   3.365  21.983  0.00  0.00    +0.000 OA
ATOM      9  C   UNL     1       3.530   3.485  20.264  0.00  0.00    +0.000 A 
ATOM     10  C   UNL     1       4.096   2.144  20.610  0.00  0.00    +0.000 C 
ATOM     11  C   UNL     1       4.031   4.236  19.267  0.00  0.00    +0.000 A 
ATOM     12  C   UNL     1       3.517   5.581  18.947  0.00  0.00    +0.000 A 
ATOM     13  H   UNL     1       1.132   5.558  21.292  0.00  0.00    +0.000 HD
ENDROOT
BRANCH   1  18
ATOM     14  C   UNL     1       6.309   4.411  14.227  0.00  0.00    +0.000 C 
ATOM     15  C   UNL     1       6.309   5.181  15.486  0.00  0.00    +0.000 A 
ATOM     16  C   UNL     1       7.286   5.774  16.253  0.00  0.00    +0.000 A 
ATOM     17  C   UNL     1       6.616   6.383  17.345  0.00  0.00    +0.000 A 
ATOM     18  C   UNL     1       5.267   6.130  17.177  0.00  0.00    +0.000 A 
ATOM     19  O   UNL     1       5.092   5.370  16.058  0.00  0.00    +0.000 OA
ENDBRANCH   1  18
BRANCH   4  20
ATOM     20  N   UNL     1       0.728   7.774  20.069  0.00  0.00    +0.000 N 
ATOM     21  H   UNL     1      -0.068   7.168  20.201  0.00  0.00    +0.000 HD
BRANCH  20  22
ATOM     22  C   UNL     1       0.765   9.027  20.858  0.00  0.00    +0.000 C 
ATOM     23  C   UNL     1       0.553   8.646  22.338  0.00  0.00    +0.000 C 
ATOM     24  C   UNL     1       0.067   9.786  23.227  0.00  0.00    +0.000 C 
ATOM     25  N   UNL     1      -1.085  10.455  22.621  0.00  0.00    +0.000 NA
ATOM     26  C   UNL     1      -1.623  11.475  23.524  0.00  0.00    +0.000 C 
ATOM     27  C   UNL     1      -0.682  11.067  21.347  0.00  0.00    +0.000 C 
ATOM     28  C   UNL     1      -0.303   9.998  20.313  0.00  0.00    +0.000 C 
BRANCH  28  29
ATOM     29  C   UNL     1       0.166  10.721  19.044  0.00  0.00    +0.000 C 
ATOM     30  O   UNL     1       0.114  10.210  17.929  0.00  0.00    +0.000 OA
ATOM     31  N   UNL     1       0.716  11.965  19.256  0.00  0.00    +0.000 N 
ATOM     32  H   UNL     1       0.557  12.386  20.168  0.00  0.00    +0.000 HD
BRANCH  31  33
ATOM     33  C   UNL     1       1.141  12.824  18.158  0.00  0.00    +0.000 C 
ATOM     34  C   UNL     1       0.346  14.137  18.158  0.00  0.00    +0.000 C 
ATOM     35  C   UNL     1       0.791  15.098  19.259  0.00  0.00    +0.000 C 
ATOM     36  C   UNL     1       2.285  15.376  19.165  0.00  0.00    +0.000 C 
ATOM     37  C   UNL     1       3.090  14.083  19.248  0.00  0.00    +0.000 C 
ATOM     38  C   UNL     1       2.657  13.073  18.185  0.00  0.00    +0.000 C 
ENDBRANCH  31  33
ENDBRANCH  28  29
ENDBRANCH  20  22
ENDBRANCH   4  20
TORSDOF 5
ENDMDL
MODEL 8
REMARK VINA RESULT:      -7.3      3.605      6.567
REMARK  Name = 
REMARK  8 active torsions:
REMARK  status: ('A' for Active; 'I' for Inactive)
REMARK    1  A    between atoms: C_1  and  C_2
REMARK    2  A    between atoms: C_5  and  C_6
REMARK    3  A    between atoms: C_9  and  N_10
REMARK    4  A    between atoms: N_10  and  C_11
REMARK    5  A    between atoms: N_14  and  C_15
REMARK    6  A    between atoms: C_17  and  C_18
REMARK    7  A    between atoms: N_20  and  C_21
REMARK    8  A    between atoms: C_31  and  C_32
REMARK                            x       y       z     vdW  Elec       q    Type
REMARK                         _______ _______ _______ _____ _____    ______ ____
ROOT
ATOM      1  C   UNL     1       4.290   6.444  17.418  0.00  0.00    +0.000 A 
ATOM      2  C   UNL     1       3.830   7.708  17.061  0.00  0.00    +0.000 A 
ATOM      3  N   UNL     1       2.772   8.345  17.614  0.00  0.00    +0.000 NA
ATOM      4  C   UNL     1       2.097   7.722  18.593  0.00  0.00    +0.000 A 
ATOM      5  C   UNL     1       2.468   6.431  19.020  0.00  0.00    +0.000 A 
ATOM      6  N   UNL     1       1.775   5.781  20.061  0.00  0.00    +0.000 N 
ATOM      7  C   UNL     1       2.073   4.536  20.544  0.00  0.00    +0.000 A 
ATOM      8  O   UNL     1       1.429   4.053  21.465  0.00  0.00    +0.000 OA
ATOM      9  C   UNL     1       3.200   3.815  19.890  0.00  0.00    +0.000 A 
ATOM     10  C   UNL     1       3.557   2.449  20.385  0.00  0.00    +0.000 C 
ATOM     11  C   UNL     1       3.869   4.408  18.885  0.00  0.00    +0.000 A 
ATOM     12  C   UNL     1       3.563   5.774  18.419  0.00  0.00    +0.000 A 
ATOM     13  H   UNL     1       1.027   6.254  20.546  0.00  0.00    +0.000 HD
ENDROOT
BRANCH   1  18
ATOM     14  C   UNL     1       6.530   4.061  13.916  0.00  0.00    +0.000 C 
ATOM     15  C   UNL     1       6.530   4.819  15.183  0.00  0.00    +0.000 A 
ATOM     16  C   UNL     1       7.507   5.222  16.063  0.00  0.00    +0.000 A 
ATOM     17  C   UNL     1       6.843   5.944  17.088  0.00  0.00    +0.000 A 
ATOM     18  C   UNL     1       5.497   5.942  16.768  0.00  0.00    +0.000 A 
ATOM     19  O   UNL     1       5.312   5.228  15.622  0.00  0.00    +0.000 OA
ENDBRANCH   1  18
BRANCH   4  20
ATOM     20  N   UNL     1       1.010   8.388  19.127  0.00  0.00    +0.000 N 
ATOM     21  H   UNL     1       0.080   8.141  18.826  0.00  0.00    +0.000 HD
BRANCH  20  22
ATOM     22  C   UNL     1       1.130   9.239  20.333  0.00  0.00    +0.000 C 
ATOM     23  C   UNL     1       0.423   8.501  21.489  0.00  0.00    +0.000 C 
ATOM     24  C   UNL     1       0.001   9.393  22.652  0.00  0.00    +0.000 C 
ATOM     25  N   UNL     1      -0.733  10.562  22.163  0.00  0.00    +0.000 NA
ATOM     26  C   UNL     1      -1.237  11.360  23.284  0.00  0.00    +0.000 C 
ATOM     27  C   UNL     1       0.149  11.376  21.317  0.00  0.00    +0.000 C 
ATOM     28  C   UNL     1       0.531  10.629  20.031  0.00  0.00    +0.000 C 
BRANCH  28  29
ATOM     29  C   UNL     1       1.500  11.518  19.244  0.00  0.00    +0.000 C 
ATOM     30  O   UNL     1       1.973  11.190  18.158  0.00  0.00    +0.000 OA
ATOM     31  N   UNL     1       1.857  12.688  19.875  0.00  0.00    +0.000 N 
ATOM     32  H   UNL     1       1.290  12.968  20.672  0.00  0.00    +0.000 HD
BRANCH  31  33
ATOM     33  C   UNL     1       2.706  13.687  19.239  0.00  0.00    +0.000 C 
ATOM     34  C   UNL     1       1.854  14.742  18.520  0.00  0.00    +0.000 C 
ATOM     35  C   UNL     1       1.191  15.725  19.483  0.00  0.00    +0.000 C 
ATOM     36  C   UNL     1       2.228  16.391  20.378  0.00  0.00    +0.000 C 
ATOM     37  C   UNL     1       3.025  15.354  21.161  0.00  0.00    +0.000 C 
ATOM     38  C   UNL     1       3.681  14.325  20.241  0.00  0.00    +0.000 C 
ENDBRANCH  31  33
ENDBRANCH  28  29
ENDBRANCH  20  22
ENDBRANCH   4  20
TORSDOF 5
ENDMDL
MODEL 9
REMARK VINA RESULT:      -7.3      2.259      4.157
REMARK  Name = 
REMARK  8 active torsions:
REMARK  status: ('A' for Active; 'I' for Inactive)
REMARK    1  A    between atoms: C_1  and  C_2
REMARK    2  A    between atoms: C_5  and  C_6
REMARK    3  A    between atoms: C_9  and  N_10
REMARK    4  A    between atoms: N_10  and  C_11
REMARK    5  A    between atoms: N_14  and  C_15
REMARK    6  A    between atoms: C_17  and  C_18
REMARK    7  A    between atoms: N_20  and  C_21
REMARK    8  A    between atoms: C_31  and  C_32
REMARK                            x       y       z     vdW  Elec       q    Type
REMARK                         _______ _______ _______ _____ _____    ______ ____
ROOT
ATOM      1  C   UNL     1       0.463   9.943  19.524  0.00  0.00    +0.000 A 
ATOM      2  C   UNL     1       0.720  10.428  20.804  0.00  0.00    +0.000 A 
ATOM      3  N   UNL     1      -0.076  11.272  21.499  0.00  0.00    +0.000 NA
ATOM      4  C   UNL     1      -1.216  11.689  20.923  0.00  0.00    +0.000 A 
ATOM      5  C   UNL     1      -1.563  11.273  19.622  0.00  0.00    +0.000 A 
ATOM      6  N   UNL     1      -2.768  11.692  19.022  0.00  0.00    +0.000 N 
ATOM      7  C   UNL     1      -3.188  11.329  17.770  0.00  0.00    +0.000 A 
ATOM      8  O   UNL     1      -4.260  11.726  17.333  0.00  0.00    +0.000 OA
ATOM      9  C   UNL     1      -2.279  10.449  16.987  0.00  0.00    +0.000 A 
ATOM     10  C   UNL     1      -2.697  10.032  15.612  0.00  0.00    +0.000 C 
ATOM     11  C   UNL     1      -1.117  10.047  17.532  0.00  0.00    +0.000 A 
ATOM     12  C   UNL     1      -0.712  10.407  18.904  0.00  0.00    +0.000 A 
ATOM     13  H   UNL     1      -3.421  12.263  19.537  0.00  0.00    +0.000 HD
ENDROOT
BRANCH   1  18
ATOM     14  C   UNL     1       2.928   5.838  19.696  0.00  0.00    +0.000 C 
ATOM     15  C   UNL     1       2.559   7.109  19.043  0.00  0.00    +0.000 A 
ATOM     16  C   UNL     1       2.930   7.735  17.875  0.00  0.00    +0.000 A 
ATOM     17  C   UNL     1       2.184   8.940  17.819  0.00  0.00    +0.000 A 
ATOM     18  C   UNL     1       1.396   8.976  18.955  0.00  0.00    +0.000 A 
ATOM     19  O   UNL     1       1.654   7.870  19.711  0.00  0.00    +0.000 OA
ENDBRANCH   1  18
BRANCH   4  20
ATOM     20  N   UNL     1      -2.000  12.565  21.649  0.00  0.00    +0.000 N 
ATOM     21  H   UNL     1      -2.635  12.203  22.345  0.00  0.00    +0.000 HD
BRANCH  20  22
ATOM     22  C   UNL     1      -1.738  14.022  21.662  0.00  0.00    +0.000 C 
ATOM     23  C   UNL     1      -0.357  14.236  22.316  0.00  0.00    +0.000 C 
ATOM     24  C   UNL     1      -0.123  15.637  22.871  0.00  0.00    +0.000 C 
ATOM     25  N   UNL     1      -1.245  16.048  23.717  0.00  0.00    +0.000 NA
ATOM     26  C   UNL     1      -0.971  17.346  24.341  0.00  0.00    +0.000 C 
ATOM     27  C   UNL     1      -2.468  16.123  22.907  0.00  0.00    +0.000 C 
ATOM     28  C   UNL     1      -2.888  14.734  22.405  0.00  0.00    +0.000 C 
BRANCH  28  29
ATOM     29  C   UNL     1      -4.127  14.912  21.520  0.00  0.00    +0.000 C 
ATOM     30  O   UNL     1      -4.208  15.780  20.654  0.00  0.00    +0.000 OA
ATOM     31  N   UNL     1      -5.174  14.067  21.812  0.00  0.00    +0.000 N 
ATOM     32  H   UNL     1      -4.965  13.270  22.407  0.00  0.00    +0.000 HD
BRANCH  31  33
ATOM     33  C   UNL     1      -6.398  14.045  21.021  0.00  0.00    +0.000 C 
ATOM     34  C   UNL     1      -6.268  13.059  19.852  0.00  0.00    +0.000 C 
ATOM     35  C   UNL     1      -6.367  11.600  20.293  0.00  0.00    +0.000 C 
ATOM     36  C   UNL     1      -7.658  11.353  21.063  0.00  0.00    +0.000 C 
ATOM     37  C   UNL     1      -7.759  12.270  22.277  0.00  0.00    +0.000 C 
ATOM     38  C   UNL     1      -7.630  13.744  21.889  0.00  0.00    +0.000 C 
ENDBRANCH  31  33
ENDBRANCH  28  29
ENDBRANCH  20  22
ENDBRANCH   4  20
TORSDOF 5
ENDMDL
