MODEL 1
REMARK VINA RESULT:      -7.0      0.000      0.000
REMARK  Name = 
REMARK  3 active torsions:
REMARK  status: ('A' for Active; 'I' for Inactive)
REMARK    1  A    between atoms: N_1  and  C_2
REMARK    2  A    between atoms: C_5  and  C_6
REMARK    3  A    between atoms: C_11  and  N_12
REMARK                            x       y       z     vdW  Elec       q    Type
REMARK                         _______ _______ _______ _____ _____    ______ ____
ROOT
ATOM      1  C   UNL     1       4.397   4.039  17.446  0.00  0.00    +0.000 A 
ATOM      2  N   UNL     1       3.134   3.712  17.251  0.00  0.00    +0.000 NA
ATOM      3  C   UNL     1       2.519   3.414  18.448  0.00  0.00    +0.000 A 
ATOM      4  C   UNL     1       1.170   3.052  18.602  0.00  0.00    +0.000 A 
ATOM      5  C   UNL     1       0.671   2.777  19.879  0.00  0.00    +0.000 A 
ATOM      6  C   UNL     1       1.479   2.885  21.009  0.00  0.00    +0.000 A 
ATOM      7  C   UNL     1       2.842   3.183  20.860  0.00  0.00    +0.000 A 
ATOM      8  C   UNL     1       3.336   3.478  19.575  0.00  0.00    +0.000 A 
ATOM      9  S   UNL     1       4.923   3.940  19.082  0.00  0.00    +0.000 S 
ENDROOT
BRANCH   1  13
ATOM     10  C   UNL     1       7.218   5.075  14.374  0.00  0.00    +0.000 A 
ATOM     11  C   UNL     1       6.113   4.281  14.060  0.00  0.00    +0.000 A 
ATOM     12  C   UNL     1       5.168   3.939  15.039  0.00  0.00    +0.000 A 
ATOM     13  C   UNL     1       5.293   4.422  16.347  0.00  0.00    +0.000 A 
ATOM     14  C   UNL     1       6.369   5.277  16.634  0.00  0.00    +0.000 A 
ATOM     15  C   UNL     1       7.304   5.620  15.654  0.00  0.00    +0.000 A 
BRANCH  10  16
ATOM     16  N   UNL     1       8.098   5.497  13.371  0.00  0.00    +0.000 N 
ATOM     17  H   UNL     1       8.155   6.506  13.275  0.00  0.00    +0.000 HD
ATOM     18  H   UNL     1       7.947   5.037  12.478  0.00  0.00    +0.000 HD
ENDBRANCH  10  16
ENDBRANCH   1  13
BRANCH   6  19
ATOM     19  N   UNL     1       0.985   2.472  22.253  0.00  0.00    +0.000 N 
ATOM     20  H   UNL     1       0.223   3.047  22.603  0.00  0.00    +0.000 HD
ATOM     21  H   UNL     1       1.701   2.314  22.955  0.00  0.00    +0.000 HD
ENDBRANCH   6  19
TORSDOF 3
ENDMDL
MODEL 2
REMARK VINA RESULT:      -6.8      0.196      1.170
REMARK  Name = 
REMARK  3 active torsions:
REMARK  status: ('A' for Active; 'I' for Inactive)
REMARK    1  A    between atoms: N_1  and  C_2
REMARK    2  A    between atoms: C_5  and  C_6
REMARK    3  A    between atoms: C_11  and  N_12
REMARK                            x       y       z     vdW  Elec       q    Type
REMARK                         _______ _______ _______ _____ _____    ______ ____
ROOT
ATOM      1  C   UNL     1       4.561   3.940  17.556  0.00  0.00    +0.000 A 
ATOM      2  N   UNL     1       3.296   3.656  17.315  0.00  0.00    +0.000 NA
ATOM      3  C   UNL     1       2.629   3.377  18.488  0.00  0.00    +0.000 A 
ATOM      4  C   UNL     1       1.264   3.059  18.592  0.00  0.00    +0.000 A 
ATOM      5  C   UNL     1       0.710   2.799  19.850  0.00  0.00    +0.000 A 
ATOM      6  C   UNL     1       1.481   2.879  21.008  0.00  0.00    +0.000 A 
ATOM      7  C   UNL     1       2.857   3.131  20.910  0.00  0.00    +0.000 A 
ATOM      8  C   UNL     1       3.407   3.411  19.644  0.00  0.00    +0.000 A 
ATOM      9  S   UNL     1       5.024   3.821  19.209  0.00  0.00    +0.000 S 
ENDROOT
BRANCH   1  13
ATOM     10  C   UNL     1       7.143   5.106  14.323  0.00  0.00    +0.000 A 
ATOM     11  C   UNL     1       7.522   5.368  15.641  0.00  0.00    +0.000 A 
ATOM     12  C   UNL     1       6.706   4.985  16.718  0.00  0.00    +0.000 A 
ATOM     13  C   UNL     1       5.509   4.295  16.491  0.00  0.00    +0.000 A 
ATOM     14  C   UNL     1       5.173   3.974  15.167  0.00  0.00    +0.000 A 
ATOM     15  C   UNL     1       5.991   4.352  14.099  0.00  0.00    +0.000 A 
BRANCH  10  16
ATOM     16  N   UNL     1       8.008   5.397  13.264  0.00  0.00    +0.000 N 
ATOM     17  H   UNL     1       7.656   5.107  12.356  0.00  0.00    +0.000 HD
ATOM     18  H   UNL     1       8.962   5.082  13.419  0.00  0.00    +0.000 HD
ENDBRANCH  10  16
ENDBRANCH   1  13
BRANCH   6  19
ATOM     19  N   UNL     1       0.928   2.480  22.233  0.00  0.00    +0.000 N 
ATOM     20  H   UNL     1       1.255   3.024  23.027  0.00  0.00    +0.000 HD
ATOM     21  H   UNL     1       0.975   1.481  22.406  0.00  0.00    +0.000 HD
ENDBRANCH   6  19
TORSDOF 3
ENDMDL
MODEL 3
REMARK VINA RESULT:      -6.7      0.790      6.915
REMARK  Name = 
REMARK  3 active torsions:
REMARK  status: ('A' for Active; 'I' for Inactive)
REMARK    1  A    between atoms: N_1  and  C_2
REMARK    2  A    between atoms: C_5  and  C_6
REMARK    3  A    between atoms: C_11  and  N_12
REMARK                            x       y       z     vdW  Elec       q    Type
REMARK                         _______ _______ _______ _____ _____    ______ ____
ROOT
ATOM      1  C   UNL     1       4.245   3.916  18.029  0.00  0.00    +0.000 A 
ATOM      2  N   UNL     1       3.993   3.642  16.764  0.00  0.00    +0.000 NA
ATOM      3  C   UNL     1       5.022   4.079  15.958  0.00  0.00    +0.000 A 
ATOM      4  C   UNL     1       5.084   3.925  14.563  0.00  0.00    +0.000 A 
ATOM      5  C   UNL     1       6.192   4.415  13.864  0.00  0.00    +0.000 A 
ATOM      6  C   UNL     1       7.252   5.027  14.528  0.00  0.00    +0.000 A 
ATOM      7  C   UNL     1       7.171   5.244  15.912  0.00  0.00    +0.000 A 
ATOM      8  C   UNL     1       6.063   4.733  16.615  0.00  0.00    +0.000 A 
ATOM      9  S   UNL     1       5.712   4.774  18.303  0.00  0.00    +0.000 S 
ENDROOT
BRANCH   1  13
ATOM     10  C   UNL     1       1.737   2.931  21.378  0.00  0.00    +0.000 A 
ATOM     11  C   UNL     1       1.226   3.703  20.334  0.00  0.00    +0.000 A 
ATOM     12  C   UNL     1       2.017   4.028  19.220  0.00  0.00    +0.000 A 
ATOM     13  C   UNL     1       3.328   3.549  19.117  0.00  0.00    +0.000 A 
ATOM     14  C   UNL     1       3.808   2.714  20.138  0.00  0.00    +0.000 A 
ATOM     15  C   UNL     1       3.015   2.389  21.241  0.00  0.00    +0.000 A 
BRANCH  10  16
ATOM     16  N   UNL     1       0.912   2.525  22.432  0.00  0.00    +0.000 N 
ATOM     17  H   UNL     1       1.285   2.745  23.351  0.00  0.00    +0.000 HD
ATOM     18  H   UNL     1       0.613   1.556  22.365  0.00  0.00    +0.000 HD
ENDBRANCH  10  16
ENDBRANCH   1  13
BRANCH   6  19
ATOM     19  N   UNL     1       8.279   5.626  13.786  0.00  0.00    +0.000 N 
ATOM     20  H   UNL     1       8.068   6.573  13.483  0.00  0.00    +0.000 HD
ATOM     21  H   UNL     1       8.635   5.051  13.028  0.00  0.00    +0.000 HD
ENDBRANCH   6  19
TORSDOF 3
ENDMDL
MODEL 4
REMARK VINA RESULT:      -6.6      0.895      6.948
REMARK  Name = 
REMARK  3 active torsions:
REMARK  status: ('A' for Active; 'I' for Inactive)
REMARK    1  A    between atoms: N_1  and  C_2
REMARK    2  A    between atoms: C_5  and  C_6
REMARK    3  A    between atoms: C_11  and  N_12
REMARK                            x       y       z     vdW  Elec       q    Type
REMARK                         _______ _______ _______ _____ _____    ______ ____
ROOT
ATOM      1  C   UNL     1       4.505   3.979  18.082  0.00  0.00    +0.000 A 
ATOM      2  N   UNL     1       4.237   3.605  16.846  0.00  0.00    +0.000 NA
ATOM      3  C   UNL     1       5.211   4.054  15.980  0.00  0.00    +0.000 A 
ATOM      4  C   UNL     1       5.245   3.811  14.597  0.00  0.00    +0.000 A 
ATOM      5  C   UNL     1       6.297   4.325  13.832  0.00  0.00    +0.000 A 
ATOM      6  C   UNL     1       7.331   5.050  14.421  0.00  0.00    +0.000 A 
ATOM      7  C   UNL     1       7.273   5.353  15.790  0.00  0.00    +0.000 A 
ATOM      8  C   UNL     1       6.223   4.818  16.560  0.00  0.00    +0.000 A 
ATOM      9  S   UNL     1       5.917   4.948  18.252  0.00  0.00    +0.000 S 
ENDROOT
BRANCH   1  13
ATOM     10  C   UNL     1       1.806   2.877  21.241  0.00  0.00    +0.000 A 
ATOM     11  C   UNL     1       3.092   2.334  21.207  0.00  0.00    +0.000 A 
ATOM     12  C   UNL     1       4.000   2.686  20.196  0.00  0.00    +0.000 A 
ATOM     13  C   UNL     1       3.645   3.625  19.219  0.00  0.00    +0.000 A 
ATOM     14  C   UNL     1       2.376   4.218  19.304  0.00  0.00    +0.000 A 
ATOM     15  C   UNL     1       1.478   3.868  20.316  0.00  0.00    +0.000 A 
BRANCH  10  16
ATOM     16  N   UNL     1       0.946   2.601  22.308  0.00  0.00    +0.000 N 
ATOM     17  H   UNL     1       1.136   3.151  23.140  0.00  0.00    +0.000 HD
ATOM     18  H   UNL     1       0.864   1.610  22.519  0.00  0.00    +0.000 HD
ENDBRANCH  10  16
ENDBRANCH   1  13
BRANCH   6  19
ATOM     19  N   UNL     1       8.294   5.664  13.609  0.00  0.00    +0.000 N 
ATOM     20  H   UNL     1       8.692   5.047  12.906  0.00  0.00    +0.000 HD
ATOM     21  H   UNL     1       9.007   6.175  14.120  0.00  0.00    +0.000 HD
ENDBRANCH   6  19
TORSDOF 3
ENDMDL
MODEL 5
REMARK VINA RESULT:      -6.5      5.123      5.496
REMARK  Name = 
REMARK  3 active torsions:
REMARK  status: ('A' for Active; 'I' for Inactive)
REMARK    1  A    between atoms: N_1  and  C_2
REMARK    2  A    between atoms: C_5  and  C_6
REMARK    3  A    between atoms: C_11  and  N_12
REMARK                            x       y       z     vdW  Elec       q    Type
REMARK                         _______ _______ _______ _____ _____    ______ ____
ROOT
ATOM      1  C   UNL     1       2.541   7.337  18.622  0.00  0.00    +0.000 A 
ATOM      2  N   UNL     1       2.232   7.228  19.900  0.00  0.00    +0.000 NA
ATOM      3  C   UNL     1       1.474   8.304  20.309  0.00  0.00    +0.000 A 
ATOM      4  C   UNL     1       0.957   8.490  21.603  0.00  0.00    +0.000 A 
ATOM      5  C   UNL     1       0.199   9.631  21.885  0.00  0.00    +0.000 A 
ATOM      6  C   UNL     1      -0.081  10.574  20.898  0.00  0.00    +0.000 A 
ATOM      7  C   UNL     1       0.484  10.431  19.622  0.00  0.00    +0.000 A 
ATOM      8  C   UNL     1       1.231   9.273  19.337  0.00  0.00    +0.000 A 
ATOM      9  S   UNL     1       1.985   8.779  17.866  0.00  0.00    +0.000 S 
ENDROOT
BRANCH   1  13
ATOM     10  C   UNL     1       5.053   4.443  16.676  0.00  0.00    +0.000 A 
ATOM     11  C   UNL     1       3.857   4.035  17.269  0.00  0.00    +0.000 A 
ATOM     12  C   UNL     1       3.009   4.959  17.898  0.00  0.00    +0.000 A 
ATOM     13  C   UNL     1       3.330   6.322  17.910  0.00  0.00    +0.000 A 
ATOM     14  C   UNL     1       4.499   6.731  17.250  0.00  0.00    +0.000 A 
ATOM     15  C   UNL     1       5.336   5.807  16.619  0.00  0.00    +0.000 A 
BRANCH  10  16
ATOM     16  N   UNL     1       5.839   3.533  15.961  0.00  0.00    +0.000 N 
ATOM     17  H   UNL     1       6.391   3.961  15.224  0.00  0.00    +0.000 HD
ATOM     18  H   UNL     1       5.324   2.723  15.629  0.00  0.00    +0.000 HD
ENDBRANCH  10  16
ENDBRANCH   1  13
BRANCH   6  19
ATOM     19  N   UNL     1      -0.726  11.768  21.248  0.00  0.00    +0.000 N 
ATOM     20  H   UNL     1      -0.669  12.490  20.534  0.00  0.00    +0.000 HD
ATOM     21  H   UNL     1      -0.484  12.118  22.169  0.00  0.00    +0.000 HD
ENDBRANCH   6  19
TORSDOF 3
ENDMDL
MODEL 6
REMARK VINA RESULT:      -6.4      5.092      5.515
REMARK  Name = 
REMARK  3 active torsions:
REMARK  status: ('A' for Active; 'I' for Inactive)
REMARK    1  A    between atoms: N_1  and  C_2
REMARK    2  A    between atoms: C_5  and  C_6
REMARK    3  A    between atoms: C_11  and  N_12
REMARK                            x       y       z     vdW  Elec       q    Type
REMARK                         _______ _______ _______ _____ _____    ______ ____
ROOT
ATOM      1  C   UNL     1       2.656   7.395  18.626  0.00  0.00    +0.000 A 
ATOM      2  N   UNL     1       2.249   7.240  19.871  0.00  0.00    +0.000 NA
ATOM      3  C   UNL     1       1.424   8.278  20.245  0.00  0.00    +0.000 A 
ATOM      4  C   UNL     1       0.798   8.410  21.497  0.00  0.00    +0.000 A 
ATOM      5  C   UNL     1      -0.020   9.516  21.746  0.00  0.00    +0.000 A 
ATOM      6  C   UNL     1      -0.252  10.478  20.765  0.00  0.00    +0.000 A 
ATOM      7  C   UNL     1       0.418  10.391  19.535  0.00  0.00    +0.000 A 
ATOM      8  C   UNL     1       1.226   9.266  19.282  0.00  0.00    +0.000 A 
ATOM      9  S   UNL     1       2.112   8.840  17.865  0.00  0.00    +0.000 S 
ENDROOT
BRANCH   1  13
ATOM     10  C   UNL     1       5.018   4.477  16.534  0.00  0.00    +0.000 A 
ATOM     11  C   UNL     1       5.397   5.820  16.511  0.00  0.00    +0.000 A 
ATOM     12  C   UNL     1       4.654   6.793  17.197  0.00  0.00    +0.000 A 
ATOM     13  C   UNL     1       3.534   6.428  17.954  0.00  0.00    +0.000 A 
ATOM     14  C   UNL     1       3.203   5.066  18.028  0.00  0.00    +0.000 A 
ATOM     15  C   UNL     1       3.950   4.101  17.348  0.00  0.00    +0.000 A 
BRANCH  10  16
ATOM     16  N   UNL     1       5.821   3.501  15.935  0.00  0.00    +0.000 N 
ATOM     17  H   UNL     1       6.493   3.080  16.568  0.00  0.00    +0.000 HD
ATOM     18  H   UNL     1       6.254   3.807  15.068  0.00  0.00    +0.000 HD
ENDBRANCH  10  16
ENDBRANCH   1  13
BRANCH   6  19
ATOM     19  N   UNL     1      -0.965  11.640  21.092  0.00  0.00    +0.000 N 
ATOM     20  H   UNL     1      -0.446  12.499  20.930  0.00  0.00    +0.000 HD
ATOM     21  H   UNL     1      -1.397  11.619  22.010  0.00  0.00    +0.000 HD
ENDBRANCH   6  19
TORSDOF 3
ENDMDL
MODEL 7
REMARK VINA RESULT:      -6.4      4.326      4.539
REMARK  Name = 
REMARK  3 active torsions:
REMARK  status: ('A' for Active; 'I' for Inactive)
REMARK    1  A    between atoms: N_1  and  C_2
REMARK    2  A    between atoms: C_5  and  C_6
REMARK    3  A    between atoms: C_11  and  N_12
REMARK                            x       y       z     vdW  Elec       q    Type
REMARK                         _______ _______ _______ _____ _____    ______ ____
ROOT
ATOM      1  C   UNL     1       3.245   6.774  18.112  0.00  0.00    +0.000 A 
ATOM      2  N   UNL     1       2.723   7.937  17.772  0.00  0.00    +0.000 NA
ATOM      3  C   UNL     1       1.981   8.459  18.810  0.00  0.00    +0.000 A 
ATOM      4  C   UNL     1       1.311   9.694  18.791  0.00  0.00    +0.000 A 
ATOM      5  C   UNL     1       0.593  10.106  19.917  0.00  0.00    +0.000 A 
ATOM      6  C   UNL     1       0.554   9.329  21.074  0.00  0.00    +0.000 A 
ATOM      7  C   UNL     1       1.165   8.066  21.081  0.00  0.00    +0.000 A 
ATOM      8  C   UNL     1       1.903   7.663  19.952  0.00  0.00    +0.000 A 
ATOM      9  S   UNL     1       2.811   6.222  19.684  0.00  0.00    +0.000 S 
ENDROOT
BRANCH   1  13
ATOM     10  C   UNL     1       5.536   4.367  15.387  0.00  0.00    +0.000 A 
ATOM     11  C   UNL     1       5.629   5.759  15.328  0.00  0.00    +0.000 A 
ATOM     12  C   UNL     1       4.904   6.570  16.215  0.00  0.00    +0.000 A 
ATOM     13  C   UNL     1       4.100   5.996  17.206  0.00  0.00    +0.000 A 
ATOM     14  C   UNL     1       4.069   4.596  17.303  0.00  0.00    +0.000 A 
ATOM     15  C   UNL     1       4.798   3.792  16.421  0.00  0.00    +0.000 A 
BRANCH  10  16
ATOM     16  N   UNL     1       6.340   3.565  14.570  0.00  0.00    +0.000 N 
ATOM     17  H   UNL     1       6.206   3.729  13.577  0.00  0.00    +0.000 HD
ATOM     18  H   UNL     1       6.298   2.577  14.801  0.00  0.00    +0.000 HD
ENDBRANCH  10  16
ENDBRANCH   1  13
BRANCH   6  19
ATOM     19  N   UNL     1      -0.283   9.708  22.132  0.00  0.00    +0.000 N 
ATOM     20  H   UNL     1      -0.364   9.005  22.862  0.00  0.00    +0.000 HD
ATOM     21  H   UNL     1      -1.187  10.065  21.840  0.00  0.00    +0.000 HD
ENDBRANCH   6  19
TORSDOF 3
ENDMDL
MODEL 8
REMARK VINA RESULT:      -6.3      4.688      6.102
REMARK  Name = 
REMARK  3 active torsions:
REMARK  status: ('A' for Active; 'I' for Inactive)
REMARK    1  A    between atoms: N_1  and  C_2
REMARK    2  A    between atoms: C_5  and  C_6
REMARK    3  A    between atoms: C_11  and  N_12
REMARK                            x       y       z     vdW  Elec       q    Type
REMARK                         _______ _______ _______ _____ _____    ______ ____
ROOT
ATOM      1  C   UNL     1       2.416   6.734  19.631  0.00  0.00    +0.000 A 
ATOM      2  N   UNL     1       1.933   5.832  20.464  0.00  0.00    +0.000 NA
ATOM      3  C   UNL     1       2.664   4.666  20.394  0.00  0.00    +0.000 A 
ATOM      4  C   UNL     1       2.432   3.514  21.165  0.00  0.00    +0.000 A 
ATOM      5  C   UNL     1       3.253   2.395  20.996  0.00  0.00    +0.000 A 
ATOM      6  C   UNL     1       4.319   2.410  20.098  0.00  0.00    +0.000 A 
ATOM      7  C   UNL     1       4.518   3.531  19.278  0.00  0.00    +0.000 A 
ATOM      8  C   UNL     1       3.702   4.662  19.465  0.00  0.00    +0.000 A 
ATOM      9  S   UNL     1       3.741   6.194  18.675  0.00  0.00    +0.000 S 
ENDROOT
BRANCH   1  13
ATOM     10  C   UNL     1       0.608  10.592  19.063  0.00  0.00    +0.000 A 
ATOM     11  C   UNL     1       0.565   9.985  20.319  0.00  0.00    +0.000 A 
ATOM     12  C   UNL     1       1.159   8.732  20.538  0.00  0.00    +0.000 A 
ATOM     13  C   UNL     1       1.845   8.082  19.506  0.00  0.00    +0.000 A 
ATOM     14  C   UNL     1       1.944   8.733  18.266  0.00  0.00    +0.000 A 
ATOM     15  C   UNL     1       1.356   9.983  18.055  0.00  0.00    +0.000 A 
BRANCH  10  16
ATOM     16  N   UNL     1       0.105  11.884  18.879  0.00  0.00    +0.000 N 
ATOM     17  H   UNL     1      -0.865  11.988  19.160  0.00  0.00    +0.000 HD
ATOM     18  H   UNL     1       0.275  12.258  17.950  0.00  0.00    +0.000 HD
ENDBRANCH  10  16
ENDBRANCH   1  13
BRANCH   6  19
ATOM     19  N   UNL     1       5.035   1.229  19.856  0.00  0.00    +0.000 N 
ATOM     20  H   UNL     1       4.476   0.489  19.441  0.00  0.00    +0.000 HD
ATOM     21  H   UNL     1       5.579   0.903  20.648  0.00  0.00    +0.000 HD
ENDBRANCH   6  19
TORSDOF 3
ENDMDL
MODEL 9
REMARK VINA RESULT:      -6.3      4.568      7.227
REMARK  Name = 
REMARK  3 active torsions:
REMARK  status: ('A' for Active; 'I' for Inactive)
REMARK    1  A    between atoms: N_1  and  C_2
REMARK    2  A    between atoms: C_5  and  C_6
REMARK    3  A    between atoms: C_11  and  N_12
REMARK                            x       y       z     vdW  Elec       q    Type
REMARK                         _______ _______ _______ _____ _____    ______ ____
ROOT
ATOM      1  C   UNL     1       2.690   7.195  18.658  0.00  0.00    +0.000 A 
ATOM      2  N   UNL     1       3.535   7.613  17.735  0.00  0.00    +0.000 NA
ATOM      3  C   UNL     1       4.169   6.546  17.137  0.00  0.00    +0.000 A 
ATOM      4  C   UNL     1       5.112   6.637  16.099  0.00  0.00    +0.000 A 
ATOM      5  C   UNL     1       5.680   5.470  15.579  0.00  0.00    +0.000 A 
ATOM      6  C   UNL     1       5.307   4.213  16.050  0.00  0.00    +0.000 A 
ATOM      7  C   UNL     1       4.416   4.114  17.130  0.00  0.00    +0.000 A 
ATOM      8  C   UNL     1       3.832   5.289  17.638  0.00  0.00    +0.000 A 
ATOM      9  S   UNL     1       2.668   5.490  18.894  0.00  0.00    +0.000 S 
ENDROOT
BRANCH   1  13
ATOM     10  C   UNL     1       0.075   9.859  20.788  0.00  0.00    +0.000 A 
ATOM     11  C   UNL     1       0.651   8.775  21.453  0.00  0.00    +0.000 A 
ATOM     12  C   UNL     1       1.520   7.897  20.787  0.00  0.00    +0.000 A 
ATOM     13  C   UNL     1       1.860   8.115  19.446  0.00  0.00    +0.000 A 
ATOM     14  C   UNL     1       1.332   9.248  18.808  0.00  0.00    +0.000 A 
ATOM     15  C   UNL     1       0.471  10.122  19.477  0.00  0.00    +0.000 A 
BRANCH  10  16
ATOM     16  N   UNL     1      -0.706  10.787  21.484  0.00  0.00    +0.000 N 
ATOM     17  H   UNL     1      -0.394  11.747  21.376  0.00  0.00    +0.000 HD
ATOM     18  H   UNL     1      -0.855  10.543  22.459  0.00  0.00    +0.000 HD
ENDBRANCH  10  16
ENDBRANCH   1  13
BRANCH   6  19
ATOM     19  N   UNL     1       5.993   3.076  15.602  0.00  0.00    +0.000 N 
ATOM     20  H   UNL     1       5.401   2.259  15.485  0.00  0.00    +0.000 HD
ATOM     21  H   UNL     1       6.838   2.867  16.125  0.00  0.00    +0.000 HD
ENDBRANCH   6  19
TORSDOF 3
ENDMDL
