MODEL 1
REMARK VINA RESULT:      -6.1      0.000      0.000
REMARK  Name = 
REMARK  6 active torsions:
REMARK  status: ('A' for Active; 'I' for Inactive)
REMARK    1  A    between atoms: C_1  and  C_2
REMARK    2  A    between atoms: C_2  and  O_3
REMARK    3  A    between atoms: O_3  and  C_4
REMARK    4  A    between atoms: C_4  and  C_6
REMARK    5  A    between atoms: C_10  and  O_11
REMARK    6  A    between atoms: C_12  and  O_13
REMARK                            x       y       z     vdW  Elec       q    Type
REMARK                         _______ _______ _______ _____ _____    ______ ____
ROOT
ATOM      1  C   UNL     1       6.384   5.234  15.801  0.00  0.00    +0.000 A 
ATOM      2  C   UNL     1       5.156   5.917  15.776  0.00  0.00    +0.000 A 
ATOM      3  C   UNL     1       4.503   6.242  16.969  0.00  0.00    +0.000 A 
ATOM      4  C   UNL     1       5.062   5.888  18.198  0.00  0.00    +0.000 A 
ATOM      5  C   UNL     1       6.271   5.205  18.218  0.00  0.00    +0.000 A 
ATOM      6  C   UNL     1       6.929   4.870  17.034  0.00  0.00    +0.000 A 
ENDROOT
BRANCH   1   7
ATOM      7  C   UNL     1       6.980   4.832  14.508  0.00  0.00    +0.000 C 
ATOM      8  O   UNL     1       7.942   5.401  14.012  0.00  0.00    +0.000 OA
BRANCH   7   9
ATOM      9  O   UNL     1       6.298   3.796  13.969  0.00  0.00    +0.000 OA
BRANCH   9  11
ATOM     10  C   UNL     1       5.069   3.282  11.979  0.00  0.00    +0.000 C 
ATOM     11  C   UNL     1       6.429   3.646  12.552  0.00  0.00    +0.000 C 
ENDBRANCH   9  11
ENDBRANCH   7   9
ENDBRANCH   1   7
BRANCH   5  12
ATOM     12  O   UNL     1       6.860   4.810  19.391  0.00  0.00    +0.000 OA
ATOM     13  H   UNL     1       6.190   4.360  19.929  0.00  0.00    +0.000 HD
ENDBRANCH   5  12
BRANCH   6  14
ATOM     14  O   UNL     1       8.078   4.135  17.143  0.00  0.00    +0.000 OA
ATOM     15  H   UNL     1       8.375   4.255  18.066  0.00  0.00    +0.000 HD
ENDBRANCH   6  14
TORSDOF 5
ENDMDL
MODEL 2
REMARK VINA RESULT:      -5.9      2.620      3.572
REMARK  Name = 
REMARK  6 active torsions:
REMARK  status: ('A' for Active; 'I' for Inactive)
REMARK    1  A    between atoms: C_1  and  C_2
REMARK    2  A    between atoms: C_2  and  O_3
REMARK    3  A    between atoms: O_3  and  C_4
REMARK    4  A    between atoms: C_4  and  C_6
REMARK    5  A    between atoms: C_10  and  O_11
REMARK    6  A    between atoms: C_12  and  O_13
REMARK                            x       y       z     vdW  Elec       q    Type
REMARK                         _______ _______ _______ _____ _____    ______ ____
ROOT
ATOM      1  C   UNL     1       6.034   5.519  17.321  0.00  0.00    +0.000 A 
ATOM      2  C   UNL     1       6.550   6.706  16.774  0.00  0.00    +0.000 A 
ATOM      3  C   UNL     1       7.552   7.416  17.443  0.00  0.00    +0.000 A 
ATOM      4  C   UNL     1       8.048   6.955  18.664  0.00  0.00    +0.000 A 
ATOM      5  C   UNL     1       7.529   5.787  19.205  0.00  0.00    +0.000 A 
ATOM      6  C   UNL     1       6.524   5.073  18.550  0.00  0.00    +0.000 A 
ENDROOT
BRANCH   1   7
ATOM      7  C   UNL     1       4.908   4.864  16.618  0.00  0.00    +0.000 C 
ATOM      8  O   UNL     1       5.030   4.316  15.532  0.00  0.00    +0.000 OA
BRANCH   7   9
ATOM      9  O   UNL     1       3.763   4.992  17.327  0.00  0.00    +0.000 OA
BRANCH   9  11
ATOM     10  C   UNL     1       1.538   4.217  17.752  0.00  0.00    +0.000 C 
ATOM     11  C   UNL     1       2.964   3.809  17.420  0.00  0.00    +0.000 C 
ENDBRANCH   9  11
ENDBRANCH   7   9
ENDBRANCH   1   7
BRANCH   5  12
ATOM     12  O   UNL     1       7.957   5.294  20.410  0.00  0.00    +0.000 OA
ATOM     13  H   UNL     1       7.655   5.896  21.108  0.00  0.00    +0.000 HD
ENDBRANCH   5  12
BRANCH   6  14
ATOM     14  O   UNL     1       6.020   3.972  19.188  0.00  0.00    +0.000 OA
ATOM     15  H   UNL     1       6.665   3.763  19.891  0.00  0.00    +0.000 HD
ENDBRANCH   6  14
TORSDOF 5
ENDMDL
MODEL 3
REMARK VINA RESULT:      -5.9      3.354      4.725
REMARK  Name = 
REMARK  6 active torsions:
REMARK  status: ('A' for Active; 'I' for Inactive)
REMARK    1  A    between atoms: C_1  and  C_2
REMARK    2  A    between atoms: C_2  and  O_3
REMARK    3  A    between atoms: O_3  and  C_4
REMARK    4  A    between atoms: C_4  and  C_6
REMARK    5  A    between atoms: C_10  and  O_11
REMARK    6  A    between atoms: C_12  and  O_13
REMARK                            x       y       z     vdW  Elec       q    Type
REMARK                         _______ _______ _______ _____ _____    ______ ____
ROOT
ATOM      1  C   UNL     1       4.257   4.547  18.568  0.00  0.00    +0.000 A 
ATOM      2  C   UNL     1       3.215   5.315  18.021  0.00  0.00    +0.000 A 
ATOM      3  C   UNL     1       1.968   4.736  17.764  0.00  0.00    +0.000 A 
ATOM      4  C   UNL     1       1.746   3.387  18.044  0.00  0.00    +0.000 A 
ATOM      5  C   UNL     1       2.781   2.629  18.575  0.00  0.00    +0.000 A 
ATOM      6  C   UNL     1       4.032   3.194  18.831  0.00  0.00    +0.000 A 
ENDROOT
BRANCH   1   7
ATOM      7  C   UNL     1       5.581   5.188  18.727  0.00  0.00    +0.000 C 
ATOM      8  O   UNL     1       6.422   4.790  19.520  0.00  0.00    +0.000 OA
BRANCH   7   9
ATOM      9  O   UNL     1       5.693   6.261  17.912  0.00  0.00    +0.000 OA
BRANCH   9  11
ATOM     10  C   UNL     1       7.659   7.596  17.609  0.00  0.00    +0.000 C 
ATOM     11  C   UNL     1       6.915   6.344  17.172  0.00  0.00    +0.000 C 
ENDBRANCH   9  11
ENDBRANCH   7   9
ENDBRANCH   1   7
BRANCH   5  12
ATOM     12  O   UNL     1       2.634   1.294  18.851  0.00  0.00    +0.000 OA
ATOM     13  H   UNL     1       2.731   0.802  18.021  0.00  0.00    +0.000 HD
ENDBRANCH   5  12
BRANCH   6  14
ATOM     14  O   UNL     1       5.015   2.360  19.287  0.00  0.00    +0.000 OA
ATOM     15  H   UNL     1       5.131   1.689  18.586  0.00  0.00    +0.000 HD
ENDBRANCH   6  14
TORSDOF 5
ENDMDL
MODEL 4
REMARK VINA RESULT:      -5.8      3.900      5.462
REMARK  Name = 
REMARK  6 active torsions:
REMARK  status: ('A' for Active; 'I' for Inactive)
REMARK    1  A    between atoms: C_1  and  C_2
REMARK    2  A    between atoms: C_2  and  O_3
REMARK    3  A    between atoms: O_3  and  C_4
REMARK    4  A    between atoms: C_4  and  C_6
REMARK    5  A    between atoms: C_10  and  O_11
REMARK    6  A    between atoms: C_12  and  O_13
REMARK                            x       y       z     vdW  Elec       q    Type
REMARK                         _______ _______ _______ _____ _____    ______ ____
ROOT
ATOM      1  C   UNL     1       3.517   3.727  18.312  0.00  0.00    +0.000 A 
ATOM      2  C   UNL     1       3.039   4.879  17.666  0.00  0.00    +0.000 A 
ATOM      3  C   UNL     1       3.779   6.066  17.697  0.00  0.00    +0.000 A 
ATOM      4  C   UNL     1       4.998   6.120  18.375  0.00  0.00    +0.000 A 
ATOM      5  C   UNL     1       5.461   4.981  19.021  0.00  0.00    +0.000 A 
ATOM      6  C   UNL     1       4.729   3.792  19.001  0.00  0.00    +0.000 A 
ENDROOT
BRANCH   1   7
ATOM      7  C   UNL     1       2.647   2.530  18.328  0.00  0.00    +0.000 C 
ATOM      8  O   UNL     1       2.165   2.044  17.314  0.00  0.00    +0.000 OA
BRANCH   7   9
ATOM      9  O   UNL     1       2.452   2.097  19.594  0.00  0.00    +0.000 OA
BRANCH   9  11
ATOM     10  C   UNL     1       1.999   3.252  21.643  0.00  0.00    +0.000 C 
ATOM     11  C   UNL     1       1.421   2.773  20.321  0.00  0.00    +0.000 C 
ENDBRANCH   9  11
ENDBRANCH   7   9
ENDBRANCH   1   7
BRANCH   5  12
ATOM     12  O   UNL     1       6.639   4.975  19.722  0.00  0.00    +0.000 OA
ATOM     13  H   UNL     1       7.248   5.597  19.295  0.00  0.00    +0.000 HD
ENDBRANCH   5  12
BRANCH   6  14
ATOM     14  O   UNL     1       5.224   2.740  19.723  0.00  0.00    +0.000 OA
ATOM     15  H   UNL     1       6.196   2.829  19.675  0.00  0.00    +0.000 HD
ENDBRANCH   6  14
TORSDOF 5
ENDMDL
MODEL 5
REMARK VINA RESULT:      -5.8      1.241      1.283
REMARK  Name = 
REMARK  6 active torsions:
REMARK  status: ('A' for Active; 'I' for Inactive)
REMARK    1  A    between atoms: C_1  and  C_2
REMARK    2  A    between atoms: C_2  and  O_3
REMARK    3  A    between atoms: O_3  and  C_4
REMARK    4  A    between atoms: C_4  and  C_6
REMARK    5  A    between atoms: C_10  and  O_11
REMARK    6  A    between atoms: C_12  and  O_13
REMARK                            x       y       z     vdW  Elec       q    Type
REMARK                         _______ _______ _______ _____ _____    ______ ____
ROOT
ATOM      1  C   UNL     1       5.886   4.619  16.353  0.00  0.00    +0.000 A 
ATOM      2  C   UNL     1       4.650   3.969  16.506  0.00  0.00    +0.000 A 
ATOM      3  C   UNL     1       4.106   3.775  17.780  0.00  0.00    +0.000 A 
ATOM      4  C   UNL     1       4.786   4.222  18.913  0.00  0.00    +0.000 A 
ATOM      5  C   UNL     1       6.012   4.856  18.758  0.00  0.00    +0.000 A 
ATOM      6  C   UNL     1       6.568   5.050  17.493  0.00  0.00    +0.000 A 
ENDROOT
BRANCH   1   7
ATOM      7  C   UNL     1       6.459   4.709  14.991  0.00  0.00    +0.000 C 
ATOM      8  O   UNL     1       7.505   5.292  14.746  0.00  0.00    +0.000 OA
BRANCH   7   9
ATOM      9  O   UNL     1       5.654   4.095  14.094  0.00  0.00    +0.000 OA
BRANCH   9  11
ATOM     10  C   UNL     1       5.223   3.204  11.913  0.00  0.00    +0.000 C 
ATOM     11  C   UNL     1       6.293   3.676  12.884  0.00  0.00    +0.000 C 
ENDBRANCH   9  11
ENDBRANCH   7   9
ENDBRANCH   1   7
BRANCH   5  12
ATOM     12  O   UNL     1       6.739   5.299  19.832  0.00  0.00    +0.000 OA
ATOM     13  H   UNL     1       6.135   5.746  20.444  0.00  0.00    +0.000 HD
ENDBRANCH   5  12
BRANCH   6  14
ATOM     14  O   UNL     1       7.811   5.619  17.436  0.00  0.00    +0.000 OA
ATOM     15  H   UNL     1       7.989   5.942  18.340  0.00  0.00    +0.000 HD
ENDBRANCH   6  14
TORSDOF 5
ENDMDL
MODEL 6
REMARK VINA RESULT:      -5.8      2.873      3.721
REMARK  Name = 
REMARK  6 active torsions:
REMARK  status: ('A' for Active; 'I' for Inactive)
REMARK    1  A    between atoms: C_1  and  C_2
REMARK    2  A    between atoms: C_2  and  O_3
REMARK    3  A    between atoms: O_3  and  C_4
REMARK    4  A    between atoms: C_4  and  C_6
REMARK    5  A    between atoms: C_10  and  O_11
REMARK    6  A    between atoms: C_12  and  O_13
REMARK                            x       y       z     vdW  Elec       q    Type
REMARK                         _______ _______ _______ _____ _____    ______ ____
ROOT
ATOM      1  C   UNL     1       3.907   4.656  17.938  0.00  0.00    +0.000 A 
ATOM      2  C   UNL     1       2.561   4.344  17.684  0.00  0.00    +0.000 A 
ATOM      3  C   UNL     1       2.006   3.155  18.168  0.00  0.00    +0.000 A 
ATOM      4  C   UNL     1       2.785   2.263  18.906  0.00  0.00    +0.000 A 
ATOM      5  C   UNL     1       4.117   2.570  19.148  0.00  0.00    +0.000 A 
ATOM      6  C   UNL     1       4.684   3.751  18.665  0.00  0.00    +0.000 A 
ENDROOT
BRANCH   1   7
ATOM      7  C   UNL     1       4.465   5.879  17.319  0.00  0.00    +0.000 C 
ATOM      8  O   UNL     1       3.903   6.963  17.363  0.00  0.00    +0.000 OA
BRANCH   7   9
ATOM      9  O   UNL     1       5.633   5.607  16.695  0.00  0.00    +0.000 OA
BRANCH   9  11
ATOM     10  C   UNL     1       5.977   4.040  14.916  0.00  0.00    +0.000 C 
ATOM     11  C   UNL     1       5.548   5.454  15.275  0.00  0.00    +0.000 C 
ENDBRANCH   9  11
ENDBRANCH   7   9
ENDBRANCH   1   7
BRANCH   5  12
ATOM     12  O   UNL     1       4.940   1.725  19.846  0.00  0.00    +0.000 OA
ATOM     13  H   UNL     1       5.234   1.024  19.245  0.00  0.00    +0.000 HD
ENDBRANCH   5  12
BRANCH   6  14
ATOM     14  O   UNL     1       6.021   3.941  18.887  0.00  0.00    +0.000 OA
ATOM     15  H   UNL     1       6.389   3.046  19.024  0.00  0.00    +0.000 HD
ENDBRANCH   6  14
TORSDOF 5
ENDMDL
MODEL 7
REMARK VINA RESULT:      -5.7      3.641      5.700
REMARK  Name = 
REMARK  6 active torsions:
REMARK  status: ('A' for Active; 'I' for Inactive)
REMARK    1  A    between atoms: C_1  and  C_2
REMARK    2  A    between atoms: C_2  and  O_3
REMARK    3  A    between atoms: O_3  and  C_4
REMARK    4  A    between atoms: C_4  and  C_6
REMARK    5  A    between atoms: C_10  and  O_11
REMARK    6  A    between atoms: C_12  and  O_13
REMARK                            x       y       z     vdW  Elec       q    Type
REMARK                         _______ _______ _______ _____ _____    ______ ____
ROOT
ATOM      1  C   UNL     1       3.063   4.274  18.238  0.00  0.00    +0.000 A 
ATOM      2  C   UNL     1       2.869   5.628  17.918  0.00  0.00    +0.000 A 
ATOM      3  C   UNL     1       3.965   6.475  17.728  0.00  0.00    +0.000 A 
ATOM      4  C   UNL     1       5.266   5.985  17.859  0.00  0.00    +0.000 A 
ATOM      5  C   UNL     1       5.454   4.649  18.184  0.00  0.00    +0.000 A 
ATOM      6  C   UNL     1       4.367   3.795  18.382  0.00  0.00    +0.000 A 
ENDROOT
BRANCH   1   7
ATOM      7  C   UNL     1       1.868   3.449  18.523  0.00  0.00    +0.000 C 
ATOM      8  O   UNL     1       1.558   2.473  17.856  0.00  0.00    +0.000 OA
BRANCH   7   9
ATOM      9  O   UNL     1       1.184   3.949  19.577  0.00  0.00    +0.000 OA
BRANCH   9  11
ATOM     10  C   UNL     1       2.150   3.353  21.686  0.00  0.00    +0.000 C 
ATOM     11  C   UNL     1       1.039   3.063  20.690  0.00  0.00    +0.000 C 
ENDBRANCH   9  11
ENDBRANCH   7   9
ENDBRANCH   1   7
BRANCH   5  12
ATOM     12  O   UNL     1       6.704   4.112  18.348  0.00  0.00    +0.000 OA
ATOM     13  H   UNL     1       6.631   3.148  18.284  0.00  0.00    +0.000 HD
ENDBRANCH   5  12
BRANCH   6  14
ATOM     14  O   UNL     1       4.642   2.511  18.770  0.00  0.00    +0.000 OA
ATOM     15  H   UNL     1       3.804   2.023  18.656  0.00  0.00    +0.000 HD
ENDBRANCH   6  14
TORSDOF 5
ENDMDL
MODEL 8
REMARK VINA RESULT:      -5.7      1.980      2.678
REMARK  Name = 
REMARK  6 active torsions:
REMARK  status: ('A' for Active; 'I' for Inactive)
REMARK    1  A    between atoms: C_1  and  C_2
REMARK    2  A    between atoms: C_2  and  O_3
REMARK    3  A    between atoms: O_3  and  C_4
REMARK    4  A    between atoms: C_4  and  C_6
REMARK    5  A    between atoms: C_10  and  O_11
REMARK    6  A    between atoms: C_12  and  O_13
REMARK                            x       y       z     vdW  Elec       q    Type
REMARK                         _______ _______ _______ _____ _____    ______ ____
ROOT
ATOM      1  C   UNL     1       5.116   5.754  17.615  0.00  0.00    +0.000 A 
ATOM      2  C   UNL     1       3.772   6.140  17.749  0.00  0.00    +0.000 A 
ATOM      3  C   UNL     1       2.901   5.400  18.556  0.00  0.00    +0.000 A 
ATOM      4  C   UNL     1       3.356   4.267  19.231  0.00  0.00    +0.000 A 
ATOM      5  C   UNL     1       4.684   3.884  19.089  0.00  0.00    +0.000 A 
ATOM      6  C   UNL     1       5.561   4.611  18.283  0.00  0.00    +0.000 A 
ENDROOT
BRANCH   1   7
ATOM      7  C   UNL     1       5.966   6.517  16.674  0.00  0.00    +0.000 C 
ATOM      8  O   UNL     1       6.934   7.172  17.032  0.00  0.00    +0.000 OA
BRANCH   7   9
ATOM      9  O   UNL     1       5.498   6.405  15.410  0.00  0.00    +0.000 OA
BRANCH   9  11
ATOM     10  C   UNL     1       7.002   4.800  14.462  0.00  0.00    +0.000 C 
ATOM     11  C   UNL     1       5.561   5.091  14.847  0.00  0.00    +0.000 C 
ENDBRANCH   9  11
ENDBRANCH   7   9
ENDBRANCH   1   7
BRANCH   5  12
ATOM     12  O   UNL     1       5.186   2.770  19.708  0.00  0.00    +0.000 OA
ATOM     13  H   UNL     1       5.950   3.039  20.242  0.00  0.00    +0.000 HD
ENDBRANCH   5  12
BRANCH   6  14
ATOM     14  O   UNL     1       6.832   4.124  18.141  0.00  0.00    +0.000 OA
ATOM     15  H   UNL     1       7.348   4.856  17.752  0.00  0.00    +0.000 HD
ENDBRANCH   6  14
TORSDOF 5
ENDMDL
MODEL 9
REMARK VINA RESULT:      -5.7      3.140      4.014
REMARK  Name = 
REMARK  6 active torsions:
REMARK  status: ('A' for Active; 'I' for Inactive)
REMARK    1  A    between atoms: C_1  and  C_2
REMARK    2  A    between atoms: C_2  and  O_3
REMARK    3  A    between atoms: O_3  and  C_4
REMARK    4  A    between atoms: C_4  and  C_6
REMARK    5  A    between atoms: C_10  and  O_11
REMARK    6  A    between atoms: C_12  and  O_13
REMARK                            x       y       z     vdW  Elec       q    Type
REMARK                         _______ _______ _______ _____ _____    ______ ____
ROOT
ATOM      1  C   UNL     1       4.138   4.166  18.000  0.00  0.00    +0.000 A 
ATOM      2  C   UNL     1       3.276   5.264  17.839  0.00  0.00    +0.000 A 
ATOM      3  C   UNL     1       1.890   5.093  17.913  0.00  0.00    +0.000 A 
ATOM      4  C   UNL     1       1.347   3.827  18.141  0.00  0.00    +0.000 A 
ATOM      5  C   UNL     1       2.202   2.743  18.290  0.00  0.00    +0.000 A 
ATOM      6  C   UNL     1       3.587   2.901  18.214  0.00  0.00    +0.000 A 
ENDROOT
BRANCH   1   7
ATOM      7  C   UNL     1       5.589   4.391  17.816  0.00  0.00    +0.000 C 
ATOM      8  O   UNL     1       6.408   4.218  18.707  0.00  0.00    +0.000 OA
BRANCH   7   9
ATOM      9  O   UNL     1       5.849   4.831  16.564  0.00  0.00    +0.000 OA
BRANCH   9  11
ATOM     10  C   UNL     1       6.500   4.461  14.288  0.00  0.00    +0.000 C 
ATOM     11  C   UNL     1       6.035   3.808  15.580  0.00  0.00    +0.000 C 
ENDBRANCH   9  11
ENDBRANCH   7   9
ENDBRANCH   1   7
BRANCH   5  12
ATOM     12  O   UNL     1       1.731   1.473  18.495  0.00  0.00    +0.000 OA
ATOM     13  H   UNL     1       0.852   1.537  18.898  0.00  0.00    +0.000 HD
ENDBRANCH   5  12
BRANCH   6  14
ATOM     14  O   UNL     1       4.352   1.770  18.300  0.00  0.00    +0.000 OA
ATOM     15  H   UNL     1       4.450   1.454  17.381  0.00  0.00    +0.000 HD
ENDBRANCH   6  14
TORSDOF 5
ENDMDL
