MODEL 1
REMARK VINA RESULT:      -6.9      0.000      0.000
REMARK  Name = 
REMARK  15 active torsions:
REMARK  status: ('A' for Active; 'I' for Inactive)
REMARK    1  A    between atoms: C_1  and  C_2
REMARK    2  A    between atoms: C_2  and  C_3
REMARK    3  A    between atoms: C_8  and  C_9
REMARK    4  A    between atoms: C_15  and  C_16
REMARK    5  A    between atoms: C_22  and  N_23
REMARK    6  A    between atoms: N_23  and  C_24
REMARK    7  A    between atoms: N_23  and  C_29
REMARK    8  A    between atoms: C_24  and  C_25
REMARK    9  A    between atoms: C_25  and  C_26
REMARK   10  A    between atoms: C_26  and  C_27
REMARK   11  A    between atoms: C_26  and  C_28
REMARK   12  A    between atoms: C_29  and  C_30
REMARK   13  A    between atoms: C_30  and  N_31
REMARK   14  A    between atoms: N_31  and  C_32
REMARK   15  A    between atoms: N_31  and  C_33
REMARK                            x       y       z     vdW  Elec       q    Type
REMARK                         _______ _______ _______ _____ _____    ______ ____
ROOT
ATOM      1  C   UNL     1      -1.094  11.930  22.296  0.00  0.00    +0.000 A 
ATOM      2  N   UNL     1      -0.622  10.922  23.090  0.00  0.00    +0.000 NA
ATOM      3  C   UNL     1       0.064  10.154  22.305  0.00  0.00    +0.000 A 
ATOM      4  C   UNL     1       1.053   9.218  22.666  0.00  0.00    +0.000 A 
ATOM      5  C   UNL     1       1.721   8.565  21.705  0.00  0.00    +0.000 A 
ATOM      6  C   UNL     1       1.327   8.663  20.310  0.00  0.00    +0.000 A 
ATOM      7  C   UNL     1       0.473   9.662  19.964  0.00  0.00    +0.000 A 
ATOM      8  N   UNL     1      -0.147  10.447  20.956  0.00  0.00    +0.000 N 
ATOM      9  C   UNL     1      -0.957  11.619  20.931  0.00  0.00    +0.000 A 
ENDROOT
BRANCH   6  10
ATOM     10  C   UNL     1       1.971   7.823  19.248  0.00  0.00    +0.000 C 
ATOM     11  O   UNL     1       2.447   8.373  18.254  0.00  0.00    +0.000 OA
ATOM     12  N   UNL     1       2.064   6.447  19.430  0.00  0.00    +0.000 N 
ATOM     13  C   UNL     1       3.011   5.690  18.607  0.00  0.00    +0.000 C 
ATOM     14  C   UNL     1       3.954   4.856  19.495  0.00  0.00    +0.000 C 
ATOM     15  N   UNL     1       3.211   4.027  20.464  0.00  0.00    +0.000 N 
ATOM     16  C   UNL     1       3.524   2.739  20.859  0.00  0.00    +0.000 C 
ATOM     17  C   UNL     1       4.638   1.991  20.173  0.00  0.00    +0.000 C 
ATOM     18  O   UNL     1       2.888   2.162  21.746  0.00  0.00    +0.000 OA
ATOM     19  C   UNL     1       2.195   4.756  21.239  0.00  0.00    +0.000 C 
ATOM     20  C   UNL     1       1.271   5.578  20.321  0.00  0.00    +0.000 C 
ENDBRANCH   6  10
BRANCH   1  22
ATOM     21  C   UNL     1      -3.008  12.813  23.644  0.00  0.00    +0.000 C 
ATOM     22  C   UNL     1      -1.592  13.098  23.095  0.00  0.00    +0.000 C 
ENDBRANCH   1  22
BRANCH   9  23
ATOM     23  N   UNL     1      -1.336  12.261  19.745  0.00  0.00    +0.000 N 
BRANCH  23  24
ATOM     24  C   UNL     1      -2.528  11.840  18.987  0.00  0.00    +0.000 C 
BRANCH  24  25
ATOM     25  C   UNL     1      -2.234  11.244  17.603  0.00  0.00    +0.000 C 
BRANCH  25  26
ATOM     26  C   UNL     1      -3.383  10.546  16.845  0.00  0.00    +0.000 C 
ATOM     27  C   UNL     1      -4.555  11.467  16.497  0.00  0.00    +0.000 C 
ATOM     28  C   UNL     1      -2.820   9.951  15.546  0.00  0.00    +0.000 C 
ENDBRANCH  25  26
ENDBRANCH  24  25
ENDBRANCH  23  24
BRANCH  23  29
ATOM     29  C   UNL     1      -0.329  12.976  18.905  0.00  0.00    +0.000 C 
BRANCH  29  30
ATOM     30  C   UNL     1       0.696  13.833  19.688  0.00  0.00    +0.000 C 
BRANCH  30  31
ATOM     31  N   UNL     1       1.083  15.097  19.003  0.00  0.00    +0.000 NA
ATOM     32  C   UNL     1      -0.069  15.967  18.744  0.00  0.00    +0.000 C 
ATOM     33  C   UNL     1       2.066  15.830  19.809  0.00  0.00    +0.000 C 
ENDBRANCH  30  31
ENDBRANCH  29  30
ENDBRANCH  23  29
ENDBRANCH   9  23
TORSDOF 9
ENDMDL
MODEL 2
REMARK VINA RESULT:      -6.9      3.457      9.093
REMARK  Name = 
REMARK  15 active torsions:
REMARK  status: ('A' for Active; 'I' for Inactive)
REMARK    1  A    between atoms: C_1  and  C_2
REMARK    2  A    between atoms: C_2  and  C_3
REMARK    3  A    between atoms: C_8  and  C_9
REMARK    4  A    between atoms: C_15  and  C_16
REMARK    5  A    between atoms: C_22  and  N_23
REMARK    6  A    between atoms: N_23  and  C_24
REMARK    7  A    between atoms: N_23  and  C_29
REMARK    8  A    between atoms: C_24  and  C_25
REMARK    9  A    between atoms: C_25  and  C_26
REMARK   10  A    between atoms: C_26  and  C_27
REMARK   11  A    between atoms: C_26  and  C_28
REMARK   12  A    between atoms: C_29  and  C_30
REMARK   13  A    between atoms: C_30  and  N_31
REMARK   14  A    between atoms: N_31  and  C_32
REMARK   15  A    between atoms: N_31  and  C_33
REMARK                            x       y       z     vdW  Elec       q    Type
REMARK                         _______ _______ _______ _____ _____    ______ ____
ROOT
ATOM      1  C   UNL     1       4.064   3.991  19.004  0.00  0.00    +0.000 A 
ATOM      2  N   UNL     1       3.379   4.334  20.136  0.00  0.00    +0.000 NA
ATOM      3  C   UNL     1       2.868   5.498  19.893  0.00  0.00    +0.000 A 
ATOM      4  C   UNL     1       1.785   6.116  20.548  0.00  0.00    +0.000 A 
ATOM      5  C   UNL     1       1.337   7.299  20.105  0.00  0.00    +0.000 A 
ATOM      6  C   UNL     1       2.053   8.044  19.083  0.00  0.00    +0.000 A 
ATOM      7  C   UNL     1       3.004   7.384  18.370  0.00  0.00    +0.000 A 
ATOM      8  N   UNL     1       3.402   6.085  18.745  0.00  0.00    +0.000 N 
ATOM      9  C   UNL     1       4.241   5.096  18.152  0.00  0.00    +0.000 A 
ENDROOT
BRANCH   6  10
ATOM     10  C   UNL     1       1.646   9.432  18.688  0.00  0.00    +0.000 C 
ATOM     11  O   UNL     1       1.792   9.789  17.518  0.00  0.00    +0.000 OA
ATOM     12  N   UNL     1       1.065  10.268  19.635  0.00  0.00    +0.000 N 
ATOM     13  C   UNL     1       0.327  11.448  19.175  0.00  0.00    +0.000 C 
ATOM     14  C   UNL     1      -1.096  11.462  19.765  0.00  0.00    +0.000 C 
ATOM     15  N   UNL     1      -1.088  11.297  21.231  0.00  0.00    +0.000 N 
ATOM     16  C   UNL     1      -1.915  11.935  22.138  0.00  0.00    +0.000 C 
ATOM     17  C   UNL     1      -2.848  13.023  21.669  0.00  0.00    +0.000 C 
ATOM     18  O   UNL     1      -1.889  11.662  23.342  0.00  0.00    +0.000 OA
ATOM     19  C   UNL     1      -0.280  10.166  21.715  0.00  0.00    +0.000 C 
ATOM     20  C   UNL     1       1.134  10.184  21.106  0.00  0.00    +0.000 C 
ENDBRANCH   6  10
BRANCH   1  22
ATOM     21  C   UNL     1       3.194   1.704  18.476  0.00  0.00    +0.000 C 
ATOM     22  C   UNL     1       4.405   2.531  18.966  0.00  0.00    +0.000 C 
ENDBRANCH   1  22
BRANCH   9  23
ATOM     23  N   UNL     1       4.914   5.292  16.940  0.00  0.00    +0.000 N 
BRANCH  23  24
ATOM     24  C   UNL     1       5.639   4.194  16.274  0.00  0.00    +0.000 C 
BRANCH  24  25
ATOM     25  C   UNL     1       5.264   3.975  14.801  0.00  0.00    +0.000 C 
BRANCH  25  26
ATOM     26  C   UNL     1       6.397   3.718  13.786  0.00  0.00    +0.000 C 
ATOM     27  C   UNL     1       5.910   3.423  12.365  0.00  0.00    +0.000 C 
ATOM     28  C   UNL     1       7.308   4.955  13.748  0.00  0.00    +0.000 C 
ENDBRANCH  25  26
ENDBRANCH  24  25
ENDBRANCH  23  24
BRANCH  23  29
ATOM     29  C   UNL     1       5.412   6.644  16.548  0.00  0.00    +0.000 C 
BRANCH  29  30
ATOM     30  C   UNL     1       6.935   6.866  16.728  0.00  0.00    +0.000 C 
BRANCH  30  31
ATOM     31  N   UNL     1       7.328   7.305  18.095  0.00  0.00    +0.000 NA
ATOM     32  C   UNL     1       7.928   6.222  18.879  0.00  0.00    +0.000 C 
ATOM     33  C   UNL     1       8.278   8.422  18.014  0.00  0.00    +0.000 C 
ENDBRANCH  30  31
ENDBRANCH  29  30
ENDBRANCH  23  29
ENDBRANCH   9  23
TORSDOF 9
ENDMDL
MODEL 3
REMARK VINA RESULT:      -6.8      3.402      9.475
REMARK  Name = 
REMARK  15 active torsions:
REMARK  status: ('A' for Active; 'I' for Inactive)
REMARK    1  A    between atoms: C_1  and  C_2
REMARK    2  A    between atoms: C_2  and  C_3
REMARK    3  A    between atoms: C_8  and  C_9
REMARK    4  A    between atoms: C_15  and  C_16
REMARK    5  A    between atoms: C_22  and  N_23
REMARK    6  A    between atoms: N_23  and  C_24
REMARK    7  A    between atoms: N_23  and  C_29
REMARK    8  A    between atoms: C_24  and  C_25
REMARK    9  A    between atoms: C_25  and  C_26
REMARK   10  A    between atoms: C_26  and  C_27
REMARK   11  A    between atoms: C_26  and  C_28
REMARK   12  A    between atoms: C_29  and  C_30
REMARK   13  A    between atoms: C_30  and  N_31
REMARK   14  A    between atoms: N_31  and  C_32
REMARK   15  A    between atoms: N_31  and  C_33
REMARK                            x       y       z     vdW  Elec       q    Type
REMARK                         _______ _______ _______ _____ _____    ______ ____
ROOT
ATOM      1  C   UNL     1       4.018   3.831  19.262  0.00  0.00    +0.000 A 
ATOM      2  N   UNL     1       3.241   4.195  20.327  0.00  0.00    +0.000 NA
ATOM      3  C   UNL     1       2.774   5.365  20.030  0.00  0.00    +0.000 A 
ATOM      4  C   UNL     1       1.649   6.007  20.582  0.00  0.00    +0.000 A 
ATOM      5  C   UNL     1       1.262   7.193  20.092  0.00  0.00    +0.000 A 
ATOM      6  C   UNL     1       2.079   7.917  19.132  0.00  0.00    +0.000 A 
ATOM      7  C   UNL     1       3.078   7.234  18.512  0.00  0.00    +0.000 A 
ATOM      8  N   UNL     1       3.419   5.933  18.930  0.00  0.00    +0.000 N 
ATOM      9  C   UNL     1       4.290   4.925  18.422  0.00  0.00    +0.000 A 
ENDROOT
BRANCH   6  10
ATOM     10  C   UNL     1       1.732   9.308  18.692  0.00  0.00    +0.000 C 
ATOM     11  O   UNL     1       1.942   9.636  17.523  0.00  0.00    +0.000 OA
ATOM     12  N   UNL     1       1.135  10.180  19.596  0.00  0.00    +0.000 N 
ATOM     13  C   UNL     1       0.455  11.372  19.080  0.00  0.00    +0.000 C 
ATOM     14  C   UNL     1      -0.992  11.439  19.603  0.00  0.00    +0.000 C 
ATOM     15  N   UNL     1      -1.055  11.305  21.070  0.00  0.00    +0.000 N 
ATOM     16  C   UNL     1      -1.903  11.986  21.926  0.00  0.00    +0.000 C 
ATOM     17  C   UNL     1      -2.780  13.091  21.394  0.00  0.00    +0.000 C 
ATOM     18  O   UNL     1      -1.940  11.737  23.135  0.00  0.00    +0.000 OA
ATOM     19  C   UNL     1      -0.306  10.161  21.613  0.00  0.00    +0.000 C 
ATOM     20  C   UNL     1       1.135  10.124  21.070  0.00  0.00    +0.000 C 
ENDBRANCH   6  10
BRANCH   1  22
ATOM     21  C   UNL     1       3.337   1.591  18.376  0.00  0.00    +0.000 C 
ATOM     22  C   UNL     1       4.336   2.364  19.266  0.00  0.00    +0.000 C 
ENDBRANCH   1  22
BRANCH   9  23
ATOM     23  N   UNL     1       5.072   5.098  17.274  0.00  0.00    +0.000 N 
BRANCH  23  24
ATOM     24  C   UNL     1       5.214   6.417  16.628  0.00  0.00    +0.000 C 
BRANCH  24  25
ATOM     25  C   UNL     1       6.620   7.028  16.714  0.00  0.00    +0.000 C 
BRANCH  25  26
ATOM     26  C   UNL     1       7.202   7.335  18.109  0.00  0.00    +0.000 C 
ATOM     27  C   UNL     1       7.903   6.147  18.772  0.00  0.00    +0.000 C 
ATOM     28  C   UNL     1       8.208   8.489  17.974  0.00  0.00    +0.000 C 
ENDBRANCH  25  26
ENDBRANCH  24  25
ENDBRANCH  23  24
BRANCH  23  29
ATOM     29  C   UNL     1       5.330   3.960  16.342  0.00  0.00    +0.000 C 
BRANCH  29  30
ATOM     30  C   UNL     1       5.177   4.290  14.836  0.00  0.00    +0.000 C 
BRANCH  30  31
ATOM     31  N   UNL     1       6.311   3.824  13.993  0.00  0.00    +0.000 NA
ATOM     32  C   UNL     1       5.888   3.467  12.635  0.00  0.00    +0.000 C 
ATOM     33  C   UNL     1       7.345   4.864  13.914  0.00  0.00    +0.000 C 
ENDBRANCH  30  31
ENDBRANCH  29  30
ENDBRANCH  23  29
ENDBRANCH   9  23
TORSDOF 9
ENDMDL
MODEL 4
REMARK VINA RESULT:      -6.8      3.321      9.148
REMARK  Name = 
REMARK  15 active torsions:
REMARK  status: ('A' for Active; 'I' for Inactive)
REMARK    1  A    between atoms: C_1  and  C_2
REMARK    2  A    between atoms: C_2  and  C_3
REMARK    3  A    between atoms: C_8  and  C_9
REMARK    4  A    between atoms: C_15  and  C_16
REMARK    5  A    between atoms: C_22  and  N_23
REMARK    6  A    between atoms: N_23  and  C_24
REMARK    7  A    between atoms: N_23  and  C_29
REMARK    8  A    between atoms: C_24  and  C_25
REMARK    9  A    between atoms: C_25  and  C_26
REMARK   10  A    between atoms: C_26  and  C_27
REMARK   11  A    between atoms: C_26  and  C_28
REMARK   12  A    between atoms: C_29  and  C_30
REMARK   13  A    between atoms: C_30  and  N_31
REMARK   14  A    between atoms: N_31  and  C_32
REMARK   15  A    between atoms: N_31  and  C_33
REMARK                            x       y       z     vdW  Elec       q    Type
REMARK                         _______ _______ _______ _____ _____    ______ ____
ROOT
ATOM      1  C   UNL     1       4.207   3.365  19.517  0.00  0.00    +0.000 A 
ATOM      2  N   UNL     1       3.390   3.761  20.540  0.00  0.00    +0.000 NA
ATOM      3  C   UNL     1       2.922   4.914  20.182  0.00  0.00    +0.000 A 
ATOM      4  C   UNL     1       1.772   5.564  20.671  0.00  0.00    +0.000 A 
ATOM      5  C   UNL     1       1.391   6.726  20.122  0.00  0.00    +0.000 A 
ATOM      6  C   UNL     1       2.233   7.421  19.163  0.00  0.00    +0.000 A 
ATOM      7  C   UNL     1       3.259   6.727  18.603  0.00  0.00    +0.000 A 
ATOM      8  N   UNL     1       3.598   5.446  19.083  0.00  0.00    +0.000 N 
ATOM      9  C   UNL     1       4.496   4.429  18.644  0.00  0.00    +0.000 A 
ENDROOT
BRANCH   6  10
ATOM     10  C   UNL     1       1.887   8.790  18.658  0.00  0.00    +0.000 C 
ATOM     11  O   UNL     1       2.043   9.045  17.462  0.00  0.00    +0.000 OA
ATOM     12  N   UNL     1       1.351   9.726  19.535  0.00  0.00    +0.000 N 
ATOM     13  C   UNL     1       0.666  10.898  18.983  0.00  0.00    +0.000 C 
ATOM     14  C   UNL     1      -0.752  11.025  19.572  0.00  0.00    +0.000 C 
ATOM     15  N   UNL     1      -0.744  10.979  21.046  0.00  0.00    +0.000 N 
ATOM     16  C   UNL     1      -1.536  11.726  21.900  0.00  0.00    +0.000 C 
ATOM     17  C   UNL     1      -2.420  12.814  21.346  0.00  0.00    +0.000 C 
ATOM     18  O   UNL     1      -1.516  11.550  23.122  0.00  0.00    +0.000 OA
ATOM     19  C   UNL     1       0.013   9.854  21.619  0.00  0.00    +0.000 C 
ATOM     20  C   UNL     1       1.424   9.758  21.008  0.00  0.00    +0.000 C 
ENDBRANCH   6  10
BRANCH   1  22
ATOM     21  C   UNL     1       3.737   1.114  18.529  0.00  0.00    +0.000 C 
ATOM     22  C   UNL     1       4.539   1.904  19.588  0.00  0.00    +0.000 C 
ENDBRANCH   1  22
BRANCH   9  23
ATOM     23  N   UNL     1       5.314   4.567  17.516  0.00  0.00    +0.000 N 
BRANCH  23  24
ATOM     24  C   UNL     1       4.871   4.123  16.182  0.00  0.00    +0.000 C 
BRANCH  24  25
ATOM     25  C   UNL     1       5.550   4.838  15.006  0.00  0.00    +0.000 C 
BRANCH  25  26
ATOM     26  C   UNL     1       6.143   3.981  13.868  0.00  0.00    +0.000 C 
ATOM     27  C   UNL     1       5.118   3.526  12.827  0.00  0.00    +0.000 C 
ATOM     28  C   UNL     1       7.236   4.797  13.161  0.00  0.00    +0.000 C 
ENDBRANCH  25  26
ENDBRANCH  24  25
ENDBRANCH  23  24
BRANCH  23  29
ATOM     29  C   UNL     1       6.800   4.627  17.650  0.00  0.00    +0.000 C 
BRANCH  29  30
ATOM     30  C   UNL     1       7.330   5.667  18.669  0.00  0.00    +0.000 C 
BRANCH  30  31
ATOM     31  N   UNL     1       7.314   7.069  18.172  0.00  0.00    +0.000 NA
ATOM     32  C   UNL     1       8.412   7.870  18.721  0.00  0.00    +0.000 C 
ATOM     33  C   UNL     1       7.392   7.088  16.706  0.00  0.00    +0.000 C 
ENDBRANCH  30  31
ENDBRANCH  29  30
ENDBRANCH  23  29
ENDBRANCH   9  23
TORSDOF 9
ENDMDL
MODEL 5
REMARK VINA RESULT:      -6.7      1.149      3.547
REMARK  Name = 
REMARK  15 active torsions:
REMARK  status: ('A' for Active; 'I' for Inactive)
REMARK    1  A    between atoms: C_1  and  C_2
REMARK    2  A    between atoms: C_2  and  C_3
REMARK    3  A    between atoms: C_8  and  C_9
REMARK    4  A    between atoms: C_15  and  C_16
REMARK    5  A    between atoms: C_22  and  N_23
REMARK    6  A    between atoms: N_23  and  C_24
REMARK    7  A    between atoms: N_23  and  C_29
REMARK    8  A    between atoms: C_24  and  C_25
REMARK    9  A    between atoms: C_25  and  C_26
REMARK   10  A    between atoms: C_26  and  C_27
REMARK   11  A    between atoms: C_26  and  C_28
REMARK   12  A    between atoms: C_29  and  C_30
REMARK   13  A    between atoms: C_30  and  N_31
REMARK   14  A    between atoms: N_31  and  C_32
REMARK   15  A    between atoms: N_31  and  C_33
REMARK                            x       y       z     vdW  Elec       q    Type
REMARK                         _______ _______ _______ _____ _____    ______ ____
ROOT
ATOM      1  C   UNL     1      -1.279  11.894  21.410  0.00  0.00    +0.000 A 
ATOM      2  N   UNL     1      -0.941  10.915  22.302  0.00  0.00    +0.000 NA
ATOM      3  C   UNL     1      -0.141  10.123  21.661  0.00  0.00    +0.000 A 
ATOM      4  C   UNL     1       0.776   9.203  22.204  0.00  0.00    +0.000 A 
ATOM      5  C   UNL     1       1.586   8.521  21.383  0.00  0.00    +0.000 A 
ATOM      6  C   UNL     1       1.417   8.571  19.941  0.00  0.00    +0.000 A 
ATOM      7  C   UNL     1       0.631   9.555  19.431  0.00  0.00    +0.000 A 
ATOM      8  N   UNL     1      -0.136  10.370  20.287  0.00  0.00    +0.000 N 
ATOM      9  C   UNL     1      -0.929  11.539  20.095  0.00  0.00    +0.000 A 
ENDROOT
BRANCH   6  10
ATOM     10  C   UNL     1       2.219   7.697  19.023  0.00  0.00    +0.000 C 
ATOM     11  O   UNL     1       2.845   8.215  18.097  0.00  0.00    +0.000 OA
ATOM     12  N   UNL     1       2.280   6.329  19.264  0.00  0.00    +0.000 N 
ATOM     13  C   UNL     1       3.344   5.548  18.626  0.00  0.00    +0.000 C 
ATOM     14  C   UNL     1       4.136   4.749  19.679  0.00  0.00    +0.000 C 
ATOM     15  N   UNL     1       3.249   3.951  20.548  0.00  0.00    +0.000 N 
ATOM     16  C   UNL     1       3.495   2.678  21.032  0.00  0.00    +0.000 C 
ATOM     17  C   UNL     1       4.702   1.912  20.554  0.00  0.00    +0.000 C 
ATOM     18  O   UNL     1       2.727   2.129  21.827  0.00  0.00    +0.000 OA
ATOM     19  C   UNL     1       2.125   4.702  21.129  0.00  0.00    +0.000 C 
ATOM     20  C   UNL     1       1.357   5.488  20.050  0.00  0.00    +0.000 C 
ENDBRANCH   6  10
BRANCH   1  22
ATOM     21  C   UNL     1      -1.056  13.509  23.309  0.00  0.00    +0.000 C 
ATOM     22  C   UNL     1      -1.894  13.087  22.081  0.00  0.00    +0.000 C 
ENDBRANCH   1  22
BRANCH   9  23
ATOM     23  N   UNL     1      -1.115  12.139  18.844  0.00  0.00    +0.000 N 
BRANCH  23  24
ATOM     24  C   UNL     1      -0.400  13.372  18.465  0.00  0.00    +0.000 C 
BRANCH  24  25
ATOM     25  C   UNL     1       0.662  13.836  19.472  0.00  0.00    +0.000 C 
BRANCH  25  26
ATOM     26  C   UNL     1       2.053  13.169  19.431  0.00  0.00    +0.000 C 
ATOM     27  C   UNL     1       2.417  12.562  18.074  0.00  0.00    +0.000 C 
ATOM     28  C   UNL     1       3.110  14.220  19.802  0.00  0.00    +0.000 C 
ENDBRANCH  25  26
ENDBRANCH  24  25
ENDBRANCH  23  24
BRANCH  23  29
ATOM     29  C   UNL     1      -2.380  11.936  18.076  0.00  0.00    +0.000 C 
BRANCH  29  30
ATOM     30  C   UNL     1      -2.236  11.110  16.773  0.00  0.00    +0.000 C 
BRANCH  30  31
ATOM     31  N   UNL     1      -3.379  11.258  15.830  0.00  0.00    +0.000 NA
ATOM     32  C   UNL     1      -3.469  10.143  14.883  0.00  0.00    +0.000 C 
ATOM     33  C   UNL     1      -4.640  11.357  16.575  0.00  0.00    +0.000 C 
ENDBRANCH  30  31
ENDBRANCH  29  30
ENDBRANCH  23  29
ENDBRANCH   9  23
TORSDOF 9
ENDMDL
MODEL 6
REMARK VINA RESULT:      -6.7      0.971      3.418
REMARK  Name = 
REMARK  15 active torsions:
REMARK  status: ('A' for Active; 'I' for Inactive)
REMARK    1  A    between atoms: C_1  and  C_2
REMARK    2  A    between atoms: C_2  and  C_3
REMARK    3  A    between atoms: C_8  and  C_9
REMARK    4  A    between atoms: C_15  and  C_16
REMARK    5  A    between atoms: C_22  and  N_23
REMARK    6  A    between atoms: N_23  and  C_24
REMARK    7  A    between atoms: N_23  and  C_29
REMARK    8  A    between atoms: C_24  and  C_25
REMARK    9  A    between atoms: C_25  and  C_26
REMARK   10  A    between atoms: C_26  and  C_27
REMARK   11  A    between atoms: C_26  and  C_28
REMARK   12  A    between atoms: C_29  and  C_30
REMARK   13  A    between atoms: C_30  and  N_31
REMARK   14  A    between atoms: N_31  and  C_32
REMARK   15  A    between atoms: N_31  and  C_33
REMARK                            x       y       z     vdW  Elec       q    Type
REMARK                         _______ _______ _______ _____ _____    ______ ____
ROOT
ATOM      1  C   UNL     1      -1.013  12.181  22.402  0.00  0.00    +0.000 A 
ATOM      2  N   UNL     1      -0.698  11.071  23.136  0.00  0.00    +0.000 NA
ATOM      3  C   UNL     1      -0.014  10.312  22.340  0.00  0.00    +0.000 A 
ATOM      4  C   UNL     1       0.858   9.264  22.690  0.00  0.00    +0.000 A 
ATOM      5  C   UNL     1       1.549   8.635  21.729  0.00  0.00    +0.000 A 
ATOM      6  C   UNL     1       1.286   8.884  20.323  0.00  0.00    +0.000 A 
ATOM      7  C   UNL     1       0.551   9.983  20.003  0.00  0.00    +0.000 A 
ATOM      8  N   UNL     1      -0.083  10.735  21.011  0.00  0.00    +0.000 N 
ATOM      9  C   UNL     1      -0.786  11.975  21.029  0.00  0.00    +0.000 A 
ENDROOT
BRANCH   6  10
ATOM     10  C   UNL     1       1.945   8.080  19.242  0.00  0.00    +0.000 C 
ATOM     11  O   UNL     1       2.445   8.665  18.280  0.00  0.00    +0.000 OA
ATOM     12  N   UNL     1       2.025   6.698  19.373  0.00  0.00    +0.000 N 
ATOM     13  C   UNL     1       2.984   5.966  18.541  0.00  0.00    +0.000 C 
ATOM     14  C   UNL     1       3.903   5.091  19.414  0.00  0.00    +0.000 C 
ATOM     15  N   UNL     1       3.136   4.232  20.336  0.00  0.00    +0.000 N 
ATOM     16  C   UNL     1       3.431   2.927  20.688  0.00  0.00    +0.000 C 
ATOM     17  C   UNL     1       4.555   2.198  19.995  0.00  0.00    +0.000 C 
ATOM     18  O   UNL     1       2.774   2.321  21.539  0.00  0.00    +0.000 OA
ATOM     19  C   UNL     1       2.109   4.939  21.118  0.00  0.00    +0.000 C 
ATOM     20  C   UNL     1       1.209   5.802  20.214  0.00  0.00    +0.000 C 
ENDBRANCH   6  10
BRANCH   1  22
ATOM     21  C   UNL     1      -3.006  13.509  23.129  0.00  0.00    +0.000 C 
ATOM     22  C   UNL     1      -1.478  13.319  23.262  0.00  0.00    +0.000 C 
ENDBRANCH   1  22
BRANCH   9  23
ATOM     23  N   UNL     1      -1.007  12.745  19.881  0.00  0.00    +0.000 N 
BRANCH  23  24
ATOM     24  C   UNL     1      -0.484  14.118  19.761  0.00  0.00    +0.000 C 
BRANCH  24  25
ATOM     25  C   UNL     1       0.671  14.283  18.763  0.00  0.00    +0.000 C 
BRANCH  25  26
ATOM     26  C   UNL     1       2.090  14.527  19.317  0.00  0.00    +0.000 C 
ATOM     27  C   UNL     1       2.602  13.418  20.239  0.00  0.00    +0.000 C 
ATOM     28  C   UNL     1       3.058  14.671  18.133  0.00  0.00    +0.000 C 
ENDBRANCH  25  26
ENDBRANCH  24  25
ENDBRANCH  23  24
BRANCH  23  29
ATOM     29  C   UNL     1      -2.184  12.486  18.998  0.00  0.00    +0.000 C 
BRANCH  29  30
ATOM     30  C   UNL     1      -1.871  11.721  17.688  0.00  0.00    +0.000 C 
BRANCH  30  31
ATOM     31  N   UNL     1      -3.049  11.041  17.084  0.00  0.00    +0.000 NA
ATOM     32  C   UNL     1      -2.943  10.927  15.627  0.00  0.00    +0.000 C 
ATOM     33  C   UNL     1      -3.209   9.700  17.660  0.00  0.00    +0.000 C 
ENDBRANCH  30  31
ENDBRANCH  29  30
ENDBRANCH  23  29
ENDBRANCH   9  23
TORSDOF 9
ENDMDL
MODEL 7
REMARK VINA RESULT:      -6.7      1.359      1.523
REMARK  Name = 
REMARK  15 active torsions:
REMARK  status: ('A' for Active; 'I' for Inactive)
REMARK    1  A    between atoms: C_1  and  C_2
REMARK    2  A    between atoms: C_2  and  C_3
REMARK    3  A    between atoms: C_8  and  C_9
REMARK    4  A    between atoms: C_15  and  C_16
REMARK    5  A    between atoms: C_22  and  N_23
REMARK    6  A    between atoms: N_23  and  C_24
REMARK    7  A    between atoms: N_23  and  C_29
REMARK    8  A    between atoms: C_24  and  C_25
REMARK    9  A    between atoms: C_25  and  C_26
REMARK   10  A    between atoms: C_26  and  C_27
REMARK   11  A    between atoms: C_26  and  C_28
REMARK   12  A    between atoms: C_29  and  C_30
REMARK   13  A    between atoms: C_30  and  N_31
REMARK   14  A    between atoms: N_31  and  C_32
REMARK   15  A    between atoms: N_31  and  C_33
REMARK                            x       y       z     vdW  Elec       q    Type
REMARK                         _______ _______ _______ _____ _____    ______ ____
ROOT
ATOM      1  C   UNL     1      -0.713  11.464  21.334  0.00  0.00    +0.000 A 
ATOM      2  N   UNL     1      -0.587  10.266  21.982  0.00  0.00    +0.000 NA
ATOM      3  C   UNL     1       0.211   9.558  21.249  0.00  0.00    +0.000 A 
ATOM      4  C   UNL     1       0.961   8.430  21.635  0.00  0.00    +0.000 A 
ATOM      5  C   UNL     1       1.803   7.868  20.757  0.00  0.00    +0.000 A 
ATOM      6  C   UNL     1       1.828   8.279  19.364  0.00  0.00    +0.000 A 
ATOM      7  C   UNL     1       1.209   9.446  19.039  0.00  0.00    +0.000 A 
ATOM      8  N   UNL     1       0.418  10.122  19.989  0.00  0.00    +0.000 N 
ATOM      9  C   UNL     1      -0.231  11.391  20.015  0.00  0.00    +0.000 A 
ENDROOT
BRANCH   6  10
ATOM     10  C   UNL     1       2.656   7.557  18.343  0.00  0.00    +0.000 C 
ATOM     11  O   UNL     1       3.514   8.182  17.718  0.00  0.00    +0.000 OA
ATOM     12  N   UNL     1       2.474   6.191  18.161  0.00  0.00    +0.000 N 
ATOM     13  C   UNL     1       3.518   5.428  17.469  0.00  0.00    +0.000 C 
ATOM     14  C   UNL     1       3.973   4.231  18.326  0.00  0.00    +0.000 C 
ATOM     15  N   UNL     1       2.833   3.410  18.777  0.00  0.00    +0.000 N 
ATOM     16  C   UNL     1       2.798   2.031  18.877  0.00  0.00    +0.000 C 
ATOM     17  C   UNL     1       3.952   1.210  18.362  0.00  0.00    +0.000 C 
ATOM     18  O   UNL     1       1.823   1.441  19.351  0.00  0.00    +0.000 OA
ATOM     19  C   UNL     1       1.737   4.172  19.397  0.00  0.00    +0.000 C 
ATOM     20  C   UNL     1       1.308   5.359  18.514  0.00  0.00    +0.000 C 
ENDBRANCH   6  10
BRANCH   1  22
ATOM     21  C   UNL     1      -2.328  11.919  23.191  0.00  0.00    +0.000 C 
ATOM     22  C   UNL     1      -1.295  12.529  22.216  0.00  0.00    +0.000 C 
ENDBRANCH   1  22
BRANCH   9  23
ATOM     23  N   UNL     1      -0.195  12.289  18.942  0.00  0.00    +0.000 N 
BRANCH  23  24
ATOM     24  C   UNL     1      -1.213  12.258  17.875  0.00  0.00    +0.000 C 
BRANCH  24  25
ATOM     25  C   UNL     1      -2.598  11.768  18.320  0.00  0.00    +0.000 C 
BRANCH  25  26
ATOM     26  C   UNL     1      -3.268  10.633  17.517  0.00  0.00    +0.000 C 
ATOM     27  C   UNL     1      -4.357  11.105  16.553  0.00  0.00    +0.000 C 
ATOM     28  C   UNL     1      -2.183   9.897  16.715  0.00  0.00    +0.000 C 
ENDBRANCH  25  26
ENDBRANCH  24  25
ENDBRANCH  23  24
BRANCH  23  29
ATOM     29  C   UNL     1       1.089  12.916  18.508  0.00  0.00    +0.000 C 
BRANCH  29  30
ATOM     30  C   UNL     1       1.360  14.330  19.080  0.00  0.00    +0.000 C 
BRANCH  30  31
ATOM     31  N   UNL     1       0.172  14.972  19.705  0.00  0.00    +0.000 NA
ATOM     32  C   UNL     1       0.470  15.536  21.025  0.00  0.00    +0.000 C 
ATOM     33  C   UNL     1      -0.347  16.034  18.835  0.00  0.00    +0.000 C 
ENDBRANCH  30  31
ENDBRANCH  29  30
ENDBRANCH  23  29
ENDBRANCH   9  23
TORSDOF 9
ENDMDL
MODEL 8
REMARK VINA RESULT:      -6.6      3.657      8.633
REMARK  Name = 
REMARK  15 active torsions:
REMARK  status: ('A' for Active; 'I' for Inactive)
REMARK    1  A    between atoms: C_1  and  C_2
REMARK    2  A    between atoms: C_2  and  C_3
REMARK    3  A    between atoms: C_8  and  C_9
REMARK    4  A    between atoms: C_15  and  C_16
REMARK    5  A    between atoms: C_22  and  N_23
REMARK    6  A    between atoms: N_23  and  C_24
REMARK    7  A    between atoms: N_23  and  C_29
REMARK    8  A    between atoms: C_24  and  C_25
REMARK    9  A    between atoms: C_25  and  C_26
REMARK   10  A    between atoms: C_26  and  C_27
REMARK   11  A    between atoms: C_26  and  C_28
REMARK   12  A    between atoms: C_29  and  C_30
REMARK   13  A    between atoms: C_30  and  N_31
REMARK   14  A    between atoms: N_31  and  C_32
REMARK   15  A    between atoms: N_31  and  C_33
REMARK                            x       y       z     vdW  Elec       q    Type
REMARK                         _______ _______ _______ _____ _____    ______ ____
ROOT
ATOM      1  C   UNL     1       0.814  10.038  19.150  0.00  0.00    +0.000 A 
ATOM      2  N   UNL     1       1.190   9.640  20.402  0.00  0.00    +0.000 NA
ATOM      3  C   UNL     1       0.328  10.172  21.208  0.00  0.00    +0.000 A 
ATOM      4  C   UNL     1       0.029   9.780  22.528  0.00  0.00    +0.000 A 
ATOM      5  C   UNL     1      -0.958  10.400  23.189  0.00  0.00    +0.000 A 
ATOM      6  C   UNL     1      -1.603  11.584  22.648  0.00  0.00    +0.000 A 
ATOM      7  C   UNL     1      -1.405  11.866  21.334  0.00  0.00    +0.000 A 
ATOM      8  N   UNL     1      -0.459  11.140  20.583  0.00  0.00    +0.000 N 
ATOM      9  C   UNL     1      -0.118  11.091  19.200  0.00  0.00    +0.000 A 
ENDROOT
BRANCH   6  10
ATOM     10  C   UNL     1      -2.601  12.371  23.444  0.00  0.00    +0.000 C 
ATOM     11  O   UNL     1      -3.524  11.777  24.004  0.00  0.00    +0.000 OA
ATOM     12  N   UNL     1      -2.435  13.746  23.578  0.00  0.00    +0.000 N 
ATOM     13  C   UNL     1      -3.160  14.442  24.644  0.00  0.00    +0.000 C 
ATOM     14  C   UNL     1      -2.187  15.256  25.519  0.00  0.00    +0.000 C 
ATOM     15  N   UNL     1      -1.324  16.138  24.710  0.00  0.00    +0.000 N 
ATOM     16  C   UNL     1      -0.920  17.421  25.033  0.00  0.00    +0.000 C 
ATOM     17  C   UNL     1      -1.490  18.104  26.250  0.00  0.00    +0.000 C 
ATOM     18  O   UNL     1      -0.122  18.045  24.329  0.00  0.00    +0.000 OA
ATOM     19  C   UNL     1      -0.655  15.471  23.581  0.00  0.00    +0.000 C 
ATOM     20  C   UNL     1      -1.656  14.668  22.730  0.00  0.00    +0.000 C 
ENDBRANCH   6  10
BRANCH   1  22
ATOM     21  C   UNL     1       2.224   8.023  18.686  0.00  0.00    +0.000 C 
ATOM     22  C   UNL     1       1.469   9.224  18.073  0.00  0.00    +0.000 C 
ENDBRANCH   1  22
BRANCH   9  23
ATOM     23  N   UNL     1      -0.744  11.881  18.230  0.00  0.00    +0.000 N 
BRANCH  23  24
ATOM     24  C   UNL     1      -0.370  13.293  18.024  0.00  0.00    +0.000 C 
BRANCH  24  25
ATOM     25  C   UNL     1       0.604  13.860  19.066  0.00  0.00    +0.000 C 
BRANCH  25  26
ATOM     26  C   UNL     1       1.924  14.487  18.572  0.00  0.00    +0.000 C 
ATOM     27  C   UNL     1       2.585  15.431  19.579  0.00  0.00    +0.000 C 
ATOM     28  C   UNL     1       2.907  13.355  18.237  0.00  0.00    +0.000 C 
ENDBRANCH  25  26
ENDBRANCH  24  25
ENDBRANCH  23  24
BRANCH  23  29
ATOM     29  C   UNL     1      -2.128  11.568  17.761  0.00  0.00    +0.000 C 
BRANCH  29  30
ATOM     30  C   UNL     1      -2.238  10.374  16.780  0.00  0.00    +0.000 C 
BRANCH  30  31
ATOM     31  N   UNL     1      -3.554  10.272  16.092  0.00  0.00    +0.000 NA
ATOM     32  C   UNL     1      -4.470  11.351  16.474  0.00  0.00    +0.000 C 
ATOM     33  C   UNL     1      -3.367  10.295  14.636  0.00  0.00    +0.000 C 
ENDBRANCH  30  31
ENDBRANCH  29  30
ENDBRANCH  23  29
ENDBRANCH   9  23
TORSDOF 9
ENDMDL
MODEL 9
REMARK VINA RESULT:      -6.6      1.470      3.727
REMARK  Name = 
REMARK  15 active torsions:
REMARK  status: ('A' for Active; 'I' for Inactive)
REMARK    1  A    between atoms: C_1  and  C_2
REMARK    2  A    between atoms: C_2  and  C_3
REMARK    3  A    between atoms: C_8  and  C_9
REMARK    4  A    between atoms: C_15  and  C_16
REMARK    5  A    between atoms: C_22  and  N_23
REMARK    6  A    between atoms: N_23  and  C_24
REMARK    7  A    between atoms: N_23  and  C_29
REMARK    8  A    between atoms: C_24  and  C_25
REMARK    9  A    between atoms: C_25  and  C_26
REMARK   10  A    between atoms: C_26  and  C_27
REMARK   11  A    between atoms: C_26  and  C_28
REMARK   12  A    between atoms: C_29  and  C_30
REMARK   13  A    between atoms: C_30  and  N_31
REMARK   14  A    between atoms: N_31  and  C_32
REMARK   15  A    between atoms: N_31  and  C_33
REMARK                            x       y       z     vdW  Elec       q    Type
REMARK                         _______ _______ _______ _____ _____    ______ ____
ROOT
ATOM      1  C   UNL     1      -0.624  11.536  21.235  0.00  0.00    +0.000 A 
ATOM      2  N   UNL     1      -0.589  10.316  21.851  0.00  0.00    +0.000 NA
ATOM      3  C   UNL     1       0.210   9.590  21.136  0.00  0.00    +0.000 A 
ATOM      4  C   UNL     1       0.883   8.415  21.524  0.00  0.00    +0.000 A 
ATOM      5  C   UNL     1       1.740   7.837  20.670  0.00  0.00    +0.000 A 
ATOM      6  C   UNL     1       1.854   8.286  19.293  0.00  0.00    +0.000 A 
ATOM      7  C   UNL     1       1.310   9.490  18.975  0.00  0.00    +0.000 A 
ATOM      8  N   UNL     1       0.506  10.178  19.905  0.00  0.00    +0.000 N 
ATOM      9  C   UNL     1      -0.081  11.477  19.939  0.00  0.00    +0.000 A 
ENDROOT
BRANCH   6  10
ATOM     10  C   UNL     1       2.696   7.553  18.292  0.00  0.00    +0.000 C 
ATOM     11  O   UNL     1       3.564   8.170  17.672  0.00  0.00    +0.000 OA
ATOM     12  N   UNL     1       2.516   6.184  18.121  0.00  0.00    +0.000 N 
ATOM     13  C   UNL     1       3.568   5.414  17.453  0.00  0.00    +0.000 C 
ATOM     14  C   UNL     1       4.009   4.225  18.329  0.00  0.00    +0.000 C 
ATOM     15  N   UNL     1       2.863   3.410  18.772  0.00  0.00    +0.000 N 
ATOM     16  C   UNL     1       2.825   2.032  18.886  0.00  0.00    +0.000 C 
ATOM     17  C   UNL     1       3.986   1.204  18.395  0.00  0.00    +0.000 C 
ATOM     18  O   UNL     1       1.842   1.447  19.352  0.00  0.00    +0.000 OA
ATOM     19  C   UNL     1       1.759   4.179  19.368  0.00  0.00    +0.000 C 
ATOM     20  C   UNL     1       1.344   5.357  18.467  0.00  0.00    +0.000 C 
ENDBRANCH   6  10
BRANCH   1  22
ATOM     21  C   UNL     1      -2.269  12.009  23.062  0.00  0.00    +0.000 C 
ATOM     22  C   UNL     1      -1.198  12.604  22.120  0.00  0.00    +0.000 C 
ENDBRANCH   1  22
BRANCH   9  23
ATOM     23  N   UNL     1       0.051  12.402  18.897  0.00  0.00    +0.000 N 
BRANCH  23  24
ATOM     24  C   UNL     1       0.763  13.680  19.085  0.00  0.00    +0.000 C 
BRANCH  24  25
ATOM     25  C   UNL     1      -0.063  14.932  18.756  0.00  0.00    +0.000 C 
BRANCH  25  26
ATOM     26  C   UNL     1       0.586  16.316  18.965  0.00  0.00    +0.000 C 
ATOM     27  C   UNL     1       2.060  16.384  18.560  0.00  0.00    +0.000 C 
ATOM     28  C   UNL     1      -0.200  17.352  18.148  0.00  0.00    +0.000 C 
ENDBRANCH  25  26
ENDBRANCH  24  25
ENDBRANCH  23  24
BRANCH  23  29
ATOM     29  C   UNL     1      -0.934  12.440  17.775  0.00  0.00    +0.000 C 
BRANCH  29  30
ATOM     30  C   UNL     1      -2.231  11.624  18.007  0.00  0.00    +0.000 C 
BRANCH  30  31
ATOM     31  N   UNL     1      -2.387  10.458  17.095  0.00  0.00    +0.000 NA
ATOM     32  C   UNL     1      -3.377   9.494  17.585  0.00  0.00    +0.000 C 
ATOM     33  C   UNL     1      -2.781  10.911  15.756  0.00  0.00    +0.000 C 
ENDBRANCH  30  31
ENDBRANCH  29  30
ENDBRANCH  23  29
ENDBRANCH   9  23
TORSDOF 9
ENDMDL
