MODEL 1
REMARK VINA RESULT:      -8.9      0.000      0.000
REMARK  Name = 
REMARK  11 active torsions:
REMARK  status: ('A' for Active; 'I' for Inactive)
REMARK    1  A    between atoms: N_4  and  C_5
REMARK    2  A    between atoms: C_5  and  C_6
REMARK    3  A    between atoms: N_8  and  C_9
REMARK    4  A    between atoms: C_9  and  C_10
REMARK    5  A    between atoms: C_10  and  C_11
REMARK    6  A    between atoms: C_11  and  C_12
REMARK    7  A    between atoms: C_12  and  C_13
REMARK    8  A    between atoms: C_17  and  C_18
REMARK    9  A    between atoms: C_18  and  C_19
REMARK   10  A    between atoms: N_21  and  C_22
REMARK   11  A    between atoms: C_26  and  C_27
REMARK                            x       y       z     vdW  Elec       q    Type
REMARK                         _______ _______ _______ _____ _____    ______ ____
ROOT
ATOM      1  C   UNK A   1       7.508   5.772  17.632  0.00  0.00    +0.000 C 
ATOM      2  N   UNK A   1       7.387   5.088  16.345  0.00  0.00    +0.000 N 
ATOM      3  C   UNK A   2       6.422   4.165  16.033  0.00  0.00    +0.000 C 
ATOM      4  O   UNK A   2       6.413   3.635  14.925  0.00  0.00    +0.000 OA
ATOM      5  C   UNK A   2       5.284   3.997  17.045  0.00  0.00    +0.000 C 
ATOM      6  N   UNK A   2       5.812   4.127  18.397  0.00  0.00    +0.000 N 
ATOM      7  C   UNK A   1       6.688   5.115  18.765  0.00  0.00    +0.000 C 
ATOM      8  O   UNK A   1       6.803   5.438  19.944  0.00  0.00    +0.000 OA
ATOM      9  H   UNK A   1       8.118   5.194  15.653  0.00  0.00    +0.000 HD
ATOM     10  H   UNK A   2       5.247   3.754  19.153  0.00  0.00    +0.000 HD
ENDROOT
BRANCH   1  11
ATOM     11  C   UNK A   1       7.229   7.286  17.547  0.00  0.00    +0.000 C 
BRANCH  11  12
ATOM     12  C   UNK A   1       8.303   8.117  18.270  0.00  0.00    +0.000 C 
BRANCH  12  13
ATOM     13  C   UNK A   1       8.247   9.631  18.008  0.00  0.00    +0.000 C 
BRANCH  13  14
ATOM     14  C   UNK A   1       9.219  10.435  18.870  0.00  0.00    +0.000 C 
BRANCH  14  17
ATOM     15  C   UNK A   1       9.897  12.445  17.582  0.00  0.00    +0.000 C 
ATOM     16  O   UNK A   1       8.787  12.974  17.651  0.00  0.00    +0.000 OA
ATOM     17  N   UNK A   1      10.176  11.200  18.103  0.00  0.00    +0.000 N 
ATOM     18  H   UNK A   1      10.975  10.726  17.660  0.00  0.00    +0.000 HD
BRANCH  15  19
ATOM     19  C   UNK A   1      11.104  13.148  16.960  0.00  0.00    +0.000 C 
BRANCH  19  23
ATOM     20  N   UNK A   1      10.864  15.862  16.031  0.00  0.00    +0.000 NA
ATOM     21  C   UNK A   1      11.439  15.579  17.144  0.00  0.00    +0.000 C 
ATOM     22  N   UNK A   1      12.066  16.496  17.902  0.00  0.00    +0.000 N 
ATOM     23  N   UNK A   1      11.477  14.349  17.695  0.00  0.00    +0.000 N 
ATOM     24  H   UNK A   1      10.992  16.860  15.841  0.00  0.00    +0.000 HD
ATOM     25  H   UNK A   1      11.822  17.460  17.716  0.00  0.00    +0.000 HD
ATOM     26  H   UNK A   1      12.054  16.302  18.897  0.00  0.00    +0.000 HD
ATOM     27  H   UNK A   1      12.193  14.189  18.390  0.00  0.00    +0.000 HD
ENDBRANCH  19  23
ENDBRANCH  15  19
ENDBRANCH  14  17
ENDBRANCH  13  14
ENDBRANCH  12  13
ENDBRANCH  11  12
ENDBRANCH   1  11
BRANCH   5  28
ATOM     28  C   UNK A   2       4.180   5.000  16.719  0.00  0.00    +0.000 C 
BRANCH  28  29
ATOM     29  C   UNK A   2       3.335   5.353  17.928  0.00  0.00    +0.000 C 
ATOM     30  O   UNK A   2       2.807   4.497  18.625  0.00  0.00    +0.000 OA
ATOM     31  N   UNK A   2       3.248   6.724  18.096  0.00  0.00    +0.000 N 
ATOM     32  H   UNK A   2       3.816   7.298  17.482  0.00  0.00    +0.000 HD
BRANCH  31  33
ATOM     33  C   UNK A   2       2.454   7.434  19.024  0.00  0.00    +0.000 A 
ATOM     34  C   UNK A   2       2.056   6.936  20.263  0.00  0.00    +0.000 A 
ATOM     35  C   UNK A   2       1.224   7.694  21.102  0.00  0.00    +0.000 A 
ATOM     36  C   UNK A   2       0.789   8.959  20.704  0.00  0.00    +0.000 A 
ATOM     37  C   UNK A   2       1.185   9.467  19.466  0.00  0.00    +0.000 A 
ATOM     38  C   UNK A   2       2.017   8.704  18.630  0.00  0.00    +0.000 A 
BRANCH  37  39
ATOM     39  C   UNK A   2       0.747  10.811  19.004  0.00  0.00    +0.000 C 
ATOM     40  N   UNK A   2      -0.268  11.437  19.514  0.00  0.00    +0.000 NA
ATOM     41  N   UNK A   2       1.415  11.444  18.000  0.00  0.00    +0.000 N 
ATOM     42  H   UNK A   2      -0.740  10.871  20.223  0.00  0.00    +0.000 HD
ATOM     43  H   UNK A   2       2.424  11.340  18.006  0.00  0.00    +0.000 HD
ATOM     44  H   UNK A   2       1.129  12.416  17.937  0.00  0.00    +0.000 HD
ENDBRANCH  37  39
ENDBRANCH  31  33
ENDBRANCH  28  29
ENDBRANCH   5  28
TORSDOF 11
ENDMDL
MODEL 2
REMARK VINA RESULT:      -8.6      2.778      9.225
REMARK  Name = 
REMARK  11 active torsions:
REMARK  status: ('A' for Active; 'I' for Inactive)
REMARK    1  A    between atoms: N_4  and  C_5
REMARK    2  A    between atoms: C_5  and  C_6
REMARK    3  A    between atoms: N_8  and  C_9
REMARK    4  A    between atoms: C_9  and  C_10
REMARK    5  A    between atoms: C_10  and  C_11
REMARK    6  A    between atoms: C_11  and  C_12
REMARK    7  A    between atoms: C_12  and  C_13
REMARK    8  A    between atoms: C_17  and  C_18
REMARK    9  A    between atoms: C_18  and  C_19
REMARK   10  A    between atoms: N_21  and  C_22
REMARK   11  A    between atoms: C_26  and  C_27
REMARK                            x       y       z     vdW  Elec       q    Type
REMARK                         _______ _______ _______ _____ _____    ______ ____
ROOT
ATOM      1  C   UNK A   1       5.177   4.486  17.032  0.00  0.00    +0.000 C 
ATOM      2  N   UNK A   1       6.182   4.334  18.084  0.00  0.00    +0.000 N 
ATOM      3  C   UNK A   2       7.401   4.963  18.104  0.00  0.00    +0.000 C 
ATOM      4  O   UNK A   2       8.183   4.758  19.029  0.00  0.00    +0.000 OA
ATOM      5  C   UNK A   2       7.628   6.047  17.047  0.00  0.00    +0.000 C 
ATOM      6  N   UNK A   2       6.991   5.650  15.798  0.00  0.00    +0.000 N 
ATOM      7  C   UNK A   1       5.725   5.128  15.738  0.00  0.00    +0.000 C 
ATOM      8  O   UNK A   1       5.081   5.174  14.693  0.00  0.00    +0.000 OA
ATOM      9  H   UNK A   1       6.048   3.634  18.803  0.00  0.00    +0.000 HD
ATOM     10  H   UNK A   2       7.302   6.115  14.950  0.00  0.00    +0.000 HD
ENDROOT
BRANCH   1  11
ATOM     11  C   UNK A   1       3.897   5.201  17.511  0.00  0.00    +0.000 C 
BRANCH  11  12
ATOM     12  C   UNK A   1       2.680   4.259  17.535  0.00  0.00    +0.000 C 
BRANCH  12  13
ATOM     13  C   UNK A   1       2.918   2.866  16.929  0.00  0.00    +0.000 C 
BRANCH  13  14
ATOM     14  C   UNK A   1       2.779   1.729  17.941  0.00  0.00    +0.000 C 
BRANCH  14  17
ATOM     15  C   UNK A   1       3.394   2.505  20.216  0.00  0.00    +0.000 C 
ATOM     16  O   UNK A   1       4.604   2.362  20.037  0.00  0.00    +0.000 OA
ATOM     17  N   UNK A   1       2.444   2.179  19.273  0.00  0.00    +0.000 N 
ATOM     18  H   UNK A   1       1.513   1.979  19.663  0.00  0.00    +0.000 HD
BRANCH  15  19
ATOM     19  C   UNK A   1       2.822   3.123  21.492  0.00  0.00    +0.000 C 
BRANCH  19  23
ATOM     20  N   UNK A   1       0.576   4.578  20.429  0.00  0.00    +0.000 NA
ATOM     21  C   UNK A   1       1.661   5.172  20.776  0.00  0.00    +0.000 C 
ATOM     22  N   UNK A   1       1.879   6.484  20.573  0.00  0.00    +0.000 N 
ATOM     23  N   UNK A   1       2.699   4.571  21.392  0.00  0.00    +0.000 N 
ATOM     24  H   UNK A   1      -0.039   5.259  19.975  0.00  0.00    +0.000 HD
ATOM     25  H   UNK A   1       1.054   7.044  20.404  0.00  0.00    +0.000 HD
ATOM     26  H   UNK A   1       2.484   6.922  21.257  0.00  0.00    +0.000 HD
ATOM     27  H   UNK A   1       3.589   5.048  21.342  0.00  0.00    +0.000 HD
ENDBRANCH  19  23
ENDBRANCH  15  19
ENDBRANCH  14  17
ENDBRANCH  13  14
ENDBRANCH  12  13
ENDBRANCH  11  12
ENDBRANCH   1  11
BRANCH   5  28
ATOM     28  C   UNK A   2       7.128   7.383  17.591  0.00  0.00    +0.000 C 
BRANCH  28  29
ATOM     29  C   UNK A   2       8.196   8.138  18.359  0.00  0.00    +0.000 C 
ATOM     30  O   UNK A   2       8.859   7.610  19.242  0.00  0.00    +0.000 OA
ATOM     31  N   UNK A   2       8.283   9.453  17.935  0.00  0.00    +0.000 N 
ATOM     32  H   UNK A   2       7.721   9.713  17.132  0.00  0.00    +0.000 HD
BRANCH  31  33
ATOM     33  C   UNK A   2       9.062  10.493  18.492  0.00  0.00    +0.000 A 
ATOM     34  C   UNK A   2       9.357  10.615  19.849  0.00  0.00    +0.000 A 
ATOM     35  C   UNK A   2      10.098  11.709  20.320  0.00  0.00    +0.000 A 
ATOM     36  C   UNK A   2      10.551  12.687  19.432  0.00  0.00    +0.000 A 
ATOM     37  C   UNK A   2      10.262  12.571  18.072  0.00  0.00    +0.000 A 
ATOM     38  C   UNK A   2       9.519  11.474  17.605  0.00  0.00    +0.000 A 
BRANCH  37  39
ATOM     39  C   UNK A   2      10.728  13.588  17.092  0.00  0.00    +0.000 C 
ATOM     40  N   UNK A   2      11.441  13.291  16.050  0.00  0.00    +0.000 NA
ATOM     41  N   UNK A   2      10.414  14.902  17.265  0.00  0.00    +0.000 N 
ATOM     42  H   UNK A   2      11.671  12.295  16.025  0.00  0.00    +0.000 HD
ATOM     43  H   UNK A   2       9.481  15.092  17.615  0.00  0.00    +0.000 HD
ATOM     44  H   UNK A   2      10.626  15.434  16.426  0.00  0.00    +0.000 HD
ENDBRANCH  37  39
ENDBRANCH  31  33
ENDBRANCH  28  29
ENDBRANCH   5  28
TORSDOF 11
ENDMDL
MODEL 3
REMARK VINA RESULT:      -8.6      5.760      8.908
REMARK  Name = 
REMARK  11 active torsions:
REMARK  status: ('A' for Active; 'I' for Inactive)
REMARK    1  A    between atoms: N_4  and  C_5
REMARK    2  A    between atoms: C_5  and  C_6
REMARK    3  A    between atoms: N_8  and  C_9
REMARK    4  A    between atoms: C_9  and  C_10
REMARK    5  A    between atoms: C_10  and  C_11
REMARK    6  A    between atoms: C_11  and  C_12
REMARK    7  A    between atoms: C_12  and  C_13
REMARK    8  A    between atoms: C_17  and  C_18
REMARK    9  A    between atoms: C_18  and  C_19
REMARK   10  A    between atoms: N_21  and  C_22
REMARK   11  A    between atoms: C_26  and  C_27
REMARK                            x       y       z     vdW  Elec       q    Type
REMARK                         _______ _______ _______ _____ _____    ______ ____
ROOT
ATOM      1  C   UNK A   1       1.753   2.629  20.219  0.00  0.00    +0.000 C 
ATOM      2  N   UNK A   1       3.101   2.281  20.665  0.00  0.00    +0.000 N 
ATOM      3  C   UNK A   2       4.220   2.292  19.871  0.00  0.00    +0.000 C 
ATOM      4  O   UNK A   2       5.309   1.968  20.338  0.00  0.00    +0.000 OA
ATOM      5  C   UNK A   2       4.061   2.905  18.476  0.00  0.00    +0.000 C 
ATOM      6  N   UNK A   2       2.746   2.570  17.944  0.00  0.00    +0.000 N 
ATOM      7  C   UNK A   1       1.595   2.663  18.683  0.00  0.00    +0.000 C 
ATOM      8  O   UNK A   1       0.505   2.761  18.127  0.00  0.00    +0.000 OA
ATOM      9  H   UNK A   1       3.235   1.888  21.588  0.00  0.00    +0.000 HD
ATOM     10  H   UNK A   2       2.617   2.652  16.940  0.00  0.00    +0.000 HD
ENDROOT
BRANCH   1  11
ATOM     11  C   UNK A   1       1.213   3.922  20.865  0.00  0.00    +0.000 C 
BRANCH  11  12
ATOM     12  C   UNK A   1       2.043   5.157  20.476  0.00  0.00    +0.000 C 
BRANCH  12  13
ATOM     13  C   UNK A   1       1.273   6.488  20.467  0.00  0.00    +0.000 C 
BRANCH  13  14
ATOM     14  C   UNK A   1       2.095   7.664  19.938  0.00  0.00    +0.000 C 
BRANCH  14  17
ATOM     15  C   UNK A   1       1.112   9.664  18.847  0.00  0.00    +0.000 C 
ATOM     16  O   UNK A   1       1.513   9.359  17.723  0.00  0.00    +0.000 OA
ATOM     17  N   UNK A   1       1.389   8.925  19.977  0.00  0.00    +0.000 N 
ATOM     18  H   UNK A   1       1.343   9.460  20.853  0.00  0.00    +0.000 HD
BRANCH  15  19
ATOM     19  C   UNK A   1       0.206  10.870  19.096  0.00  0.00    +0.000 C 
BRANCH  19  23
ATOM     20  N   UNK A   1      -1.434  12.334  17.237  0.00  0.00    +0.000 NA
ATOM     21  C   UNK A   1      -1.917  11.393  17.967  0.00  0.00    +0.000 C 
ATOM     22  N   UNK A   1      -3.228  11.092  18.007  0.00  0.00    +0.000 N 
ATOM     23  N   UNK A   1      -1.184  10.590  18.764  0.00  0.00    +0.000 N 
ATOM     24  H   UNK A   1      -2.205  12.792  16.742  0.00  0.00    +0.000 HD
ATOM     25  H   UNK A   1      -3.780  11.433  17.231  0.00  0.00    +0.000 HD
ATOM     26  H   UNK A   1      -3.431  10.118  18.200  0.00  0.00    +0.000 HD
ATOM     27  H   UNK A   1      -1.683  10.107  19.498  0.00  0.00    +0.000 HD
ENDBRANCH  19  23
ENDBRANCH  15  19
ENDBRANCH  14  17
ENDBRANCH  13  14
ENDBRANCH  12  13
ENDBRANCH  11  12
ENDBRANCH   1  11
BRANCH   5  28
ATOM     28  C   UNK A   2       4.323   4.406  18.562  0.00  0.00    +0.000 C 
BRANCH  28  29
ATOM     29  C   UNK A   2       4.807   4.992  17.249  0.00  0.00    +0.000 C 
ATOM     30  O   UNK A   2       4.464   6.103  16.866  0.00  0.00    +0.000 OA
ATOM     31  N   UNK A   2       5.639   4.109  16.583  0.00  0.00    +0.000 N 
ATOM     32  H   UNK A   2       5.895   3.260  17.076  0.00  0.00    +0.000 HD
BRANCH  31  33
ATOM     33  C   UNK A   2       6.180   4.241  15.283  0.00  0.00    +0.000 A 
ATOM     34  C   UNK A   2       7.234   5.090  14.952  0.00  0.00    +0.000 A 
ATOM     35  C   UNK A   2       7.674   5.194  13.624  0.00  0.00    +0.000 A 
ATOM     36  C   UNK A   2       7.062   4.443  12.619  0.00  0.00    +0.000 A 
ATOM     37  C   UNK A   2       6.007   3.588  12.943  0.00  0.00    +0.000 A 
ATOM     38  C   UNK A   2       5.570   3.488  14.274  0.00  0.00    +0.000 A 
BRANCH  37  39
ATOM     39  C   UNK A   2       5.329   2.768  11.904  0.00  0.00    +0.000 C 
ATOM     40  N   UNK A   2       4.210   3.115  11.348  0.00  0.00    +0.000 NA
ATOM     41  N   UNK A   2       5.876   1.590  11.494  0.00  0.00    +0.000 N 
ATOM     42  H   UNK A   2       3.846   3.983  11.750  0.00  0.00    +0.000 HD
ATOM     43  H   UNK A   2       6.886   1.578  11.405  0.00  0.00    +0.000 HD
ATOM     44  H   UNK A   2       5.413   1.253  10.655  0.00  0.00    +0.000 HD
ENDBRANCH  37  39
ENDBRANCH  31  33
ENDBRANCH  28  29
ENDBRANCH   5  28
TORSDOF 11
ENDMDL
MODEL 4
REMARK VINA RESULT:      -8.5      4.225      8.381
REMARK  Name = 
REMARK  11 active torsions:
REMARK  status: ('A' for Active; 'I' for Inactive)
REMARK    1  A    between atoms: N_4  and  C_5
REMARK    2  A    between atoms: C_5  and  C_6
REMARK    3  A    between atoms: N_8  and  C_9
REMARK    4  A    between atoms: C_9  and  C_10
REMARK    5  A    between atoms: C_10  and  C_11
REMARK    6  A    between atoms: C_11  and  C_12
REMARK    7  A    between atoms: C_12  and  C_13
REMARK    8  A    between atoms: C_17  and  C_18
REMARK    9  A    between atoms: C_18  and  C_19
REMARK   10  A    between atoms: N_21  and  C_22
REMARK   11  A    between atoms: C_26  and  C_27
REMARK                            x       y       z     vdW  Elec       q    Type
REMARK                         _______ _______ _______ _____ _____    ______ ____
ROOT
ATOM      1  C   UNK A   1       1.420   4.873  19.777  0.00  0.00    +0.000 C 
ATOM      2  N   UNK A   1       1.351   4.155  21.049  0.00  0.00    +0.000 N 
ATOM      3  C   UNK A   2       1.489   2.799  21.195  0.00  0.00    +0.000 C 
ATOM      4  O   UNK A   2       1.402   2.288  22.309  0.00  0.00    +0.000 OA
ATOM      5  C   UNK A   2       1.942   2.020  19.956  0.00  0.00    +0.000 C 
ATOM      6  N   UNK A   2       1.339   2.606  18.766  0.00  0.00    +0.000 N 
ATOM      7  C   UNK A   1       1.293   3.957  18.539  0.00  0.00    +0.000 C 
ATOM      8  O   UNK A   1       1.151   4.392  17.400  0.00  0.00    +0.000 OA
ATOM      9  H   UNK A   1       1.069   4.650  21.886  0.00  0.00    +0.000 HD
ATOM     10  H   UNK A   2       1.310   2.031  17.930  0.00  0.00    +0.000 HD
ENDROOT
BRANCH   1  11
ATOM     11  C   UNK A   1       2.649   5.798  19.664  0.00  0.00    +0.000 C 
BRANCH  11  12
ATOM     12  C   UNK A   1       2.252   7.278  19.530  0.00  0.00    +0.000 C 
BRANCH  12  13
ATOM     13  C   UNK A   1       2.147   7.801  18.088  0.00  0.00    +0.000 C 
BRANCH  13  14
ATOM     14  C   UNK A   1       2.038   9.322  17.998  0.00  0.00    +0.000 C 
BRANCH  14  17
ATOM     15  C   UNK A   1      -0.085  10.195  18.940  0.00  0.00    +0.000 C 
ATOM     16  O   UNK A   1      -0.714  10.054  17.891  0.00  0.00    +0.000 OA
ATOM     17  N   UNK A   1       1.258   9.911  19.063  0.00  0.00    +0.000 N 
ATOM     18  H   UNK A   1       1.729  10.415  19.825  0.00  0.00    +0.000 HD
BRANCH  15  19
ATOM     19  C   UNK A   1      -0.750  10.646  20.241  0.00  0.00    +0.000 C 
BRANCH  19  23
ATOM     20  N   UNK A   1      -1.257  11.179  23.024  0.00  0.00    +0.000 NA
ATOM     21  C   UNK A   1      -0.568  10.162  22.647  0.00  0.00    +0.000 C 
ATOM     22  N   UNK A   1       0.058   9.338  23.506  0.00  0.00    +0.000 N 
ATOM     23  N   UNK A   1      -0.397   9.787  21.363  0.00  0.00    +0.000 N 
ATOM     24  H   UNK A   1      -1.215  11.242  24.045  0.00  0.00    +0.000 HD
ATOM     25  H   UNK A   1      -0.268   9.373  24.463  0.00  0.00    +0.000 HD
ATOM     26  H   UNK A   1       0.146   8.381  23.185  0.00  0.00    +0.000 HD
ATOM     27  H   UNK A   1       0.386   9.178  21.173  0.00  0.00    +0.000 HD
ENDBRANCH  19  23
ENDBRANCH  15  19
ENDBRANCH  14  17
ENDBRANCH  13  14
ENDBRANCH  12  13
ENDBRANCH  11  12
ENDBRANCH   1  11
BRANCH   5  28
ATOM     28  C   UNK A   2       3.468   1.993  19.919  0.00  0.00    +0.000 C 
BRANCH  28  29
ATOM     29  C   UNK A   2       4.030   2.500  18.605  0.00  0.00    +0.000 C 
ATOM     30  O   UNK A   2       3.810   1.934  17.541  0.00  0.00    +0.000 OA
ATOM     31  N   UNK A   2       4.804   3.632  18.793  0.00  0.00    +0.000 N 
ATOM     32  H   UNK A   2       4.817   4.027  19.727  0.00  0.00    +0.000 HD
BRANCH  31  33
ATOM     33  C   UNK A   2       5.592   4.312  17.837  0.00  0.00    +0.000 A 
ATOM     34  C   UNK A   2       5.749   3.903  16.513  0.00  0.00    +0.000 A 
ATOM     35  C   UNK A   2       6.591   4.614  15.644  0.00  0.00    +0.000 A 
ATOM     36  C   UNK A   2       7.279   5.741  16.097  0.00  0.00    +0.000 A 
ATOM     37  C   UNK A   2       7.125   6.158  17.420  0.00  0.00    +0.000 A 
ATOM     38  C   UNK A   2       6.281   5.443  18.286  0.00  0.00    +0.000 A 
BRANCH  37  39
ATOM     39  C   UNK A   2       7.837   7.355  17.942  0.00  0.00    +0.000 C 
ATOM     40  N   UNK A   2       8.535   7.342  19.034  0.00  0.00    +0.000 NA
ATOM     41  N   UNK A   2       7.772   8.539  17.271  0.00  0.00    +0.000 N 
ATOM     42  H   UNK A   2       8.489   6.431  19.498  0.00  0.00    +0.000 HD
ATOM     43  H   UNK A   2       7.799   8.477  16.260  0.00  0.00    +0.000 HD
ATOM     44  H   UNK A   2       8.458   9.194  17.635  0.00  0.00    +0.000 HD
ENDBRANCH  37  39
ENDBRANCH  31  33
ENDBRANCH  28  29
ENDBRANCH   5  28
TORSDOF 11
ENDMDL
MODEL 5
REMARK VINA RESULT:      -8.5      1.826      2.430
REMARK  Name = 
REMARK  11 active torsions:
REMARK  status: ('A' for Active; 'I' for Inactive)
REMARK    1  A    between atoms: N_4  and  C_5
REMARK    2  A    between atoms: C_5  and  C_6
REMARK    3  A    between atoms: N_8  and  C_9
REMARK    4  A    between atoms: C_9  and  C_10
REMARK    5  A    between atoms: C_10  and  C_11
REMARK    6  A    between atoms: C_11  and  C_12
REMARK    7  A    between atoms: C_12  and  C_13
REMARK    8  A    between atoms: C_17  and  C_18
REMARK    9  A    between atoms: C_18  and  C_19
REMARK   10  A    between atoms: N_21  and  C_22
REMARK   11  A    between atoms: C_26  and  C_27
REMARK                            x       y       z     vdW  Elec       q    Type
REMARK                         _______ _______ _______ _____ _____    ______ ____
ROOT
ATOM      1  C   UNK A   1       7.348   5.851  17.830  0.00  0.00    +0.000 C 
ATOM      2  N   UNK A   1       6.937   6.033  16.439  0.00  0.00    +0.000 N 
ATOM      3  C   UNK A   2       5.641   6.017  15.993  0.00  0.00    +0.000 C 
ATOM      4  O   UNK A   2       5.399   6.166  14.798  0.00  0.00    +0.000 OA
ATOM      5  C   UNK A   2       4.549   6.005  17.067  0.00  0.00    +0.000 C 
ATOM      6  N   UNK A   2       4.983   5.187  18.192  0.00  0.00    +0.000 N 
ATOM      7  C   UNK A   1       6.239   5.268  18.734  0.00  0.00    +0.000 C 
ATOM      8  O   UNK A   1       6.448   4.883  19.882  0.00  0.00    +0.000 OA
ATOM      9  H   UNK A   1       7.641   6.059  15.711  0.00  0.00    +0.000 HD
ATOM     10  H   UNK A   2       4.264   4.854  18.828  0.00  0.00    +0.000 HD
ENDROOT
BRANCH   1  11
ATOM     11  C   UNK A   1       7.968   7.118  18.454  0.00  0.00    +0.000 C 
BRANCH  11  12
ATOM     12  C   UNK A   1       7.528   8.400  17.725  0.00  0.00    +0.000 C 
BRANCH  12  13
ATOM     13  C   UNK A   1       8.641   9.433  17.488  0.00  0.00    +0.000 C 
BRANCH  13  14
ATOM     14  C   UNK A   1       8.973  10.267  18.725  0.00  0.00    +0.000 C 
BRANCH  14  17
ATOM     15  C   UNK A   1      10.694  11.897  19.458  0.00  0.00    +0.000 C 
ATOM     16  O   UNK A   1      10.586  11.612  20.651  0.00  0.00    +0.000 OA
ATOM     17  N   UNK A   1       9.920  11.328  18.470  0.00  0.00    +0.000 N 
ATOM     18  H   UNK A   1       9.832  11.901  17.620  0.00  0.00    +0.000 HD
BRANCH  15  19
ATOM     19  C   UNK A   1      11.750  12.874  18.940  0.00  0.00    +0.000 C 
BRANCH  19  23
ATOM     20  N   UNK A   1      12.111  13.140  16.096  0.00  0.00    +0.000 NA
ATOM     21  C   UNK A   1      11.483  14.026  16.782  0.00  0.00    +0.000 C 
ATOM     22  N   UNK A   1      11.046  15.187  16.260  0.00  0.00    +0.000 N 
ATOM     23  N   UNK A   1      11.173  13.905  18.089  0.00  0.00    +0.000 N 
ATOM     24  H   UNK A   1      12.224  13.486  15.140  0.00  0.00    +0.000 HD
ATOM     25  H   UNK A   1      10.971  15.213  15.252  0.00  0.00    +0.000 HD
ATOM     26  H   UNK A   1      10.212  15.559  16.698  0.00  0.00    +0.000 HD
ATOM     27  H   UNK A   1      10.959  14.761  18.582  0.00  0.00    +0.000 HD
ENDBRANCH  19  23
ENDBRANCH  15  19
ENDBRANCH  14  17
ENDBRANCH  13  14
ENDBRANCH  12  13
ENDBRANCH  11  12
ENDBRANCH   1  11
BRANCH   5  28
ATOM     28  C   UNK A   2       4.214   7.444  17.449  0.00  0.00    +0.000 C 
BRANCH  28  29
ATOM     29  C   UNK A   2       2.883   7.565  18.166  0.00  0.00    +0.000 C 
ATOM     30  O   UNK A   2       2.266   6.584  18.563  0.00  0.00    +0.000 OA
ATOM     31  N   UNK A   2       2.491   8.888  18.278  0.00  0.00    +0.000 N 
ATOM     32  H   UNK A   2       3.157   9.590  17.974  0.00  0.00    +0.000 HD
BRANCH  31  33
ATOM     33  C   UNK A   2       1.262   9.389  18.765  0.00  0.00    +0.000 A 
ATOM     34  C   UNK A   2       0.183   9.745  17.958  0.00  0.00    +0.000 A 
ATOM     35  C   UNK A   2      -0.983  10.282  18.526  0.00  0.00    +0.000 A 
ATOM     36  C   UNK A   2      -1.075  10.460  19.907  0.00  0.00    +0.000 A 
ATOM     37  C   UNK A   2      -0.000  10.103  20.722  0.00  0.00    +0.000 A 
ATOM     38  C   UNK A   2       1.165   9.567  20.149  0.00  0.00    +0.000 A 
BRANCH  37  39
ATOM     39  C   UNK A   2      -0.058  10.273  22.198  0.00  0.00    +0.000 C 
ATOM     40  N   UNK A   2       0.778   9.702  23.009  0.00  0.00    +0.000 NA
ATOM     41  N   UNK A   2      -1.020  11.055  22.762  0.00  0.00    +0.000 N 
ATOM     42  H   UNK A   2       1.432   9.097  22.507  0.00  0.00    +0.000 HD
ATOM     43  H   UNK A   2      -1.251  11.905  22.260  0.00  0.00    +0.000 HD
ATOM     44  H   UNK A   2      -0.811  11.231  23.740  0.00  0.00    +0.000 HD
ENDBRANCH  37  39
ENDBRANCH  31  33
ENDBRANCH  28  29
ENDBRANCH   5  28
TORSDOF 11
ENDMDL
MODEL 6
REMARK VINA RESULT:      -8.5      1.593      1.882
REMARK  Name = 
REMARK  11 active torsions:
REMARK  status: ('A' for Active; 'I' for Inactive)
REMARK    1  A    between atoms: N_4  and  C_5
REMARK    2  A    between atoms: C_5  and  C_6
REMARK    3  A    between atoms: N_8  and  C_9
REMARK    4  A    between atoms: C_9  and  C_10
REMARK    5  A    between atoms: C_10  and  C_11
REMARK    6  A    between atoms: C_11  and  C_12
REMARK    7  A    between atoms: C_12  and  C_13
REMARK    8  A    between atoms: C_17  and  C_18
REMARK    9  A    between atoms: C_18  and  C_19
REMARK   10  A    between atoms: N_21  and  C_22
REMARK   11  A    between atoms: C_26  and  C_27
REMARK                            x       y       z     vdW  Elec       q    Type
REMARK                         _______ _______ _______ _____ _____    ______ ____
ROOT
ATOM      1  C   UNK A   1       7.100   5.166  17.799  0.00  0.00    +0.000 C 
ATOM      2  N   UNK A   1       6.865   5.527  16.402  0.00  0.00    +0.000 N 
ATOM      3  C   UNK A   2       5.630   5.698  15.831  0.00  0.00    +0.000 C 
ATOM      4  O   UNK A   2       5.537   5.989  14.641  0.00  0.00    +0.000 OA
ATOM      5  C   UNK A   2       4.430   5.702  16.783  0.00  0.00    +0.000 C 
ATOM      6  N   UNK A   2       4.655   4.735  17.851  0.00  0.00    +0.000 N 
ATOM      7  C   UNK A   1       5.846   4.624  18.520  0.00  0.00    +0.000 C 
ATOM      8  O   UNK A   1       5.888   4.108  19.634  0.00  0.00    +0.000 OA
ATOM      9  H   UNK A   1       7.643   5.547  15.755  0.00  0.00    +0.000 HD
ATOM     10  H   UNK A   2       3.841   4.423  18.372  0.00  0.00    +0.000 HD
ENDROOT
BRANCH   1  11
ATOM     11  C   UNK A   1       7.770   6.290  18.615  0.00  0.00    +0.000 C 
BRANCH  11  12
ATOM     12  C   UNK A   1       7.755   7.637  17.871  0.00  0.00    +0.000 C 
BRANCH  12  13
ATOM     13  C   UNK A   1       8.585   8.755  18.524  0.00  0.00    +0.000 C 
BRANCH  13  14
ATOM     14  C   UNK A   1       8.374  10.125  17.881  0.00  0.00    +0.000 C 
BRANCH  14  17
ATOM     15  C   UNK A   1       9.279  12.434  17.963  0.00  0.00    +0.000 C 
ATOM     16  O   UNK A   1       8.324  12.927  17.361  0.00  0.00    +0.000 OA
ATOM     17  N   UNK A   1       9.402  11.085  18.213  0.00  0.00    +0.000 N 
ATOM     18  H   UNK A   1      10.370  10.769  18.359  0.00  0.00    +0.000 HD
BRANCH  15  19
ATOM     19  C   UNK A   1      10.403  13.285  18.553  0.00  0.00    +0.000 C 
BRANCH  19  23
ATOM     20  N   UNK A   1      11.325  14.663  16.199  0.00  0.00    +0.000 NA
ATOM     21  C   UNK A   1      10.793  15.293  17.184  0.00  0.00    +0.000 C 
ATOM     22  N   UNK A   1      10.725  16.635  17.248  0.00  0.00    +0.000 N 
ATOM     23  N   UNK A   1      10.232  14.701  18.258  0.00  0.00    +0.000 N 
ATOM     24  H   UNK A   1      11.683  15.348  15.527  0.00  0.00    +0.000 HD
ATOM     25  H   UNK A   1      10.842  17.122  16.370  0.00  0.00    +0.000 HD
ATOM     26  H   UNK A   1       9.928  16.993  17.761  0.00  0.00    +0.000 HD
ATOM     27  H   UNK A   1      10.126  15.274  19.083  0.00  0.00    +0.000 HD
ENDBRANCH  19  23
ENDBRANCH  15  19
ENDBRANCH  14  17
ENDBRANCH  13  14
ENDBRANCH  12  13
ENDBRANCH  11  12
ENDBRANCH   1  11
BRANCH   5  28
ATOM     28  C   UNK A   2       4.200   7.125  17.285  0.00  0.00    +0.000 C 
BRANCH  28  29
ATOM     29  C   UNK A   2       2.903   7.271  18.056  0.00  0.00    +0.000 C 
ATOM     30  O   UNK A   2       2.229   6.304  18.385  0.00  0.00    +0.000 OA
ATOM     31  N   UNK A   2       2.609   8.603  18.297  0.00  0.00    +0.000 N 
ATOM     32  H   UNK A   2       3.315   9.282  18.033  0.00  0.00    +0.000 HD
BRANCH  31  33
ATOM     33  C   UNK A   2       1.434   9.141  18.868  0.00  0.00    +0.000 A 
ATOM     34  C   UNK A   2       1.130   9.100  20.228  0.00  0.00    +0.000 A 
ATOM     35  C   UNK A   2      -0.086   9.617  20.700  0.00  0.00    +0.000 A 
ATOM     36  C   UNK A   2      -1.003  10.183  19.813  0.00  0.00    +0.000 A 
ATOM     37  C   UNK A   2      -0.705  10.230  18.450  0.00  0.00    +0.000 A 
ATOM     38  C   UNK A   2       0.513   9.710  17.981  0.00  0.00    +0.000 A 
BRANCH  37  39
ATOM     39  C   UNK A   2      -1.652  10.826  17.471  0.00  0.00    +0.000 C 
ATOM     40  N   UNK A   2      -1.801  12.105  17.320  0.00  0.00    +0.000 NA
ATOM     41  N   UNK A   2      -2.417  10.023  16.680  0.00  0.00    +0.000 N 
ATOM     42  H   UNK A   2      -1.228  12.630  17.985  0.00  0.00    +0.000 HD
ATOM     43  H   UNK A   2      -1.965   9.186  16.329  0.00  0.00    +0.000 HD
ATOM     44  H   UNK A   2      -2.855  10.562  15.939  0.00  0.00    +0.000 HD
ENDBRANCH  37  39
ENDBRANCH  31  33
ENDBRANCH  28  29
ENDBRANCH   5  28
TORSDOF 11
ENDMDL
MODEL 7
REMARK VINA RESULT:      -8.4      5.244      7.107
REMARK  Name = 
REMARK  11 active torsions:
REMARK  status: ('A' for Active; 'I' for Inactive)
REMARK    1  A    between atoms: N_4  and  C_5
REMARK    2  A    between atoms: C_5  and  C_6
REMARK    3  A    between atoms: N_8  and  C_9
REMARK    4  A    between atoms: C_9  and  C_10
REMARK    5  A    between atoms: C_10  and  C_11
REMARK    6  A    between atoms: C_11  and  C_12
REMARK    7  A    between atoms: C_12  and  C_13
REMARK    8  A    between atoms: C_17  and  C_18
REMARK    9  A    between atoms: C_18  and  C_19
REMARK   10  A    between atoms: N_21  and  C_22
REMARK   11  A    between atoms: C_26  and  C_27
REMARK                            x       y       z     vdW  Elec       q    Type
REMARK                         _______ _______ _______ _____ _____    ______ ____
ROOT
ATOM      1  C   UNK A   1       2.962   2.462  19.795  0.00  0.00    +0.000 C 
ATOM      2  N   UNK A   1       2.371   2.975  18.560  0.00  0.00    +0.000 N 
ATOM      3  C   UNK A   2       1.576   4.088  18.471  0.00  0.00    +0.000 C 
ATOM      4  O   UNK A   2       1.116   4.431  17.385  0.00  0.00    +0.000 OA
ATOM      5  C   UNK A   2       1.471   4.955  19.730  0.00  0.00    +0.000 C 
ATOM      6  N   UNK A   2       1.465   4.099  20.910  0.00  0.00    +0.000 N 
ATOM      7  C   UNK A   1       2.331   3.050  21.077  0.00  0.00    +0.000 C 
ATOM      8  O   UNK A   1       2.571   2.612  22.199  0.00  0.00    +0.000 OA
ATOM      9  H   UNK A   1       2.440   2.428  17.710  0.00  0.00    +0.000 HD
ATOM     10  H   UNK A   2       1.111   4.502  21.772  0.00  0.00    +0.000 HD
ENDROOT
BRANCH   1  11
ATOM     11  C   UNK A   1       4.500   2.573  19.828  0.00  0.00    +0.000 C 
BRANCH  11  12
ATOM     12  C   UNK A   1       5.051   3.371  18.634  0.00  0.00    +0.000 C 
BRANCH  12  13
ATOM     13  C   UNK A   1       5.906   4.595  19.001  0.00  0.00    +0.000 C 
BRANCH  13  14
ATOM     14  C   UNK A   1       6.217   5.501  17.811  0.00  0.00    +0.000 C 
BRANCH  14  17
ATOM     15  C   UNK A   1       6.280   4.997  15.382  0.00  0.00    +0.000 C 
ATOM     16  O   UNK A   1       7.443   5.376  15.241  0.00  0.00    +0.000 OA
ATOM     17  N   UNK A   1       5.599   5.068  16.578  0.00  0.00    +0.000 N 
ATOM     18  H   UNK A   1       4.576   5.093  16.480  0.00  0.00    +0.000 HD
BRANCH  15  19
ATOM     19  C   UNK A   1       5.486   4.348  14.248  0.00  0.00    +0.000 C 
BRANCH  19  23
ATOM     20  N   UNK A   1       4.750   3.283  11.676  0.00  0.00    +0.000 NA
ATOM     21  C   UNK A   1       5.881   3.008  12.221  0.00  0.00    +0.000 C 
ATOM     22  N   UNK A   1       6.755   2.128  11.700  0.00  0.00    +0.000 N 
ATOM     23  N   UNK A   1       6.338   3.568  13.360  0.00  0.00    +0.000 N 
ATOM     24  H   UNK A   1       4.648   2.714  10.831  0.00  0.00    +0.000 HD
ATOM     25  H   UNK A   1       6.623   1.908  10.721  0.00  0.00    +0.000 HD
ATOM     26  H   UNK A   1       7.727   2.328  11.902  0.00  0.00    +0.000 HD
ATOM     27  H   UNK A   1       7.073   3.070  13.842  0.00  0.00    +0.000 HD
ENDBRANCH  19  23
ENDBRANCH  15  19
ENDBRANCH  14  17
ENDBRANCH  13  14
ENDBRANCH  12  13
ENDBRANCH  11  12
ENDBRANCH   1  11
BRANCH   5  28
ATOM     28  C   UNK A   2       2.603   5.979  19.722  0.00  0.00    +0.000 C 
BRANCH  28  29
ATOM     29  C   UNK A   2       2.105   7.399  19.534  0.00  0.00    +0.000 C 
ATOM     30  O   UNK A   2       2.424   8.078  18.566  0.00  0.00    +0.000 OA
ATOM     31  N   UNK A   2       1.292   7.790  20.584  0.00  0.00    +0.000 N 
ATOM     32  H   UNK A   2       1.054   7.079  21.267  0.00  0.00    +0.000 HD
BRANCH  31  33
ATOM     33  C   UNK A   2       0.748   9.071  20.828  0.00  0.00    +0.000 A 
ATOM     34  C   UNK A   2       0.253   9.494  22.060  0.00  0.00    +0.000 A 
ATOM     35  C   UNK A   2      -0.315  10.769  22.200  0.00  0.00    +0.000 A 
ATOM     36  C   UNK A   2      -0.387  11.631  21.104  0.00  0.00    +0.000 A 
ATOM     37  C   UNK A   2       0.109  11.217  19.867  0.00  0.00    +0.000 A 
ATOM     38  C   UNK A   2       0.677   9.938  19.733  0.00  0.00    +0.000 A 
BRANCH  37  39
ATOM     39  C   UNK A   2       0.056  12.104  18.675  0.00  0.00    +0.000 C 
ATOM     40  N   UNK A   2       1.060  12.829  18.287  0.00  0.00    +0.000 NA
ATOM     41  N   UNK A   2      -1.083  12.189  17.932  0.00  0.00    +0.000 N 
ATOM     42  H   UNK A   2       1.853  12.743  18.928  0.00  0.00    +0.000 HD
ATOM     43  H   UNK A   2      -1.590  11.321  17.799  0.00  0.00    +0.000 HD
ATOM     44  H   UNK A   2      -0.903  12.668  17.055  0.00  0.00    +0.000 HD
ENDBRANCH  37  39
ENDBRANCH  31  33
ENDBRANCH  28  29
ENDBRANCH   5  28
TORSDOF 11
ENDMDL
MODEL 8
REMARK VINA RESULT:      -8.4      2.306      3.387
REMARK  Name = 
REMARK  11 active torsions:
REMARK  status: ('A' for Active; 'I' for Inactive)
REMARK    1  A    between atoms: N_4  and  C_5
REMARK    2  A    between atoms: C_5  and  C_6
REMARK    3  A    between atoms: N_8  and  C_9
REMARK    4  A    between atoms: C_9  and  C_10
REMARK    5  A    between atoms: C_10  and  C_11
REMARK    6  A    between atoms: C_11  and  C_12
REMARK    7  A    between atoms: C_12  and  C_13
REMARK    8  A    between atoms: C_17  and  C_18
REMARK    9  A    between atoms: C_18  and  C_19
REMARK   10  A    between atoms: N_21  and  C_22
REMARK   11  A    between atoms: C_26  and  C_27
REMARK                            x       y       z     vdW  Elec       q    Type
REMARK                         _______ _______ _______ _____ _____    ______ ____
ROOT
ATOM      1  C   UNK A   1       7.700   5.810  16.636  0.00  0.00    +0.000 C 
ATOM      2  N   UNK A   1       7.650   5.701  15.179  0.00  0.00    +0.000 N 
ATOM      3  C   UNK A   2       6.944   4.752  14.485  0.00  0.00    +0.000 C 
ATOM      4  O   UNK A   2       6.978   4.736  13.257  0.00  0.00    +0.000 OA
ATOM      5  C   UNK A   2       5.991   3.876  15.303  0.00  0.00    +0.000 C 
ATOM      6  N   UNK A   2       6.585   3.592  16.603  0.00  0.00    +0.000 N 
ATOM      7  C   UNK A   1       7.193   4.549  17.372  0.00  0.00    +0.000 C 
ATOM      8  O   UNK A   1       7.323   4.386  18.582  0.00  0.00    +0.000 OA
ATOM      9  H   UNK A   1       8.260   6.280  14.615  0.00  0.00    +0.000 HD
ATOM     10  H   UNK A   2       6.212   2.802  17.121  0.00  0.00    +0.000 HD
ENDROOT
BRANCH   1  11
ATOM     11  C   UNK A   1       7.017   7.083  17.177  0.00  0.00    +0.000 C 
BRANCH  11  12
ATOM     12  C   UNK A   1       7.905   7.838  18.181  0.00  0.00    +0.000 C 
BRANCH  12  13
ATOM     13  C   UNK A   1       8.197   9.305  17.825  0.00  0.00    +0.000 C 
BRANCH  13  14
ATOM     14  C   UNK A   1       9.039  10.030  18.874  0.00  0.00    +0.000 C 
BRANCH  14  17
ATOM     15  C   UNK A   1       9.851  12.236  18.079  0.00  0.00    +0.000 C 
ATOM     16  O   UNK A   1       8.770  12.799  18.256  0.00  0.00    +0.000 OA
ATOM     17  N   UNK A   1      10.052  10.892  18.307  0.00  0.00    +0.000 N 
ATOM     18  H   UNK A   1      10.833  10.485  17.777  0.00  0.00    +0.000 HD
BRANCH  15  19
ATOM     19  C   UNK A   1      11.107  12.990  17.643  0.00  0.00    +0.000 C 
BRANCH  19  23
ATOM     20  N   UNK A   1      12.050  15.708  17.761  0.00  0.00    +0.000 NA
ATOM     21  C   UNK A   1      11.196  15.329  16.879  0.00  0.00    +0.000 C 
ATOM     22  N   UNK A   1      10.595  16.175  16.024  0.00  0.00    +0.000 N 
ATOM     23  N   UNK A   1      10.807  14.051  16.691  0.00  0.00    +0.000 N 
ATOM     24  H   UNK A   1      12.155  16.725  17.697  0.00  0.00    +0.000 HD
ATOM     25  H   UNK A   1      11.050  17.071  15.902  0.00  0.00    +0.000 HD
ATOM     26  H   UNK A   1      10.347  15.767  15.130  0.00  0.00    +0.000 HD
ATOM     27  H   UNK A   1       9.936  13.914  16.197  0.00  0.00    +0.000 HD
ENDBRANCH  19  23
ENDBRANCH  15  19
ENDBRANCH  14  17
ENDBRANCH  13  14
ENDBRANCH  12  13
ENDBRANCH  11  12
ENDBRANCH   1  11
BRANCH   5  28
ATOM     28  C   UNK A   2       4.633   4.568  15.388  0.00  0.00    +0.000 C 
BRANCH  28  29
ATOM     29  C   UNK A   2       3.891   4.245  16.671  0.00  0.00    +0.000 C 
ATOM     30  O   UNK A   2       3.459   3.125  16.910  0.00  0.00    +0.000 OA
ATOM     31  N   UNK A   2       3.772   5.364  17.477  0.00  0.00    +0.000 N 
ATOM     32  H   UNK A   2       4.261   6.200  17.175  0.00  0.00    +0.000 HD
BRANCH  31  33
ATOM     33  C   UNK A   2       3.043   5.492  18.681  0.00  0.00    +0.000 A 
ATOM     34  C   UNK A   2       2.475   6.681  19.135  0.00  0.00    +0.000 A 
ATOM     35  C   UNK A   2       1.808   6.725  20.368  0.00  0.00    +0.000 A 
ATOM     36  C   UNK A   2       1.702   5.576  21.154  0.00  0.00    +0.000 A 
ATOM     37  C   UNK A   2       2.266   4.380  20.705  0.00  0.00    +0.000 A 
ATOM     38  C   UNK A   2       2.933   4.341  19.469  0.00  0.00    +0.000 A 
BRANCH  37  39
ATOM     39  C   UNK A   2       2.174   3.132  21.508  0.00  0.00    +0.000 C 
ATOM     40  N   UNK A   2       3.201   2.386  21.775  0.00  0.00    +0.000 NA
ATOM     41  N   UNK A   2       0.973   2.719  21.999  0.00  0.00    +0.000 N 
ATOM     42  H   UNK A   2       4.049   2.742  21.327  0.00  0.00    +0.000 HD
ATOM     43  H   UNK A   2       0.358   3.450  22.339  0.00  0.00    +0.000 HD
ATOM     44  H   UNK A   2       1.101   1.977  22.681  0.00  0.00    +0.000 HD
ENDBRANCH  37  39
ENDBRANCH  31  33
ENDBRANCH  28  29
ENDBRANCH   5  28
TORSDOF 11
ENDMDL
MODEL 9
REMARK VINA RESULT:      -8.3      5.288     10.745
REMARK  Name = 
REMARK  11 active torsions:
REMARK  status: ('A' for Active; 'I' for Inactive)
REMARK    1  A    between atoms: N_4  and  C_5
REMARK    2  A    between atoms: C_5  and  C_6
REMARK    3  A    between atoms: N_8  and  C_9
REMARK    4  A    between atoms: C_9  and  C_10
REMARK    5  A    between atoms: C_10  and  C_11
REMARK    6  A    between atoms: C_11  and  C_12
REMARK    7  A    between atoms: C_12  and  C_13
REMARK    8  A    between atoms: C_17  and  C_18
REMARK    9  A    between atoms: C_18  and  C_19
REMARK   10  A    between atoms: N_21  and  C_22
REMARK   11  A    between atoms: C_26  and  C_27
REMARK                            x       y       z     vdW  Elec       q    Type
REMARK                         _______ _______ _______ _____ _____    ______ ____
ROOT
ATOM      1  C   UNK A   1      -0.434  11.612  20.766  0.00  0.00    +0.000 C 
ATOM      2  N   UNK A   1      -1.129  10.979  19.646  0.00  0.00    +0.000 N 
ATOM      3  C   UNK A   2      -0.520  10.477  18.525  0.00  0.00    +0.000 C 
ATOM      4  O   UNK A   2      -1.196   9.975  17.631  0.00  0.00    +0.000 OA
ATOM      5  C   UNK A   2       1.010  10.404  18.552  0.00  0.00    +0.000 C 
ATOM      6  N   UNK A   2       1.539  11.563  19.259  0.00  0.00    +0.000 N 
ATOM      7  C   UNK A   1       1.022  12.016  20.445  0.00  0.00    +0.000 C 
ATOM      8  O   UNK A   1       1.701  12.713  21.195  0.00  0.00    +0.000 OA
ATOM      9  H   UNK A   1      -2.141  11.000  19.612  0.00  0.00    +0.000 HD
ATOM     10  H   UNK A   2       2.515  11.797  19.102  0.00  0.00    +0.000 HD
ENDROOT
BRANCH   1  11
ATOM     11  C   UNK A   1      -0.511  10.795  22.072  0.00  0.00    +0.000 C 
BRANCH  11  12
ATOM     12  C   UNK A   1      -1.481  11.419  23.091  0.00  0.00    +0.000 C 
BRANCH  12  13
ATOM     13  C   UNK A   1      -1.468  12.955  23.152  0.00  0.00    +0.000 C 
BRANCH  13  14
ATOM     14  C   UNK A   1      -2.861  13.571  23.274  0.00  0.00    +0.000 C 
BRANCH  14  17
ATOM     15  C   UNK A   1      -4.770  12.944  21.818  0.00  0.00    +0.000 C 
ATOM     16  O   UNK A   1      -5.270  12.183  22.647  0.00  0.00    +0.000 OA
ATOM     17  N   UNK A   1      -3.585  13.616  22.023  0.00  0.00    +0.000 N 
ATOM     18  H   UNK A   1      -3.099  13.889  21.159  0.00  0.00    +0.000 HD
BRANCH  15  19
ATOM     19  C   UNK A   1      -5.453  13.271  20.489  0.00  0.00    +0.000 C 
BRANCH  19  23
ATOM     20  N   UNK A   1      -5.916  11.334  18.410  0.00  0.00    +0.000 NA
ATOM     21  C   UNK A   1      -4.819  12.000  18.479  0.00  0.00    +0.000 C 
ATOM     22  N   UNK A   1      -3.769  11.775  17.668  0.00  0.00    +0.000 N 
ATOM     23  N   UNK A   1      -4.587  13.004  19.348  0.00  0.00    +0.000 N 
ATOM     24  H   UNK A   1      -5.823  10.627  17.675  0.00  0.00    +0.000 HD
ATOM     25  H   UNK A   1      -3.973  11.266  16.818  0.00  0.00    +0.000 HD
ATOM     26  H   UNK A   1      -3.200  12.591  17.478  0.00  0.00    +0.000 HD
ATOM     27  H   UNK A   1      -3.619  13.241  19.514  0.00  0.00    +0.000 HD
ENDBRANCH  19  23
ENDBRANCH  15  19
ENDBRANCH  14  17
ENDBRANCH  13  14
ENDBRANCH  12  13
ENDBRANCH  11  12
ENDBRANCH   1  11
BRANCH   5  28
ATOM     28  C   UNK A   2       1.431   9.070  19.163  0.00  0.00    +0.000 C 
BRANCH  28  29
ATOM     29  C   UNK A   2       2.253   8.223  18.210  0.00  0.00    +0.000 C 
ATOM     30  O   UNK A   2       2.560   8.615  17.091  0.00  0.00    +0.000 OA
ATOM     31  N   UNK A   2       2.567   6.997  18.771  0.00  0.00    +0.000 N 
ATOM     32  H   UNK A   2       2.310   6.859  19.743  0.00  0.00    +0.000 HD
BRANCH  31  33
ATOM     33  C   UNK A   2       3.203   5.899  18.151  0.00  0.00    +0.000 A 
ATOM     34  C   UNK A   2       2.555   4.723  17.775  0.00  0.00    +0.000 A 
ATOM     35  C   UNK A   2       3.277   3.662  17.208  0.00  0.00    +0.000 A 
ATOM     36  C   UNK A   2       4.654   3.775  17.010  0.00  0.00    +0.000 A 
ATOM     37  C   UNK A   2       5.310   4.949  17.381  0.00  0.00    +0.000 A 
ATOM     38  C   UNK A   2       4.583   6.009  17.948  0.00  0.00    +0.000 A 
BRANCH  37  39
ATOM     39  C   UNK A   2       6.775   5.112  17.185  0.00  0.00    +0.000 C 
ATOM     40  N   UNK A   2       7.287   5.971  16.358  0.00  0.00    +0.000 NA
ATOM     41  N   UNK A   2       7.652   4.340  17.886  0.00  0.00    +0.000 N 
ATOM     42  H   UNK A   2       6.560   6.471  15.840  0.00  0.00    +0.000 HD
ATOM     43  H   UNK A   2       7.404   4.153  18.851  0.00  0.00    +0.000 HD
ATOM     44  H   UNK A   2       8.597   4.700  17.795  0.00  0.00    +0.000 HD
ENDBRANCH  37  39
ENDBRANCH  31  33
ENDBRANCH  28  29
ENDBRANCH   5  28
TORSDOF 11
ENDMDL
