MODEL 1
REMARK VINA RESULT:      -9.0      0.000      0.000
REMARK  Name = 
REMARK  8 active torsions:
REMARK  status: ('A' for Active; 'I' for Inactive)
REMARK    1  A    between atoms: C_1  and  C_2
REMARK    2  A    between atoms: C_2  and  O_3
REMARK    3  A    between atoms: O_3  and  C_4
REMARK    4  A    between atoms: C_6  and  C_7
REMARK    5  A    between atoms: N_9  and  C_10
REMARK    6  A    between atoms: C_10  and  C_11
REMARK    7  A    between atoms: C_15  and  C_16
REMARK    8  A    between atoms: C_23  and  C_24
REMARK                            x       y       z     vdW  Elec       q    Type
REMARK                         _______ _______ _______ _____ _____    ______ ____
ROOT
ATOM      1  C   UNL     1      -1.864  10.716  17.898  0.00  0.00    +0.000 A 
ATOM      2  C   UNL     1      -0.672  10.006  17.669  0.00  0.00    +0.000 A 
ATOM      3  C   UNL     1       0.448  10.150  18.510  0.00  0.00    +0.000 A 
ATOM      4  C   UNL     1       0.403  11.086  19.540  0.00  0.00    +0.000 A 
ATOM      5  C   UNL     1      -0.783  11.786  19.780  0.00  0.00    +0.000 A 
ATOM      6  C   UNL     1      -1.948  11.565  19.012  0.00  0.00    +0.000 A 
ENDROOT
BRANCH   6   7
ATOM      7  C   UNL     1      -3.190  12.124  19.551  0.00  0.00    +0.000 A 
ATOM      8  N   UNL     1      -3.360  12.582  20.777  0.00  0.00    +0.000 NA
ATOM      9  C   UNL     1      -4.715  12.625  20.975  0.00  0.00    +0.000 A 
ATOM     10  C   UNL     1      -5.427  12.854  22.156  0.00  0.00    +0.000 A 
ATOM     11  C   UNL     1      -6.812  12.681  22.120  0.00  0.00    +0.000 A 
ATOM     12 CL   UNL     1      -7.705  12.784  23.590  0.00  0.00    +0.000 Cl
ATOM     13  C   UNL     1      -7.482  12.375  20.931  0.00  0.00    +0.000 A 
ATOM     14  C   UNL     1      -6.787  12.210  19.728  0.00  0.00    +0.000 A 
ATOM     15  C   UNL     1      -5.398  12.305  19.809  0.00  0.00    +0.000 A 
ATOM     16  N   UNL     1      -4.403  12.062  18.900  0.00  0.00    +0.000 N 
ATOM     17  H   UNL     1      -4.534  11.739  17.953  0.00  0.00    +0.000 HD
ENDBRANCH   6   7
BRANCH   3  18
ATOM     18  C   UNL     1       1.627   9.270  18.269  0.00  0.00    +0.000 C 
ATOM     19  O   UNL     1       2.336   9.466  17.293  0.00  0.00    +0.000 OA
ATOM     20  N   UNL     1       1.817   8.218  19.151  0.00  0.00    +0.000 N 
ATOM     21  H   UNL     1       1.172   8.060  19.909  0.00  0.00    +0.000 HD
BRANCH  20  22
ATOM     22  C   UNL     1       2.868   7.237  18.956  0.00  0.00    +0.000 C 
BRANCH  22  23
ATOM     23  C   UNL     1       2.406   5.831  19.274  0.00  0.00    +0.000 A 
ATOM     24  C   UNL     1       1.551   5.589  20.358  0.00  0.00    +0.000 A 
ATOM     25  C   UNL     1       1.182   4.285  20.699  0.00  0.00    +0.000 A 
ATOM     26  C   UNL     1       1.660   3.205  19.959  0.00  0.00    +0.000 A 
ATOM     27  C   UNL     1       2.510   3.417  18.862  0.00  0.00    +0.000 A 
ATOM     28  C   UNL     1       2.877   4.735  18.531  0.00  0.00    +0.000 A 
BRANCH  27  29
ATOM     29  C   UNL     1       3.034   2.255  18.052  0.00  0.00    +0.000 C 
ATOM     30  F   UNL     1       3.314   1.150  18.801  0.00  0.00    +0.000 F 
ATOM     31  F   UNL     1       2.150   1.841  17.101  0.00  0.00    +0.000 F 
ATOM     32  F   UNL     1       4.185   2.554  17.389  0.00  0.00    +0.000 F 
ENDBRANCH  27  29
ENDBRANCH  22  23
ENDBRANCH  20  22
ENDBRANCH   3  18
BRANCH   1  33
ATOM     33  O   UNL     1      -2.874  10.395  17.028  0.00  0.00    +0.000 OA
BRANCH  33  35
ATOM     34  C   UNL     1      -3.369  10.066  14.683  0.00  0.00    +0.000 C 
ATOM     35  C   UNL     1      -2.892  11.032  15.746  0.00  0.00    +0.000 C 
ENDBRANCH  33  35
ENDBRANCH   1  33
TORSDOF 7
ENDMDL
MODEL 2
REMARK VINA RESULT:      -8.9      4.570      7.079
REMARK  Name = 
REMARK  8 active torsions:
REMARK  status: ('A' for Active; 'I' for Inactive)
REMARK    1  A    between atoms: C_1  and  C_2
REMARK    2  A    between atoms: C_2  and  O_3
REMARK    3  A    between atoms: O_3  and  C_4
REMARK    4  A    between atoms: C_6  and  C_7
REMARK    5  A    between atoms: N_9  and  C_10
REMARK    6  A    between atoms: C_10  and  C_11
REMARK    7  A    between atoms: C_15  and  C_16
REMARK    8  A    between atoms: C_23  and  C_24
REMARK                            x       y       z     vdW  Elec       q    Type
REMARK                         _______ _______ _______ _____ _____    ______ ____
ROOT
ATOM      1  C   UNL     1       2.306   6.046  19.831  0.00  0.00    +0.000 A 
ATOM      2  C   UNL     1       3.416   5.365  19.300  0.00  0.00    +0.000 A 
ATOM      3  C   UNL     1       4.189   5.912  18.258  0.00  0.00    +0.000 A 
ATOM      4  C   UNL     1       3.789   7.113  17.679  0.00  0.00    +0.000 A 
ATOM      5  C   UNL     1       2.694   7.800  18.209  0.00  0.00    +0.000 A 
ATOM      6  C   UNL     1       1.981   7.315  19.328  0.00  0.00    +0.000 A 
ENDROOT
BRANCH   6   7
ATOM      7  C   UNL     1       1.065   8.264  19.968  0.00  0.00    +0.000 A 
ATOM      8  N   UNL     1       0.882   9.520  19.607  0.00  0.00    +0.000 NA
ATOM      9  C   UNL     1       0.280  10.130  20.676  0.00  0.00    +0.000 A 
ATOM     10  C   UNL     1       0.039  11.490  20.894  0.00  0.00    +0.000 A 
ATOM     11  C   UNL     1      -0.447  11.868  22.147  0.00  0.00    +0.000 A 
ATOM     12 CL   UNL     1      -0.594  13.545  22.514  0.00  0.00    +0.000 Cl
ATOM     13  C   UNL     1      -0.765  10.922  23.126  0.00  0.00    +0.000 A 
ATOM     14  C   UNL     1      -0.591   9.552  22.895  0.00  0.00    +0.000 A 
ATOM     15  C   UNL     1      -0.027   9.208  21.667  0.00  0.00    +0.000 A 
ATOM     16  N   UNL     1       0.418   8.018  21.160  0.00  0.00    +0.000 N 
ATOM     17  H   UNL     1       0.415   7.131  21.642  0.00  0.00    +0.000 HD
ENDBRANCH   6   7
BRANCH   3  18
ATOM     18  C   UNL     1       5.420   5.182  17.838  0.00  0.00    +0.000 C 
ATOM     19  O   UNL     1       6.068   4.566  18.670  0.00  0.00    +0.000 OA
ATOM     20  N   UNL     1       5.800   5.302  16.511  0.00  0.00    +0.000 N 
ATOM     21  H   UNL     1       5.265   5.870  15.872  0.00  0.00    +0.000 HD
BRANCH  20  22
ATOM     22  C   UNL     1       7.033   4.724  16.013  0.00  0.00    +0.000 C 
BRANCH  22  23
ATOM     23  C   UNL     1       7.043   4.605  14.504  0.00  0.00    +0.000 A 
ATOM     24  C   UNL     1       8.036   5.238  13.744  0.00  0.00    +0.000 A 
ATOM     25  C   UNL     1       8.006   5.192  12.348  0.00  0.00    +0.000 A 
ATOM     26  C   UNL     1       6.983   4.509  11.692  0.00  0.00    +0.000 A 
ATOM     27  C   UNL     1       5.979   3.858  12.426  0.00  0.00    +0.000 A 
ATOM     28  C   UNL     1       6.019   3.914  13.832  0.00  0.00    +0.000 A 
BRANCH  27  29
ATOM     29  C   UNL     1       4.866   3.115  11.726  0.00  0.00    +0.000 C 
ATOM     30  F   UNL     1       4.445   3.718  10.577  0.00  0.00    +0.000 F 
ATOM     31  F   UNL     1       5.227   1.851  11.367  0.00  0.00    +0.000 F 
ATOM     32  F   UNL     1       3.755   2.981  12.502  0.00  0.00    +0.000 F 
ENDBRANCH  27  29
ENDBRANCH  22  23
ENDBRANCH  20  22
ENDBRANCH   3  18
BRANCH   1  33
ATOM     33  O   UNL     1       1.719   5.404  20.890  0.00  0.00    +0.000 OA
BRANCH  33  35
ATOM     34  C   UNL     1       1.838   3.115  21.666  0.00  0.00    +0.000 C 
ATOM     35  C   UNL     1       1.211   4.081  20.684  0.00  0.00    +0.000 C 
ENDBRANCH  33  35
ENDBRANCH   1  33
TORSDOF 7
ENDMDL
MODEL 3
REMARK VINA RESULT:      -8.9      1.419      1.872
REMARK  Name = 
REMARK  8 active torsions:
REMARK  status: ('A' for Active; 'I' for Inactive)
REMARK    1  A    between atoms: C_1  and  C_2
REMARK    2  A    between atoms: C_2  and  O_3
REMARK    3  A    between atoms: O_3  and  C_4
REMARK    4  A    between atoms: C_6  and  C_7
REMARK    5  A    between atoms: N_9  and  C_10
REMARK    6  A    between atoms: C_10  and  C_11
REMARK    7  A    between atoms: C_15  and  C_16
REMARK    8  A    between atoms: C_23  and  C_24
REMARK                            x       y       z     vdW  Elec       q    Type
REMARK                         _______ _______ _______ _____ _____    ______ ____
ROOT
ATOM      1  C   UNL     1      -1.750  10.882  18.004  0.00  0.00    +0.000 A 
ATOM      2  C   UNL     1      -0.587  10.156  17.690  0.00  0.00    +0.000 A 
ATOM      3  C   UNL     1       0.569  10.231  18.490  0.00  0.00    +0.000 A 
ATOM      4  C   UNL     1       0.590  11.114  19.565  0.00  0.00    +0.000 A 
ATOM      5  C   UNL     1      -0.566  11.829  19.890  0.00  0.00    +0.000 A 
ATOM      6  C   UNL     1      -1.766  11.675  19.161  0.00  0.00    +0.000 A 
ENDROOT
BRANCH   6   7
ATOM      7  C   UNL     1      -2.971  12.236  19.780  0.00  0.00    +0.000 A 
ATOM      8  N   UNL     1      -3.070  12.661  21.025  0.00  0.00    +0.000 NA
ATOM      9  C   UNL     1      -4.412  12.717  21.294  0.00  0.00    +0.000 A 
ATOM     10  C   UNL     1      -5.059  12.922  22.517  0.00  0.00    +0.000 A 
ATOM     11  C   UNL     1      -6.446  12.769  22.548  0.00  0.00    +0.000 A 
ATOM     12 CL   UNL     1      -7.260  12.843  24.065  0.00  0.00    +0.000 Cl
ATOM     13  C   UNL     1      -7.181  12.505  21.388  0.00  0.00    +0.000 A 
ATOM     14  C   UNL     1      -6.552  12.364  20.146  0.00  0.00    +0.000 A 
ATOM     15  C   UNL     1      -5.159  12.439  20.158  0.00  0.00    +0.000 A 
ATOM     16  N   UNL     1      -4.217  12.207  19.192  0.00  0.00    +0.000 N 
ATOM     17  H   UNL     1      -4.401  11.913  18.244  0.00  0.00    +0.000 HD
ENDBRANCH   6   7
BRANCH   3  18
ATOM     18  C   UNL     1       1.714   9.336  18.155  0.00  0.00    +0.000 C 
ATOM     19  O   UNL     1       2.440   9.612  17.212  0.00  0.00    +0.000 OA
ATOM     20  N   UNL     1       1.853   8.183  18.912  0.00  0.00    +0.000 N 
ATOM     21  H   UNL     1       1.195   7.967  19.644  0.00  0.00    +0.000 HD
BRANCH  20  22
ATOM     22  C   UNL     1       2.865   7.189  18.612  0.00  0.00    +0.000 C 
BRANCH  22  23
ATOM     23  C   UNL     1       2.358   5.776  18.810  0.00  0.00    +0.000 A 
ATOM     24  C   UNL     1       1.680   5.110  17.779  0.00  0.00    +0.000 A 
ATOM     25  C   UNL     1       1.146   3.835  17.983  0.00  0.00    +0.000 A 
ATOM     26  C   UNL     1       1.284   3.207  19.220  0.00  0.00    +0.000 A 
ATOM     27  C   UNL     1       1.966   3.845  20.268  0.00  0.00    +0.000 A 
ATOM     28  C   UNL     1       2.496   5.131  20.051  0.00  0.00    +0.000 A 
BRANCH  27  29
ATOM     29  C   UNL     1       2.122   3.175  21.612  0.00  0.00    +0.000 C 
ATOM     30  F   UNL     1       3.122   2.247  21.646  0.00  0.00    +0.000 F 
ATOM     31  F   UNL     1       2.408   4.061  22.606  0.00  0.00    +0.000 F 
ATOM     32  F   UNL     1       0.996   2.519  22.006  0.00  0.00    +0.000 F 
ENDBRANCH  27  29
ENDBRANCH  22  23
ENDBRANCH  20  22
ENDBRANCH   3  18
BRANCH   1  33
ATOM     33  O   UNL     1      -2.803  10.630  17.163  0.00  0.00    +0.000 OA
BRANCH  33  35
ATOM     34  C   UNL     1      -3.348  10.408  14.816  0.00  0.00    +0.000 C 
ATOM     35  C   UNL     1      -2.557   9.856  15.983  0.00  0.00    +0.000 C 
ENDBRANCH  33  35
ENDBRANCH   1  33
TORSDOF 7
ENDMDL
MODEL 4
REMARK VINA RESULT:      -8.9      3.000      4.167
REMARK  Name = 
REMARK  8 active torsions:
REMARK  status: ('A' for Active; 'I' for Inactive)
REMARK    1  A    between atoms: C_1  and  C_2
REMARK    2  A    between atoms: C_2  and  O_3
REMARK    3  A    between atoms: O_3  and  C_4
REMARK    4  A    between atoms: C_6  and  C_7
REMARK    5  A    between atoms: N_9  and  C_10
REMARK    6  A    between atoms: C_10  and  C_11
REMARK    7  A    between atoms: C_15  and  C_16
REMARK    8  A    between atoms: C_23  and  C_24
REMARK                            x       y       z     vdW  Elec       q    Type
REMARK                         _______ _______ _______ _____ _____    ______ ____
ROOT
ATOM      1  C   UNL     1       1.032  10.146  19.549  0.00  0.00    +0.000 A 
ATOM      2  C   UNL     1       1.703   9.009  19.065  0.00  0.00    +0.000 A 
ATOM      3  C   UNL     1       1.867   7.856  19.855  0.00  0.00    +0.000 A 
ATOM      4  C   UNL     1       1.434   7.875  21.177  0.00  0.00    +0.000 A 
ATOM      5  C   UNL     1       0.755   8.997  21.661  0.00  0.00    +0.000 A 
ATOM      6  C   UNL     1       0.485  10.115  20.841  0.00  0.00    +0.000 A 
ENDROOT
BRANCH   6   7
ATOM      7  C   UNL     1      -0.486  11.079  21.367  0.00  0.00    +0.000 A 
ATOM      8  N   UNL     1      -0.940  11.117  22.605  0.00  0.00    +0.000 NA
ATOM      9  C   UNL     1      -2.081  11.874  22.560  0.00  0.00    +0.000 A 
ATOM     10  C   UNL     1      -3.047  12.072  23.552  0.00  0.00    +0.000 A 
ATOM     11  C   UNL     1      -4.207  12.763  23.196  0.00  0.00    +0.000 A 
ATOM     12 CL   UNL     1      -5.493  12.879  24.336  0.00  0.00    +0.000 Cl
ATOM     13  C   UNL     1      -4.369  13.315  21.921  0.00  0.00    +0.000 A 
ATOM     14  C   UNL     1      -3.379  13.181  20.940  0.00  0.00    +0.000 A 
ATOM     15  C   UNL     1      -2.269  12.416  21.296  0.00  0.00    +0.000 A 
ATOM     16  N   UNL     1      -1.201  11.953  20.576  0.00  0.00    +0.000 N 
ATOM     17  H   UNL     1      -1.045  12.099  19.590  0.00  0.00    +0.000 HD
ENDBRANCH   6   7
BRANCH   3  18
ATOM     18  C   UNL     1       2.482   6.653  19.223  0.00  0.00    +0.000 C 
ATOM     19  O   UNL     1       2.227   6.386  18.059  0.00  0.00    +0.000 OA
ATOM     20  N   UNL     1       3.275   5.854  20.032  0.00  0.00    +0.000 N 
ATOM     21  H   UNL     1       3.410   6.082  21.005  0.00  0.00    +0.000 HD
BRANCH  20  22
ATOM     22  C   UNL     1       3.839   4.605  19.557  0.00  0.00    +0.000 C 
BRANCH  22  23
ATOM     23  C   UNL     1       5.100   4.818  18.747  0.00  0.00    +0.000 A 
ATOM     24  C   UNL     1       6.244   5.371  19.340  0.00  0.00    +0.000 A 
ATOM     25  C   UNL     1       7.385   5.637  18.578  0.00  0.00    +0.000 A 
ATOM     26  C   UNL     1       7.400   5.351  17.214  0.00  0.00    +0.000 A 
ATOM     27  C   UNL     1       6.273   4.787  16.595  0.00  0.00    +0.000 A 
ATOM     28  C   UNL     1       5.128   4.527  17.372  0.00  0.00    +0.000 A 
BRANCH  27  29
ATOM     29  C   UNL     1       6.277   4.472  15.118  0.00  0.00    +0.000 C 
ATOM     30  F   UNL     1       6.136   3.144  14.843  0.00  0.00    +0.000 F 
ATOM     31  F   UNL     1       5.266   5.096  14.450  0.00  0.00    +0.000 F 
ATOM     32  F   UNL     1       7.428   4.858  14.502  0.00  0.00    +0.000 F 
ENDBRANCH  27  29
ENDBRANCH  22  23
ENDBRANCH  20  22
ENDBRANCH   3  18
BRANCH   1  33
ATOM     33  O   UNL     1       0.896  11.145  18.621  0.00  0.00    +0.000 OA
BRANCH  33  35
ATOM     34  C   UNL     1       2.146  13.017  19.510  0.00  0.00    +0.000 C 
ATOM     35  C   UNL     1       2.013  12.010  18.388  0.00  0.00    +0.000 C 
ENDBRANCH  33  35
ENDBRANCH   1  33
TORSDOF 7
ENDMDL
MODEL 5
REMARK VINA RESULT:      -8.6      4.368      6.839
REMARK  Name = 
REMARK  8 active torsions:
REMARK  status: ('A' for Active; 'I' for Inactive)
REMARK    1  A    between atoms: C_1  and  C_2
REMARK    2  A    between atoms: C_2  and  O_3
REMARK    3  A    between atoms: O_3  and  C_4
REMARK    4  A    between atoms: C_6  and  C_7
REMARK    5  A    between atoms: N_9  and  C_10
REMARK    6  A    between atoms: C_10  and  C_11
REMARK    7  A    between atoms: C_15  and  C_16
REMARK    8  A    between atoms: C_23  and  C_24
REMARK                            x       y       z     vdW  Elec       q    Type
REMARK                         _______ _______ _______ _____ _____    ______ ____
ROOT
ATOM      1  C   UNL     1       2.222   6.392  19.545  0.00  0.00    +0.000 A 
ATOM      2  C   UNL     1       3.052   5.492  18.854  0.00  0.00    +0.000 A 
ATOM      3  C   UNL     1       3.793   5.889  17.725  0.00  0.00    +0.000 A 
ATOM      4  C   UNL     1       3.631   7.180  17.229  0.00  0.00    +0.000 A 
ATOM      5  C   UNL     1       2.817   8.083  17.919  0.00  0.00    +0.000 A 
ATOM      6  C   UNL     1       2.157   7.727  19.117  0.00  0.00    +0.000 A 
ENDROOT
BRANCH   6   7
ATOM      7  C   UNL     1       1.594   8.834  19.895  0.00  0.00    +0.000 A 
ATOM      8  N   UNL     1       1.166   8.760  21.141  0.00  0.00    +0.000 NA
ATOM      9  C   UNL     1       0.379   9.865  21.331  0.00  0.00    +0.000 A 
ATOM     10  C   UNL     1      -0.464  10.174  22.403  0.00  0.00    +0.000 A 
ATOM     11  C   UNL     1      -1.287  11.294  22.276  0.00  0.00    +0.000 A 
ATOM     12 CL   UNL     1      -2.461  11.609  23.497  0.00  0.00    +0.000 Cl
ATOM     13  C   UNL     1      -1.218  12.132  21.159  0.00  0.00    +0.000 A 
ATOM     14  C   UNL     1      -0.329  11.871  20.109  0.00  0.00    +0.000 A 
ATOM     15  C   UNL     1       0.421  10.701  20.224  0.00  0.00    +0.000 A 
ATOM     16  N   UNL     1       1.258  10.056  19.354  0.00  0.00    +0.000 N 
ATOM     17  H   UNL     1       1.473  10.349  18.412  0.00  0.00    +0.000 HD
ENDBRANCH   6   7
BRANCH   3  18
ATOM     18  C   UNL     1       4.741   4.907  17.125  0.00  0.00    +0.000 C 
ATOM     19  O   UNL     1       4.488   3.713  17.181  0.00  0.00    +0.000 OA
ATOM     20  N   UNL     1       5.913   5.414  16.584  0.00  0.00    +0.000 N 
ATOM     21  H   UNL     1       6.107   6.403  16.613  0.00  0.00    +0.000 HD
BRANCH  20  22
ATOM     22  C   UNL     1       6.955   4.547  16.068  0.00  0.00    +0.000 C 
BRANCH  22  23
ATOM     23  C   UNL     1       6.973   4.511  14.554  0.00  0.00    +0.000 A 
ATOM     24  C   UNL     1       7.949   5.215  13.836  0.00  0.00    +0.000 A 
ATOM     25  C   UNL     1       7.925   5.244  12.439  0.00  0.00    +0.000 A 
ATOM     26  C   UNL     1       6.925   4.568  11.741  0.00  0.00    +0.000 A 
ATOM     27  C   UNL     1       5.940   3.847  12.433  0.00  0.00    +0.000 A 
ATOM     28  C   UNL     1       5.973   3.828  13.840  0.00  0.00    +0.000 A 
BRANCH  27  29
ATOM     29  C   UNL     1       4.851   3.111  11.688  0.00  0.00    +0.000 C 
ATOM     30  F   UNL     1       4.498   3.704  10.512  0.00  0.00    +0.000 F 
ATOM     31  F   UNL     1       5.211   1.837  11.365  0.00  0.00    +0.000 F 
ATOM     32  F   UNL     1       3.701   3.004  12.409  0.00  0.00    +0.000 F 
ENDBRANCH  27  29
ENDBRANCH  22  23
ENDBRANCH  20  22
ENDBRANCH   3  18
BRANCH   1  33
ATOM     33  O   UNL     1       1.637   5.857  20.664  0.00  0.00    +0.000 OA
BRANCH  33  35
ATOM     34  C   UNL     1       1.122   3.498  20.820  0.00  0.00    +0.000 C 
ATOM     35  C   UNL     1       2.116   4.594  21.140  0.00  0.00    +0.000 C 
ENDBRANCH  33  35
ENDBRANCH   1  33
TORSDOF 7
ENDMDL
MODEL 6
REMARK VINA RESULT:      -8.6      2.797      3.791
REMARK  Name = 
REMARK  8 active torsions:
REMARK  status: ('A' for Active; 'I' for Inactive)
REMARK    1  A    between atoms: C_1  and  C_2
REMARK    2  A    between atoms: C_2  and  O_3
REMARK    3  A    between atoms: O_3  and  C_4
REMARK    4  A    between atoms: C_6  and  C_7
REMARK    5  A    between atoms: N_9  and  C_10
REMARK    6  A    between atoms: C_10  and  C_11
REMARK    7  A    between atoms: C_15  and  C_16
REMARK    8  A    between atoms: C_23  and  C_24
REMARK                            x       y       z     vdW  Elec       q    Type
REMARK                         _______ _______ _______ _____ _____    ______ ____
ROOT
ATOM      1  C   UNL     1       0.538  10.016  19.315  0.00  0.00    +0.000 A 
ATOM      2  C   UNL     1       1.239   8.888  18.854  0.00  0.00    +0.000 A 
ATOM      3  C   UNL     1       1.820   7.965  19.744  0.00  0.00    +0.000 A 
ATOM      4  C   UNL     1       1.777   8.224  21.111  0.00  0.00    +0.000 A 
ATOM      5  C   UNL     1       1.071   9.338  21.576  0.00  0.00    +0.000 A 
ATOM      6  C   UNL     1       0.388  10.208  20.697  0.00  0.00    +0.000 A 
ENDROOT
BRANCH   6   7
ATOM      7  C   UNL     1      -0.554  11.142  21.320  0.00  0.00    +0.000 A 
ATOM      8  N   UNL     1      -0.999  11.074  22.560  0.00  0.00    +0.000 NA
ATOM      9  C   UNL     1      -2.119  11.861  22.597  0.00  0.00    +0.000 A 
ATOM     10  C   UNL     1      -3.074  11.990  23.611  0.00  0.00    +0.000 A 
ATOM     11  C   UNL     1      -4.217  12.742  23.331  0.00  0.00    +0.000 A 
ATOM     12 CL   UNL     1      -5.493  12.782  24.488  0.00  0.00    +0.000 Cl
ATOM     13  C   UNL     1      -4.372  13.417  22.116  0.00  0.00    +0.000 A 
ATOM     14  C   UNL     1      -3.392  13.350  21.119  0.00  0.00    +0.000 A 
ATOM     15  C   UNL     1      -2.301  12.526  21.392  0.00  0.00    +0.000 A 
ATOM     16  N   UNL     1      -1.250  12.106  20.622  0.00  0.00    +0.000 N 
ATOM     17  H   UNL     1      -1.095  12.341  19.652  0.00  0.00    +0.000 HD
ENDBRANCH   6   7
BRANCH   3  18
ATOM     18  C   UNL     1       2.439   6.733  19.175  0.00  0.00    +0.000 C 
ATOM     19  O   UNL     1       2.191   6.411  18.023  0.00  0.00    +0.000 OA
ATOM     20  N   UNL     1       3.227   5.974  20.026  0.00  0.00    +0.000 N 
ATOM     21  H   UNL     1       3.357   6.249  20.987  0.00  0.00    +0.000 HD
BRANCH  20  22
ATOM     22  C   UNL     1       3.794   4.704  19.614  0.00  0.00    +0.000 C 
BRANCH  22  23
ATOM     23  C   UNL     1       5.070   4.878  18.818  0.00  0.00    +0.000 A 
ATOM     24  C   UNL     1       6.233   5.366  19.431  0.00  0.00    +0.000 A 
ATOM     25  C   UNL     1       7.391   5.597  18.683  0.00  0.00    +0.000 A 
ATOM     26  C   UNL     1       7.402   5.340  17.313  0.00  0.00    +0.000 A 
ATOM     27  C   UNL     1       6.256   4.842  16.674  0.00  0.00    +0.000 A 
ATOM     28  C   UNL     1       5.096   4.617  17.437  0.00  0.00    +0.000 A 
BRANCH  27  29
ATOM     29  C   UNL     1       6.257   4.560  15.190  0.00  0.00    +0.000 C 
ATOM     30  F   UNL     1       6.159   3.233  14.887  0.00  0.00    +0.000 F 
ATOM     31  F   UNL     1       5.221   5.164  14.544  0.00  0.00    +0.000 F 
ATOM     32  F   UNL     1       7.390   4.997  14.573  0.00  0.00    +0.000 F 
ENDBRANCH  27  29
ENDBRANCH  22  23
ENDBRANCH  20  22
ENDBRANCH   3  18
BRANCH   1  33
ATOM     33  O   UNL     1      -0.027  10.763  18.314  0.00  0.00    +0.000 OA
BRANCH  33  35
ATOM     34  C   UNL     1      -2.180  11.241  17.318  0.00  0.00    +0.000 C 
ATOM     35  C   UNL     1      -1.118  10.195  17.580  0.00  0.00    +0.000 C 
ENDBRANCH  33  35
ENDBRANCH   1  33
TORSDOF 7
ENDMDL
MODEL 7
REMARK VINA RESULT:      -8.5      3.278      4.658
REMARK  Name = 
REMARK  8 active torsions:
REMARK  status: ('A' for Active; 'I' for Inactive)
REMARK    1  A    between atoms: C_1  and  C_2
REMARK    2  A    between atoms: C_2  and  O_3
REMARK    3  A    between atoms: O_3  and  C_4
REMARK    4  A    between atoms: C_6  and  C_7
REMARK    5  A    between atoms: N_9  and  C_10
REMARK    6  A    between atoms: C_10  and  C_11
REMARK    7  A    between atoms: C_15  and  C_16
REMARK    8  A    between atoms: C_23  and  C_24
REMARK                            x       y       z     vdW  Elec       q    Type
REMARK                         _______ _______ _______ _____ _____    ______ ____
ROOT
ATOM      1  C   UNL     1       1.213   9.506  19.424  0.00  0.00    +0.000 A 
ATOM      2  C   UNL     1       1.779   8.265  19.083  0.00  0.00    +0.000 A 
ATOM      3  C   UNL     1       1.881   7.217  20.018  0.00  0.00    +0.000 A 
ATOM      4  C   UNL     1       1.493   7.447  21.335  0.00  0.00    +0.000 A 
ATOM      5  C   UNL     1       0.918   8.674  21.677  0.00  0.00    +0.000 A 
ATOM      6  C   UNL     1       0.708   9.692  20.720  0.00  0.00    +0.000 A 
ENDROOT
BRANCH   6   7
ATOM      7  C   UNL     1      -0.170  10.791  21.131  0.00  0.00    +0.000 A 
ATOM      8  N   UNL     1      -0.598  11.017  22.359  0.00  0.00    +0.000 NA
ATOM      9  C   UNL     1      -1.671  11.857  22.230  0.00  0.00    +0.000 A 
ATOM     10  C   UNL     1      -2.600  12.256  23.197  0.00  0.00    +0.000 A 
ATOM     11  C   UNL     1      -3.703  12.996  22.767  0.00  0.00    +0.000 A 
ATOM     12 CL   UNL     1      -4.956  13.358  23.894  0.00  0.00    +0.000 Cl
ATOM     13  C   UNL     1      -3.840  13.402  21.436  0.00  0.00    +0.000 A 
ATOM     14  C   UNL     1      -2.882  13.067  20.472  0.00  0.00    +0.000 A 
ATOM     15  C   UNL     1      -1.835  12.258  20.911  0.00  0.00    +0.000 A 
ATOM     16  N   UNL     1      -0.822  11.621  20.245  0.00  0.00    +0.000 N 
ATOM     17  H   UNL     1      -0.671  11.634  19.247  0.00  0.00    +0.000 HD
ENDBRANCH   6   7
BRANCH   3  18
ATOM     18  C   UNL     1       2.381   5.896  19.542  0.00  0.00    +0.000 C 
ATOM     19  O   UNL     1       2.709   5.046  20.356  0.00  0.00    +0.000 OA
ATOM     20  N   UNL     1       2.508   5.728  18.172  0.00  0.00    +0.000 N 
ATOM     21  H   UNL     1       2.279   6.479  17.539  0.00  0.00    +0.000 HD
BRANCH  20  22
ATOM     22  C   UNL     1       3.081   4.525  17.598  0.00  0.00    +0.000 C 
BRANCH  22  23
ATOM     23  C   UNL     1       4.540   4.700  17.239  0.00  0.00    +0.000 A 
ATOM     24  C   UNL     1       5.004   4.374  15.956  0.00  0.00    +0.000 A 
ATOM     25  C   UNL     1       6.363   4.464  15.644  0.00  0.00    +0.000 A 
ATOM     26  C   UNL     1       7.277   4.885  16.609  0.00  0.00    +0.000 A 
ATOM     27  C   UNL     1       6.841   5.228  17.898  0.00  0.00    +0.000 A 
ATOM     28  C   UNL     1       5.470   5.129  18.202  0.00  0.00    +0.000 A 
BRANCH  27  29
ATOM     29  C   UNL     1       7.822   5.685  18.952  0.00  0.00    +0.000 C 
ATOM     30  F   UNL     1       8.373   6.906  18.692  0.00  0.00    +0.000 F 
ATOM     31  F   UNL     1       7.251   5.793  20.184  0.00  0.00    +0.000 F 
ATOM     32  F   UNL     1       8.872   4.830  19.099  0.00  0.00    +0.000 F 
ENDBRANCH  27  29
ENDBRANCH  22  23
ENDBRANCH  20  22
ENDBRANCH   3  18
BRANCH   1  33
ATOM     33  O   UNL     1       1.123  10.380  18.372  0.00  0.00    +0.000 OA
BRANCH  33  35
ATOM     34  C   UNL     1       2.228  12.533  18.377  0.00  0.00    +0.000 C 
ATOM     35  C   UNL     1       2.307  11.078  17.969  0.00  0.00    +0.000 C 
ENDBRANCH  33  35
ENDBRANCH   1  33
TORSDOF 7
ENDMDL
MODEL 8
REMARK VINA RESULT:      -8.4      4.579      6.044
REMARK  Name = 
REMARK  8 active torsions:
REMARK  status: ('A' for Active; 'I' for Inactive)
REMARK    1  A    between atoms: C_1  and  C_2
REMARK    2  A    between atoms: C_2  and  O_3
REMARK    3  A    between atoms: O_3  and  C_4
REMARK    4  A    between atoms: C_6  and  C_7
REMARK    5  A    between atoms: N_9  and  C_10
REMARK    6  A    between atoms: C_10  and  C_11
REMARK    7  A    between atoms: C_15  and  C_16
REMARK    8  A    between atoms: C_23  and  C_24
REMARK                            x       y       z     vdW  Elec       q    Type
REMARK                         _______ _______ _______ _____ _____    ______ ____
ROOT
ATOM      1  C   UNL     1       1.227   9.359  20.313  0.00  0.00    +0.000 A 
ATOM      2  C   UNL     1       1.734   8.047  20.285  0.00  0.00    +0.000 A 
ATOM      3  C   UNL     1       2.148   7.441  19.084  0.00  0.00    +0.000 A 
ATOM      4  C   UNL     1       1.967   8.123  17.884  0.00  0.00    +0.000 A 
ATOM      5  C   UNL     1       1.475   9.431  17.906  0.00  0.00    +0.000 A 
ATOM      6  C   UNL     1       1.164  10.090  19.117  0.00  0.00    +0.000 A 
ENDROOT
BRANCH   6   7
ATOM      7  C   UNL     1       0.955  11.538  19.026  0.00  0.00    +0.000 A 
ATOM      8  N   UNL     1       1.790  12.403  18.482  0.00  0.00    +0.000 NA
ATOM      9  C   UNL     1       1.415  13.632  18.957  0.00  0.00    +0.000 A 
ATOM     10  C   UNL     1       2.075  14.860  18.845  0.00  0.00    +0.000 A 
ATOM     11  C   UNL     1       1.559  15.939  19.565  0.00  0.00    +0.000 A 
ATOM     12 CL   UNL     1       2.437  17.421  19.592  0.00  0.00    +0.000 Cl
ATOM     13  C   UNL     1       0.377  15.829  20.305  0.00  0.00    +0.000 A 
ATOM     14  C   UNL     1      -0.330  14.623  20.369  0.00  0.00    +0.000 A 
ATOM     15  C   UNL     1       0.253  13.540  19.710  0.00  0.00    +0.000 A 
ATOM     16  N   UNL     1      -0.058  12.208  19.677  0.00  0.00    +0.000 N 
ATOM     17  H   UNL     1      -0.816  11.764  20.175  0.00  0.00    +0.000 HD
ENDBRANCH   6   7
BRANCH   3  18
ATOM     18  C   UNL     1       2.787   6.095  19.160  0.00  0.00    +0.000 C 
ATOM     19  O   UNL     1       3.283   5.722  20.212  0.00  0.00    +0.000 OA
ATOM     20  N   UNL     1       2.837   5.356  17.988  0.00  0.00    +0.000 N 
ATOM     21  H   UNL     1       2.466   5.730  17.129  0.00  0.00    +0.000 HD
BRANCH  20  22
ATOM     22  C   UNL     1       3.524   4.081  17.917  0.00  0.00    +0.000 C 
BRANCH  22  23
ATOM     23  C   UNL     1       4.838   4.178  17.172  0.00  0.00    +0.000 A 
ATOM     24  C   UNL     1       6.020   4.509  17.849  0.00  0.00    +0.000 A 
ATOM     25  C   UNL     1       7.221   4.672  17.152  0.00  0.00    +0.000 A 
ATOM     26  C   UNL     1       7.256   4.504  15.769  0.00  0.00    +0.000 A 
ATOM     27  C   UNL     1       6.091   4.163  15.065  0.00  0.00    +0.000 A 
ATOM     28  C   UNL     1       4.887   4.005  15.778  0.00  0.00    +0.000 A 
BRANCH  27  29
ATOM     29  C   UNL     1       6.117   3.978  13.566  0.00  0.00    +0.000 C 
ATOM     30  F   UNL     1       6.984   4.816  12.928  0.00  0.00    +0.000 F 
ATOM     31  F   UNL     1       6.487   2.718  13.203  0.00  0.00    +0.000 F 
ATOM     32  F   UNL     1       4.902   4.193  12.989  0.00  0.00    +0.000 F 
ENDBRANCH  27  29
ENDBRANCH  22  23
ENDBRANCH  20  22
ENDBRANCH   3  18
BRANCH   1  33
ATOM     33  O   UNL     1       0.947   9.817  21.574  0.00  0.00    +0.000 OA
BRANCH  33  35
ATOM     34  C   UNL     1      -0.859  10.304  23.109  0.00  0.00    +0.000 C 
ATOM     35  C   UNL     1      -0.172   9.252  22.267  0.00  0.00    +0.000 C 
ENDBRANCH  33  35
ENDBRANCH   1  33
TORSDOF 7
ENDMDL
MODEL 9
REMARK VINA RESULT:      -8.3      4.023      5.267
REMARK  Name = 
REMARK  8 active torsions:
REMARK  status: ('A' for Active; 'I' for Inactive)
REMARK    1  A    between atoms: C_1  and  C_2
REMARK    2  A    between atoms: C_2  and  O_3
REMARK    3  A    between atoms: O_3  and  C_4
REMARK    4  A    between atoms: C_6  and  C_7
REMARK    5  A    between atoms: N_9  and  C_10
REMARK    6  A    between atoms: C_10  and  C_11
REMARK    7  A    between atoms: C_15  and  C_16
REMARK    8  A    between atoms: C_23  and  C_24
REMARK                            x       y       z     vdW  Elec       q    Type
REMARK                         _______ _______ _______ _____ _____    ______ ____
ROOT
ATOM      1  C   UNL     1       1.082   9.620  20.938  0.00  0.00    +0.000 A 
ATOM      2  C   UNL     1       1.574   8.361  20.549  0.00  0.00    +0.000 A 
ATOM      3  C   UNL     1       1.831   8.054  19.200  0.00  0.00    +0.000 A 
ATOM      4  C   UNL     1       1.506   8.988  18.220  0.00  0.00    +0.000 A 
ATOM      5  C   UNL     1       1.029  10.245  18.601  0.00  0.00    +0.000 A 
ATOM      6  C   UNL     1       0.874  10.603  19.959  0.00  0.00    +0.000 A 
ENDROOT
BRANCH   6   7
ATOM      7  C   UNL     1       0.665  12.028  20.228  0.00  0.00    +0.000 A 
ATOM      8  N   UNL     1       1.428  12.787  20.992  0.00  0.00    +0.000 NA
ATOM      9  C   UNL     1       0.676  13.894  21.286  0.00  0.00    +0.000 A 
ATOM     10  C   UNL     1       0.933  14.916  22.205  0.00  0.00    +0.000 A 
ATOM     11  C   UNL     1      -0.079  15.851  22.433  0.00  0.00    +0.000 A 
ATOM     12 CL   UNL     1       0.131  17.021  23.680  0.00  0.00    +0.000 Cl
ATOM     13  C   UNL     1      -1.276  15.825  21.711  0.00  0.00    +0.000 A 
ATOM     14  C   UNL     1      -1.518  14.847  20.740  0.00  0.00    +0.000 A 
ATOM     15  C   UNL     1      -0.526  13.878  20.592  0.00  0.00    +0.000 A 
ATOM     16  N   UNL     1      -0.475  12.715  19.871  0.00  0.00    +0.000 N 
ATOM     17  H   UNL     1      -1.215  12.344  19.294  0.00  0.00    +0.000 HD
ENDBRANCH   6   7
BRANCH   3  18
ATOM     18  C   UNL     1       2.466   6.742  18.886  0.00  0.00    +0.000 C 
ATOM     19  O   UNL     1       2.125   6.130  17.885  0.00  0.00    +0.000 OA
ATOM     20  N   UNL     1       3.382   6.251  19.805  0.00  0.00    +0.000 N 
ATOM     21  H   UNL     1       3.589   6.764  20.647  0.00  0.00    +0.000 HD
BRANCH  20  22
ATOM     22  C   UNL     1       3.984   4.939  19.658  0.00  0.00    +0.000 C 
BRANCH  22  23
ATOM     23  C   UNL     1       5.246   4.978  18.823  0.00  0.00    +0.000 A 
ATOM     24  C   UNL     1       6.467   5.367  19.392  0.00  0.00    +0.000 A 
ATOM     25  C   UNL     1       7.618   5.475  18.607  0.00  0.00    +0.000 A 
ATOM     26  C   UNL     1       7.565   5.193  17.243  0.00  0.00    +0.000 A 
ATOM     27  C   UNL     1       6.359   4.792  16.648  0.00  0.00    +0.000 A 
ATOM     28  C   UNL     1       5.206   4.690  17.448  0.00  0.00    +0.000 A 
BRANCH  27  29
ATOM     29  C   UNL     1       6.290   4.483  15.171  0.00  0.00    +0.000 C 
ATOM     30  F   UNL     1       6.120   3.157  14.898  0.00  0.00    +0.000 F 
ATOM     31  F   UNL     1       5.257   5.121  14.553  0.00  0.00    +0.000 F 
ATOM     32  F   UNL     1       7.415   4.857  14.502  0.00  0.00    +0.000 F 
ENDBRANCH  27  29
ENDBRANCH  22  23
ENDBRANCH  20  22
ENDBRANCH   3  18
BRANCH   1  33
ATOM     33  O   UNL     1       0.964   9.772  22.296  0.00  0.00    +0.000 OA
BRANCH  33  35
ATOM     34  C   UNL     1      -1.102  10.744  23.098  0.00  0.00    +0.000 C 
ATOM     35  C   UNL     1      -0.299   9.476  22.903  0.00  0.00    +0.000 C 
ENDBRANCH  33  35
ENDBRANCH   1  33
TORSDOF 7
ENDMDL
