MODEL 1
REMARK VINA RESULT:      -6.8      0.000      0.000
REMARK  Name = 
REMARK  9 active torsions:
REMARK  status: ('A' for Active; 'I' for Inactive)
REMARK    1  A    between atoms: C_1  and  S_2
REMARK    2  A    between atoms: S_2  and  C_3
REMARK    3  A    between atoms: C_3  and  C_4
REMARK    4  A    between atoms: C_4  and  C_5
REMARK    5  A    between atoms: C_5  and  C_6
REMARK    6  A    between atoms: C_6  and  C_7
REMARK    7  A    between atoms: C_6  and  C_8
REMARK    8  A    between atoms: C_21  and  C_22
REMARK    9  A    between atoms: C_26  and  C_27
REMARK                            x       y       z     vdW  Elec       q    Type
REMARK                         _______ _______ _______ _____ _____    ______ ____
ROOT
ATOM      1  C   UNL     1      -0.101  11.454  19.726  0.00  0.00    +0.000 C 
ATOM      2  C   UNL     1      -0.760  10.920  21.032  0.00  0.00    +0.000 C 
ATOM      3  C   UNL     1      -0.280   9.482  21.239  0.00  0.00    +0.000 C 
ATOM      4  C   UNL     1       0.889   9.344  20.281  0.00  0.00    +0.000 C 
ATOM      5  C   UNL     1       1.320   7.928  19.904  0.00  0.00    +0.000 C 
ATOM      6  C   UNL     1       1.729   7.074  21.111  0.00  0.00    +0.000 C 
ATOM      7  C   UNL     1       2.099   5.658  20.669  0.00  0.00    +0.000 C 
ATOM      8  C   UNL     1       3.108   5.632  19.541  0.00  0.00    +0.000 C 
ATOM      9  C   UNL     1       4.184   4.828  19.630  0.00  0.00    +0.000 C 
ATOM     10  C   UNL     1       5.129   4.673  18.503  0.00  0.00    +0.000 C 
ATOM     11  O   UNL     1       6.133   3.974  18.646  0.00  0.00    +0.000 OA
ATOM     12  C   UNL     1       4.767   5.299  17.185  0.00  0.00    +0.000 C 
ATOM     13  C   UNL     1       4.082   6.637  17.416  0.00  0.00    +0.000 C 
ATOM     14  C   UNL     1       2.830   6.539  18.334  0.00  0.00    +0.000 C 
ATOM     15  C   UNL     1       1.670   5.927  17.513  0.00  0.00    +0.000 C 
ATOM     16  C   UNL     1       2.489   7.977  18.874  0.00  0.00    +0.000 C 
ATOM     17  C   UNL     1       2.312   9.032  17.750  0.00  0.00    +0.000 C 
ATOM     18  C   UNL     1       1.733  10.372  18.217  0.00  0.00    +0.000 C 
ATOM     19  C   UNL     1       0.450  10.169  19.040  0.00  0.00    +0.000 C 
ATOM     20  C   UNL     1      -0.631   9.460  18.186  0.00  0.00    +0.000 C 
ENDROOT
BRANCH   1  21
ATOM     21  C   UNL     1      -1.059  12.415  18.949  0.00  0.00    +0.000 C 
ATOM     22  C   UNL     1      -0.362  13.701  18.498  0.00  0.00    +0.000 C 
BRANCH  21  23
ATOM     23  C   UNL     1      -2.278  12.747  19.854  0.00  0.00    +0.000 C 
BRANCH  23  24
ATOM     24  C   UNL     1      -3.657  12.308  19.342  0.00  0.00    +0.000 C 
BRANCH  24  25
ATOM     25  C   UNL     1      -3.478  11.276  18.223  0.00  0.00    +0.000 C 
BRANCH  25  27
ATOM     26  C   UNL     1      -3.730  10.726  15.540  0.00  0.00    +0.000 C 
ATOM     27  S   UNL     1      -4.640  11.574  16.858  0.00  0.00    +0.000 S 
ENDBRANCH  25  27
ENDBRANCH  24  25
ENDBRANCH  23  24
ENDBRANCH  21  23
ENDBRANCH   1  21
TORSDOF 5
ENDMDL
MODEL 2
REMARK VINA RESULT:      -6.4      1.656      2.222
REMARK  Name = 
REMARK  9 active torsions:
REMARK  status: ('A' for Active; 'I' for Inactive)
REMARK    1  A    between atoms: C_1  and  S_2
REMARK    2  A    between atoms: S_2  and  C_3
REMARK    3  A    between atoms: C_3  and  C_4
REMARK    4  A    between atoms: C_4  and  C_5
REMARK    5  A    between atoms: C_5  and  C_6
REMARK    6  A    between atoms: C_6  and  C_7
REMARK    7  A    between atoms: C_6  and  C_8
REMARK    8  A    between atoms: C_21  and  C_22
REMARK    9  A    between atoms: C_26  and  C_27
REMARK                            x       y       z     vdW  Elec       q    Type
REMARK                         _______ _______ _______ _____ _____    ______ ____
ROOT
ATOM      1  C   UNL     1       1.753  10.439  19.289  0.00  0.00    +0.000 C 
ATOM      2  C   UNL     1       0.854  10.320  20.555  0.00  0.00    +0.000 C 
ATOM      3  C   UNL     1       0.681   8.831  20.862  0.00  0.00    +0.000 C 
ATOM      4  C   UNL     1       1.743   8.156  20.013  0.00  0.00    +0.000 C 
ATOM      5  C   UNL     1       1.569   6.664  19.733  0.00  0.00    +0.000 C 
ATOM      6  C   UNL     1       1.514   5.808  21.005  0.00  0.00    +0.000 C 
ATOM      7  C   UNL     1       1.288   4.337  20.656  0.00  0.00    +0.000 C 
ATOM      8  C   UNL     1       2.262   3.817  19.620  0.00  0.00    +0.000 C 
ATOM      9  C   UNL     1       2.899   2.650  19.833  0.00  0.00    +0.000 C 
ATOM     10  C   UNL     1       3.761   2.039  18.798  0.00  0.00    +0.000 C 
ATOM     11  O   UNL     1       4.373   1.002  19.055  0.00  0.00    +0.000 OA
ATOM     12  C   UNL     1       3.771   2.661  17.428  0.00  0.00    +0.000 C 
ATOM     13  C   UNL     1       3.690   4.175  17.545  0.00  0.00    +0.000 C 
ATOM     14  C   UNL     1       2.458   4.666  18.357  0.00  0.00    +0.000 C 
ATOM     15  C   UNL     1       1.200   4.527  17.466  0.00  0.00    +0.000 C 
ATOM     16  C   UNL     1       2.713   6.153  18.805  0.00  0.00    +0.000 C 
ATOM     17  C   UNL     1       3.057   7.102  17.627  0.00  0.00    +0.000 C 
ATOM     18  C   UNL     1       3.059   8.593  17.987  0.00  0.00    +0.000 C 
ATOM     19  C   UNL     1       1.761   8.995  18.706  0.00  0.00    +0.000 C 
ATOM     20  C   UNL     1       0.537   8.733  17.793  0.00  0.00    +0.000 C 
ENDROOT
BRANCH   1  21
ATOM     21  C   UNL     1       1.328  11.649  18.394  0.00  0.00    +0.000 C 
ATOM     22  C   UNL     1       2.458  12.665  18.204  0.00  0.00    +0.000 C 
BRANCH  21  23
ATOM     23  C   UNL     1       0.086  12.332  19.030  0.00  0.00    +0.000 C 
BRANCH  23  24
ATOM     24  C   UNL     1      -1.183  12.397  18.168  0.00  0.00    +0.000 C 
BRANCH  24  25
ATOM     25  C   UNL     1      -2.274  11.529  18.805  0.00  0.00    +0.000 C 
BRANCH  25  27
ATOM     26  C   UNL     1      -5.000  11.893  18.767  0.00  0.00    +0.000 C 
ATOM     27  S   UNL     1      -3.680  11.303  17.675  0.00  0.00    +0.000 S 
ENDBRANCH  25  27
ENDBRANCH  24  25
ENDBRANCH  23  24
ENDBRANCH  21  23
ENDBRANCH   1  21
TORSDOF 5
ENDMDL
MODEL 3
REMARK VINA RESULT:      -6.3      0.945      1.401
REMARK  Name = 
REMARK  9 active torsions:
REMARK  status: ('A' for Active; 'I' for Inactive)
REMARK    1  A    between atoms: C_1  and  S_2
REMARK    2  A    between atoms: S_2  and  C_3
REMARK    3  A    between atoms: C_3  and  C_4
REMARK    4  A    between atoms: C_4  and  C_5
REMARK    5  A    between atoms: C_5  and  C_6
REMARK    6  A    between atoms: C_6  and  C_7
REMARK    7  A    between atoms: C_6  and  C_8
REMARK    8  A    between atoms: C_21  and  C_22
REMARK    9  A    between atoms: C_26  and  C_27
REMARK                            x       y       z     vdW  Elec       q    Type
REMARK                         _______ _______ _______ _____ _____    ______ ____
ROOT
ATOM      1  C   UNL     1       0.125  11.526  19.299  0.00  0.00    +0.000 C 
ATOM      2  C   UNL     1      -0.575  11.123  20.630  0.00  0.00    +0.000 C 
ATOM      3  C   UNL     1      -0.169   9.683  20.951  0.00  0.00    +0.000 C 
ATOM      4  C   UNL     1       1.003   9.417  20.023  0.00  0.00    +0.000 C 
ATOM      5  C   UNL     1       1.367   7.957  19.758  0.00  0.00    +0.000 C 
ATOM      6  C   UNL     1       1.719   7.177  21.031  0.00  0.00    +0.000 C 
ATOM      7  C   UNL     1       2.023   5.716  20.701  0.00  0.00    +0.000 C 
ATOM      8  C   UNL     1       3.043   5.557  19.593  0.00  0.00    +0.000 C 
ATOM      9  C   UNL     1       4.076   4.709  19.758  0.00  0.00    +0.000 C 
ATOM     10  C   UNL     1       5.025   4.426  18.660  0.00  0.00    +0.000 C 
ATOM     11  O   UNL     1       5.992   3.690  18.870  0.00  0.00    +0.000 OA
ATOM     12  C   UNL     1       4.710   4.968  17.293  0.00  0.00    +0.000 C 
ATOM     13  C   UNL     1       4.090   6.351  17.415  0.00  0.00    +0.000 C 
ATOM     14  C   UNL     1       2.825   6.383  18.319  0.00  0.00    +0.000 C 
ATOM     15  C   UNL     1       1.644   5.770  17.527  0.00  0.00    +0.000 C 
ATOM     16  C   UNL     1       2.549   7.873  18.746  0.00  0.00    +0.000 C 
ATOM     17  C   UNL     1       2.438   8.848  17.544  0.00  0.00    +0.000 C 
ATOM     18  C   UNL     1       1.920  10.246  17.902  0.00  0.00    +0.000 C 
ATOM     19  C   UNL     1       0.620  10.168  18.719  0.00  0.00    +0.000 C 
ATOM     20  C   UNL     1      -0.486   9.451  17.903  0.00  0.00    +0.000 C 
ENDROOT
BRANCH   1  21
ATOM     21  C   UNL     1      -0.775  12.471  18.439  0.00  0.00    +0.000 C 
ATOM     22  C   UNL     1      -0.284  13.922  18.452  0.00  0.00    +0.000 C 
BRANCH  21  23
ATOM     23  C   UNL     1      -2.236  12.387  18.964  0.00  0.00    +0.000 C 
BRANCH  23  24
ATOM     24  C   UNL     1      -3.228  11.581  18.115  0.00  0.00    +0.000 C 
BRANCH  24  25
ATOM     25  C   UNL     1      -4.637  12.158  18.295  0.00  0.00    +0.000 C 
BRANCH  25  27
ATOM     26  C   UNL     1      -5.394  14.231  19.936  0.00  0.00    +0.000 C 
ATOM     27  S   UNL     1      -5.005  12.466  20.049  0.00  0.00    +0.000 S 
ENDBRANCH  25  27
ENDBRANCH  24  25
ENDBRANCH  23  24
ENDBRANCH  21  23
ENDBRANCH   1  21
TORSDOF 5
ENDMDL
MODEL 4
REMARK VINA RESULT:      -6.2      1.918      2.711
REMARK  Name = 
REMARK  9 active torsions:
REMARK  status: ('A' for Active; 'I' for Inactive)
REMARK    1  A    between atoms: C_1  and  S_2
REMARK    2  A    between atoms: S_2  and  C_3
REMARK    3  A    between atoms: C_3  and  C_4
REMARK    4  A    between atoms: C_4  and  C_5
REMARK    5  A    between atoms: C_5  and  C_6
REMARK    6  A    between atoms: C_6  and  C_7
REMARK    7  A    between atoms: C_6  and  C_8
REMARK    8  A    between atoms: C_21  and  C_22
REMARK    9  A    between atoms: C_26  and  C_27
REMARK                            x       y       z     vdW  Elec       q    Type
REMARK                         _______ _______ _______ _____ _____    ______ ____
ROOT
ATOM      1  C   UNL     1      -0.113  11.626  19.883  0.00  0.00    +0.000 C 
ATOM      2  C   UNL     1      -0.797  11.057  21.161  0.00  0.00    +0.000 C 
ATOM      3  C   UNL     1      -0.345   9.605  21.322  0.00  0.00    +0.000 C 
ATOM      4  C   UNL     1       0.833   9.480  20.372  0.00  0.00    +0.000 C 
ATOM      5  C   UNL     1       1.243   8.070  19.950  0.00  0.00    +0.000 C 
ATOM      6  C   UNL     1       1.623   7.167  21.130  0.00  0.00    +0.000 C 
ATOM      7  C   UNL     1       1.972   5.761  20.643  0.00  0.00    +0.000 C 
ATOM      8  C   UNL     1       2.994   5.757  19.526  0.00  0.00    +0.000 C 
ATOM      9  C   UNL     1       4.055   4.930  19.598  0.00  0.00    +0.000 C 
ATOM     10  C   UNL     1       5.010   4.798  18.477  0.00  0.00    +0.000 C 
ATOM     11  O   UNL     1       5.999   4.076  18.606  0.00  0.00    +0.000 OA
ATOM     12  C   UNL     1       4.675   5.477  17.178  0.00  0.00    +0.000 C 
ATOM     13  C   UNL     1       4.011   6.818  17.449  0.00  0.00    +0.000 C 
ATOM     14  C   UNL     1       2.747   6.710  18.349  0.00  0.00    +0.000 C 
ATOM     15  C   UNL     1       1.585   6.150  17.493  0.00  0.00    +0.000 C 
ATOM     16  C   UNL     1       2.425   8.134  18.936  0.00  0.00    +0.000 C 
ATOM     17  C   UNL     1       2.280   9.231  17.848  0.00  0.00    +0.000 C 
ATOM     18  C   UNL     1       1.719  10.565  18.356  0.00  0.00    +0.000 C 
ATOM     19  C   UNL     1       0.423  10.356  19.158  0.00  0.00    +0.000 C 
ATOM     20  C   UNL     1      -0.661   9.698  18.267  0.00  0.00    +0.000 C 
ENDROOT
BRANCH   1  21
ATOM     21  C   UNL     1      -1.045  12.631  19.130  0.00  0.00    +0.000 C 
ATOM     22  C   UNL     1      -0.324  13.927  18.749  0.00  0.00    +0.000 C 
BRANCH  21  23
ATOM     23  C   UNL     1      -2.278  12.937  20.024  0.00  0.00    +0.000 C 
BRANCH  23  24
ATOM     24  C   UNL     1      -2.342  14.335  20.655  0.00  0.00    +0.000 C 
BRANCH  24  25
ATOM     25  C   UNL     1      -2.501  14.199  22.174  0.00  0.00    +0.000 C 
BRANCH  25  27
ATOM     26  C   UNL     1      -1.461  15.002  24.590  0.00  0.00    +0.000 C 
ATOM     27  S   UNL     1      -0.894  14.302  23.018  0.00  0.00    +0.000 S 
ENDBRANCH  25  27
ENDBRANCH  24  25
ENDBRANCH  23  24
ENDBRANCH  21  23
ENDBRANCH   1  21
TORSDOF 5
ENDMDL
MODEL 5
REMARK VINA RESULT:      -6.0      2.363      3.028
REMARK  Name = 
REMARK  9 active torsions:
REMARK  status: ('A' for Active; 'I' for Inactive)
REMARK    1  A    between atoms: C_1  and  S_2
REMARK    2  A    between atoms: S_2  and  C_3
REMARK    3  A    between atoms: C_3  and  C_4
REMARK    4  A    between atoms: C_4  and  C_5
REMARK    5  A    between atoms: C_5  and  C_6
REMARK    6  A    between atoms: C_6  and  C_7
REMARK    7  A    between atoms: C_6  and  C_8
REMARK    8  A    between atoms: C_21  and  C_22
REMARK    9  A    between atoms: C_26  and  C_27
REMARK                            x       y       z     vdW  Elec       q    Type
REMARK                         _______ _______ _______ _____ _____    ______ ____
ROOT
ATOM      1  C   UNL     1       1.729  10.437  19.271  0.00  0.00    +0.000 C 
ATOM      2  C   UNL     1       0.828  10.318  20.535  0.00  0.00    +0.000 C 
ATOM      3  C   UNL     1       0.668   8.831  20.853  0.00  0.00    +0.000 C 
ATOM      4  C   UNL     1       1.738   8.159  20.012  0.00  0.00    +0.000 C 
ATOM      5  C   UNL     1       1.579   6.663  19.744  0.00  0.00    +0.000 C 
ATOM      6  C   UNL     1       1.529   5.817  21.022  0.00  0.00    +0.000 C 
ATOM      7  C   UNL     1       1.317   4.341  20.684  0.00  0.00    +0.000 C 
ATOM      8  C   UNL     1       2.299   3.822  19.654  0.00  0.00    +0.000 C 
ATOM      9  C   UNL     1       2.947   2.663  19.878  0.00  0.00    +0.000 C 
ATOM     10  C   UNL     1       3.817   2.053  18.850  0.00  0.00    +0.000 C 
ATOM     11  O   UNL     1       4.438   1.023  19.117  0.00  0.00    +0.000 OA
ATOM     12  C   UNL     1       3.825   2.663  17.476  0.00  0.00    +0.000 C 
ATOM     13  C   UNL     1       3.730   4.177  17.580  0.00  0.00    +0.000 C 
ATOM     14  C   UNL     1       2.491   4.664  18.385  0.00  0.00    +0.000 C 
ATOM     15  C   UNL     1       1.236   4.506  17.492  0.00  0.00    +0.000 C 
ATOM     16  C   UNL     1       2.730   6.156  18.823  0.00  0.00    +0.000 C 
ATOM     17  C   UNL     1       3.069   7.100  17.638  0.00  0.00    +0.000 C 
ATOM     18  C   UNL     1       3.057   8.592  17.987  0.00  0.00    +0.000 C 
ATOM     19  C   UNL     1       1.753   8.988  18.699  0.00  0.00    +0.000 C 
ATOM     20  C   UNL     1       0.533   8.707  17.785  0.00  0.00    +0.000 C 
ENDROOT
BRANCH   1  21
ATOM     21  C   UNL     1       1.295  11.636  18.365  0.00  0.00    +0.000 C 
ATOM     22  C   UNL     1       2.347  12.748  18.320  0.00  0.00    +0.000 C 
BRANCH  21  23
ATOM     23  C   UNL     1      -0.060  12.191  18.884  0.00  0.00    +0.000 C 
BRANCH  23  24
ATOM     24  C   UNL     1      -0.330  13.683  18.647  0.00  0.00    +0.000 C 
BRANCH  24  25
ATOM     25  C   UNL     1      -0.912  14.303  19.923  0.00  0.00    +0.000 C 
BRANCH  25  27
ATOM     26  C   UNL     1       0.197  16.457  18.622  0.00  0.00    +0.000 C 
ATOM     27  S   UNL     1      -0.108  15.886  20.313  0.00  0.00    +0.000 S 
ENDBRANCH  25  27
ENDBRANCH  24  25
ENDBRANCH  23  24
ENDBRANCH  21  23
ENDBRANCH   1  21
TORSDOF 5
ENDMDL
MODEL 6
REMARK VINA RESULT:      -5.9      4.693      9.126
REMARK  Name = 
REMARK  9 active torsions:
REMARK  status: ('A' for Active; 'I' for Inactive)
REMARK    1  A    between atoms: C_1  and  S_2
REMARK    2  A    between atoms: S_2  and  C_3
REMARK    3  A    between atoms: C_3  and  C_4
REMARK    4  A    between atoms: C_4  and  C_5
REMARK    5  A    between atoms: C_5  and  C_6
REMARK    6  A    between atoms: C_6  and  C_7
REMARK    7  A    between atoms: C_6  and  C_8
REMARK    8  A    between atoms: C_21  and  C_22
REMARK    9  A    between atoms: C_26  and  C_27
REMARK                            x       y       z     vdW  Elec       q    Type
REMARK                         _______ _______ _______ _____ _____    ______ ____
ROOT
ATOM      1  C   UNL     1       0.088   9.576  20.377  0.00  0.00    +0.000 C 
ATOM      2  C   UNL     1       0.223   9.009  21.821  0.00  0.00    +0.000 C 
ATOM      3  C   UNL     1      -0.507   9.966  22.765  0.00  0.00    +0.000 C 
ATOM      4  C   UNL     1      -1.329  10.842  21.836  0.00  0.00    +0.000 C 
ATOM      5  C   UNL     1      -1.829  12.174  22.393  0.00  0.00    +0.000 C 
ATOM      6  C   UNL     1      -2.715  12.020  23.636  0.00  0.00    +0.000 C 
ATOM      7  C   UNL     1      -3.137  13.389  24.170  0.00  0.00    +0.000 C 
ATOM      8  C   UNL     1      -3.740  14.281  23.105  0.00  0.00    +0.000 C 
ATOM      9  C   UNL     1      -4.898  14.922  23.352  0.00  0.00    +0.000 C 
ATOM     10  C   UNL     1      -5.459  15.900  22.395  0.00  0.00    +0.000 C 
ATOM     11  O   UNL     1      -6.551  16.420  22.631  0.00  0.00    +0.000 OA
ATOM     12  C   UNL     1      -4.618  16.299  21.215  0.00  0.00    +0.000 C 
ATOM     13  C   UNL     1      -3.846  15.096  20.696  0.00  0.00    +0.000 C 
ATOM     14  C   UNL     1      -2.970  14.410  21.784  0.00  0.00    +0.000 C 
ATOM     15  C   UNL     1      -1.716  15.287  22.024  0.00  0.00    +0.000 C 
ATOM     16  C   UNL     1      -2.601  12.961  21.292  0.00  0.00    +0.000 C 
ATOM     17  C   UNL     1      -1.929  12.937  19.893  0.00  0.00    +0.000 C 
ATOM     18  C   UNL     1      -1.329  11.583  19.496  0.00  0.00    +0.000 C 
ATOM     19  C   UNL     1      -0.410  11.035  20.600  0.00  0.00    +0.000 C 
ATOM     20  C   UNL     1       0.764  12.013  20.858  0.00  0.00    +0.000 C 
ENDROOT
BRANCH   1  21
ATOM     21  C   UNL     1       1.372   9.301  19.528  0.00  0.00    +0.000 C 
ATOM     22  C   UNL     1       1.128   9.463  18.025  0.00  0.00    +0.000 C 
BRANCH  21  23
ATOM     23  C   UNL     1       1.884   7.868  19.843  0.00  0.00    +0.000 C 
BRANCH  23  24
ATOM     24  C   UNL     1       2.594   7.123  18.704  0.00  0.00    +0.000 C 
BRANCH  24  25
ATOM     25  C   UNL     1       2.682   5.632  19.051  0.00  0.00    +0.000 C 
BRANCH  25  27
ATOM     26  C   UNL     1       0.974   3.748  20.097  0.00  0.00    +0.000 C 
ATOM     27  S   UNL     1       1.822   5.264  20.609  0.00  0.00    +0.000 S 
ENDBRANCH  25  27
ENDBRANCH  24  25
ENDBRANCH  23  24
ENDBRANCH  21  23
ENDBRANCH   1  21
TORSDOF 5
ENDMDL
MODEL 7
REMARK VINA RESULT:      -5.8      4.439      8.810
REMARK  Name = 
REMARK  9 active torsions:
REMARK  status: ('A' for Active; 'I' for Inactive)
REMARK    1  A    between atoms: C_1  and  S_2
REMARK    2  A    between atoms: S_2  and  C_3
REMARK    3  A    between atoms: C_3  and  C_4
REMARK    4  A    between atoms: C_4  and  C_5
REMARK    5  A    between atoms: C_5  and  C_6
REMARK    6  A    between atoms: C_6  and  C_7
REMARK    7  A    between atoms: C_6  and  C_8
REMARK    8  A    between atoms: C_21  and  C_22
REMARK    9  A    between atoms: C_26  and  C_27
REMARK                            x       y       z     vdW  Elec       q    Type
REMARK                         _______ _______ _______ _____ _____    ______ ____
ROOT
ATOM      1  C   UNL     1       0.797   8.948  20.059  0.00  0.00    +0.000 C 
ATOM      2  C   UNL     1       1.239   8.664  21.525  0.00  0.00    +0.000 C 
ATOM      3  C   UNL     1       0.510   9.657  22.431  0.00  0.00    +0.000 C 
ATOM      4  C   UNL     1      -0.576  10.235  21.542  0.00  0.00    +0.000 C 
ATOM      5  C   UNL     1      -1.202  11.560  21.975  0.00  0.00    +0.000 C 
ATOM      6  C   UNL     1      -1.853  11.501  23.363  0.00  0.00    +0.000 C 
ATOM      7  C   UNL     1      -2.413  12.868  23.754  0.00  0.00    +0.000 C 
ATOM      8  C   UNL     1      -3.309  13.469  22.692  0.00  0.00    +0.000 C 
ATOM      9  C   UNL     1      -4.507  13.974  23.040  0.00  0.00    +0.000 C 
ATOM     10  C   UNL     1      -5.361  14.684  22.064  0.00  0.00    +0.000 C 
ATOM     11  O   UNL     1      -6.476  15.078  22.408  0.00  0.00    +0.000 OA
ATOM     12  C   UNL     1      -4.784  14.987  20.708  0.00  0.00    +0.000 C 
ATOM     13  C   UNL     1      -3.909  13.833  20.246  0.00  0.00    +0.000 C 
ATOM     14  C   UNL     1      -2.778  13.475  21.252  0.00  0.00    +0.000 C 
ATOM     15  C   UNL     1      -1.667  14.547  21.138  0.00  0.00    +0.000 C 
ATOM     16  C   UNL     1      -2.251  12.029  20.922  0.00  0.00    +0.000 C 
ATOM     17  C   UNL     1      -1.802  11.859  19.446  0.00  0.00    +0.000 C 
ATOM     18  C   UNL     1      -1.051  10.554  19.154  0.00  0.00    +0.000 C 
ATOM     19  C   UNL     1       0.102  10.339  20.149  0.00  0.00    +0.000 C 
ATOM     20  C   UNL     1       1.122  11.502  20.051  0.00  0.00    +0.000 C 
ENDROOT
BRANCH   1  21
ATOM     21  C   UNL     1       1.967   8.713  19.049  0.00  0.00    +0.000 C 
ATOM     22  C   UNL     1       1.538   8.926  17.594  0.00  0.00    +0.000 C 
BRANCH  21  23
ATOM     23  C   UNL     1       2.520   7.275  19.248  0.00  0.00    +0.000 C 
BRANCH  23  24
ATOM     24  C   UNL     1       2.270   6.277  18.109  0.00  0.00    +0.000 C 
BRANCH  24  25
ATOM     25  C   UNL     1       3.528   5.427  17.894  0.00  0.00    +0.000 C 
BRANCH  25  27
ATOM     26  C   UNL     1       5.958   5.261  19.170  0.00  0.00    +0.000 C 
ATOM     27  S   UNL     1       4.219   4.858  19.476  0.00  0.00    +0.000 S 
ENDBRANCH  25  27
ENDBRANCH  24  25
ENDBRANCH  23  24
ENDBRANCH  21  23
ENDBRANCH   1  21
TORSDOF 5
ENDMDL
MODEL 8
REMARK VINA RESULT:      -5.8      1.964      2.669
REMARK  Name = 
REMARK  9 active torsions:
REMARK  status: ('A' for Active; 'I' for Inactive)
REMARK    1  A    between atoms: C_1  and  S_2
REMARK    2  A    between atoms: S_2  and  C_3
REMARK    3  A    between atoms: C_3  and  C_4
REMARK    4  A    between atoms: C_4  and  C_5
REMARK    5  A    between atoms: C_5  and  C_6
REMARK    6  A    between atoms: C_6  and  C_7
REMARK    7  A    between atoms: C_6  and  C_8
REMARK    8  A    between atoms: C_21  and  C_22
REMARK    9  A    between atoms: C_26  and  C_27
REMARK                            x       y       z     vdW  Elec       q    Type
REMARK                         _______ _______ _______ _____ _____    ______ ____
ROOT
ATOM      1  C   UNL     1      -0.139  11.603  19.925  0.00  0.00    +0.000 C 
ATOM      2  C   UNL     1      -0.799  11.056  21.225  0.00  0.00    +0.000 C 
ATOM      3  C   UNL     1      -0.351   9.603  21.397  0.00  0.00    +0.000 C 
ATOM      4  C   UNL     1       0.806   9.459  20.425  0.00  0.00    +0.000 C 
ATOM      5  C   UNL     1       1.200   8.041  20.015  0.00  0.00    +0.000 C 
ATOM      6  C   UNL     1       1.600   7.153  21.199  0.00  0.00    +0.000 C 
ATOM      7  C   UNL     1       1.932   5.738  20.724  0.00  0.00    +0.000 C 
ATOM      8  C   UNL     1       2.931   5.713  19.587  0.00  0.00    +0.000 C 
ATOM      9  C   UNL     1       3.988   4.882  19.648  0.00  0.00    +0.000 C 
ATOM     10  C   UNL     1       4.919   4.730  18.509  0.00  0.00    +0.000 C 
ATOM     11  O   UNL     1       5.908   4.004  18.628  0.00  0.00    +0.000 OA
ATOM     12  C   UNL     1       4.560   5.392  17.208  0.00  0.00    +0.000 C 
ATOM     13  C   UNL     1       3.909   6.740  17.474  0.00  0.00    +0.000 C 
ATOM     14  C   UNL     1       2.664   6.651  18.402  0.00  0.00    +0.000 C 
ATOM     15  C   UNL     1       1.481   6.085  17.578  0.00  0.00    +0.000 C 
ATOM     16  C   UNL     1       2.361   8.085  18.975  0.00  0.00    +0.000 C 
ATOM     17  C   UNL     1       2.199   9.168  17.875  0.00  0.00    +0.000 C 
ATOM     18  C   UNL     1       1.655  10.511  18.376  0.00  0.00    +0.000 C 
ATOM     19  C   UNL     1       0.375  10.320  19.207  0.00  0.00    +0.000 C 
ATOM     20  C   UNL     1      -0.730   9.655  18.348  0.00  0.00    +0.000 C 
ENDROOT
BRANCH   1  21
ATOM     21  C   UNL     1      -1.082  12.602  19.178  0.00  0.00    +0.000 C 
ATOM     22  C   UNL     1      -0.395  13.280  17.989  0.00  0.00    +0.000 C 
BRANCH  21  23
ATOM     23  C   UNL     1      -1.590  13.665  20.191  0.00  0.00    +0.000 C 
BRANCH  23  24
ATOM     24  C   UNL     1      -0.558  14.680  20.701  0.00  0.00    +0.000 C 
BRANCH  24  25
ATOM     25  C   UNL     1      -1.040  16.099  20.379  0.00  0.00    +0.000 C 
BRANCH  25  27
ATOM     26  C   UNL     1       1.489  16.118  19.300  0.00  0.00    +0.000 C 
ATOM     27  S   UNL     1       0.360  17.239  20.166  0.00  0.00    +0.000 S 
ENDBRANCH  25  27
ENDBRANCH  24  25
ENDBRANCH  23  24
ENDBRANCH  21  23
ENDBRANCH   1  21
TORSDOF 5
ENDMDL
MODEL 9
REMARK VINA RESULT:      -5.8      2.261      2.813
REMARK  Name = 
REMARK  9 active torsions:
REMARK  status: ('A' for Active; 'I' for Inactive)
REMARK    1  A    between atoms: C_1  and  S_2
REMARK    2  A    between atoms: S_2  and  C_3
REMARK    3  A    between atoms: C_3  and  C_4
REMARK    4  A    between atoms: C_4  and  C_5
REMARK    5  A    between atoms: C_5  and  C_6
REMARK    6  A    between atoms: C_6  and  C_7
REMARK    7  A    between atoms: C_6  and  C_8
REMARK    8  A    between atoms: C_21  and  C_22
REMARK    9  A    between atoms: C_26  and  C_27
REMARK                            x       y       z     vdW  Elec       q    Type
REMARK                         _______ _______ _______ _____ _____    ______ ____
ROOT
ATOM      1  C   UNL     1       1.161  11.057  19.445  0.00  0.00    +0.000 C 
ATOM      2  C   UNL     1       0.224  10.821  20.666  0.00  0.00    +0.000 C 
ATOM      3  C   UNL     1       0.217   9.320  20.961  0.00  0.00    +0.000 C 
ATOM      4  C   UNL     1       1.391   8.783  20.162  0.00  0.00    +0.000 C 
ATOM      5  C   UNL     1       1.411   7.283  19.872  0.00  0.00    +0.000 C 
ATOM      6  C   UNL     1       1.398   6.417  21.137  0.00  0.00    +0.000 C 
ATOM      7  C   UNL     1       1.367   4.933  20.775  0.00  0.00    +0.000 C 
ATOM      8  C   UNL     1       2.445   4.541  19.785  0.00  0.00    +0.000 C 
ATOM      9  C   UNL     1       3.207   3.457  20.026  0.00  0.00    +0.000 C 
ATOM     10  C   UNL     1       4.183   2.962  19.033  0.00  0.00    +0.000 C 
ATOM     11  O   UNL     1       4.903   2.003  19.316  0.00  0.00    +0.000 OA
ATOM     12  C   UNL     1       4.184   3.591  17.667  0.00  0.00    +0.000 C 
ATOM     13  C   UNL     1       3.917   5.084  17.782  0.00  0.00    +0.000 C 
ATOM     14  C   UNL     1       2.597   5.418  18.535  0.00  0.00    +0.000 C 
ATOM     15  C   UNL     1       1.408   5.136  17.585  0.00  0.00    +0.000 C 
ATOM     16  C   UNL     1       2.650   6.921  18.999  0.00  0.00    +0.000 C 
ATOM     17  C   UNL     1       2.933   7.914  17.840  0.00  0.00    +0.000 C 
ATOM     18  C   UNL     1       2.740   9.391  18.203  0.00  0.00    +0.000 C 
ATOM     19  C   UNL     1       1.370   9.629  18.860  0.00  0.00    +0.000 C 
ATOM     20  C   UNL     1       0.230   9.229  17.889  0.00  0.00    +0.000 C 
ENDROOT
BRANCH   1  21
ATOM     21  C   UNL     1       0.637  12.215  18.533  0.00  0.00    +0.000 C 
ATOM     22  C   UNL     1       1.765  13.112  18.016  0.00  0.00    +0.000 C 
BRANCH  21  23
ATOM     23  C   UNL     1      -0.400  13.052  19.332  0.00  0.00    +0.000 C 
BRANCH  23  24
ATOM     24  C   UNL     1       0.110  14.349  19.975  0.00  0.00    +0.000 C 
BRANCH  24  25
ATOM     25  C   UNL     1      -0.664  15.540  19.398  0.00  0.00    +0.000 C 
BRANCH  25  27
ATOM     26  C   UNL     1      -0.782  17.798  17.832  0.00  0.00    +0.000 C 
ATOM     27  S   UNL     1       0.458  16.749  18.634  0.00  0.00    +0.000 S 
ENDBRANCH  25  27
ENDBRANCH  24  25
ENDBRANCH  23  24
ENDBRANCH  21  23
ENDBRANCH   1  21
TORSDOF 5
ENDMDL
