MODEL 1
REMARK VINA RESULT:      -9.0      0.000      0.000
REMARK  Name = 
REMARK  0 active torsions:
REMARK  status: ('A' for Active; 'I' for Inactive)
REMARK                            x       y       z     vdW  Elec       q    Type
REMARK                         _______ _______ _______ _____ _____    ______ ____
ROOT
ATOM      1  N   UNL     1       7.922   5.730  13.168  0.00  0.00    +0.000 N 
ATOM      2  C   UNL     1       7.115   4.752  13.650  0.00  0.00    +0.000 C 
ATOM      3  O   UNL     1       6.710   3.873  12.892  0.00  0.00    +0.000 OA
ATOM      4  N   UNL     1       6.842   4.807  14.991  0.00  0.00    +0.000 N 
ATOM      5  C   UNL     1       6.176   3.655  15.594  0.00  0.00    +0.000 C 
ATOM      6  C   UNL     1       6.300   3.694  17.108  0.00  0.00    +0.000 C 
ATOM      7  C   UNL     1       5.517   4.900  17.619  0.00  0.00    +0.000 C 
ATOM      8  C   UNL     1       5.776   6.169  16.779  0.00  0.00    +0.000 C 
ATOM      9  C   UNL     1       6.969   6.007  15.828  0.00  0.00    +0.000 C 
ATOM     10  O   UNL     1       5.825   5.146  18.990  0.00  0.00    +0.000 OA
ATOM     11  O   UNL     1       4.517   5.415  19.607  0.00  0.00    +0.000 OA
ATOM     12  C   UNL     1       3.626   4.596  18.860  0.00  0.00    +0.000 C 
ATOM     13  O   UNL     1       4.138   4.542  17.530  0.00  0.00    +0.000 OA
ATOM     14  C   UNL     1       2.209   5.202  18.773  0.00  0.00    +0.000 C 
ATOM     15  C   UNL     1       1.338   4.296  17.868  0.00  0.00    +0.000 C 
ATOM     16  C   UNL     1       1.245   2.881  18.471  0.00  0.00    +0.000 C 
ATOM     17  C   UNL     1       0.596   2.986  19.862  0.00  0.00    +0.000 C 
ATOM     18  C   UNL     1       1.457   3.875  20.779  0.00  0.00    +0.000 C 
ATOM     19  C   UNL     1       1.566   5.281  20.168  0.00  0.00    +0.000 C 
ATOM     20  C   UNL     1       2.869   3.276  20.896  0.00  0.00    +0.000 C 
ATOM     21  C   UNL     1       3.526   3.185  19.500  0.00  0.00    +0.000 C 
ATOM     22  C   UNL     1       2.653   2.274  18.618  0.00  0.00    +0.000 C 
ATOM     23  H   UNL     1       8.158   5.574  12.198  0.00  0.00    +0.000 HD
ATOM     24  H   UNL     1       8.723   5.937  13.746  0.00  0.00    +0.000 HD
ENDROOT
TORSDOF 0
ENDMDL
MODEL 2
REMARK VINA RESULT:      -7.5      2.431      3.348
REMARK  Name = 
REMARK  0 active torsions:
REMARK  status: ('A' for Active; 'I' for Inactive)
REMARK                            x       y       z     vdW  Elec       q    Type
REMARK                         _______ _______ _______ _____ _____    ______ ____
ROOT
ATOM      1  N   UNL     1       9.035   9.277  18.348  0.00  0.00    +0.000 N 
ATOM      2  C   UNL     1       7.823   8.925  17.852  0.00  0.00    +0.000 C 
ATOM      3  O   UNL     1       7.112   9.780  17.327  0.00  0.00    +0.000 OA
ATOM      4  N   UNL     1       7.499   7.597  17.946  0.00  0.00    +0.000 N 
ATOM      5  C   UNL     1       6.318   7.135  17.222  0.00  0.00    +0.000 C 
ATOM      6  C   UNL     1       6.319   5.621  17.101  0.00  0.00    +0.000 C 
ATOM      7  C   UNL     1       6.167   5.031  18.499  0.00  0.00    +0.000 C 
ATOM      8  C   UNL     1       7.067   5.735  19.537  0.00  0.00    +0.000 C 
ATOM      9  C   UNL     1       8.114   6.645  18.881  0.00  0.00    +0.000 C 
ATOM     10  O   UNL     1       6.440   3.630  18.480  0.00  0.00    +0.000 OA
ATOM     11  O   UNL     1       5.373   3.047  19.306  0.00  0.00    +0.000 OA
ATOM     12  C   UNL     1       4.264   3.905  19.067  0.00  0.00    +0.000 C 
ATOM     13  O   UNL     1       4.796   5.211  18.857  0.00  0.00    +0.000 OA
ATOM     14  C   UNL     1       3.319   3.994  20.284  0.00  0.00    +0.000 C 
ATOM     15  C   UNL     1       2.200   5.016  19.969  0.00  0.00    +0.000 C 
ATOM     16  C   UNL     1       1.395   4.555  18.739  0.00  0.00    +0.000 C 
ATOM     17  C   UNL     1       0.762   3.189  19.055  0.00  0.00    +0.000 C 
ATOM     18  C   UNL     1       1.863   2.156  19.360  0.00  0.00    +0.000 C 
ATOM     19  C   UNL     1       2.679   2.626  20.575  0.00  0.00    +0.000 C 
ATOM     20  C   UNL     1       2.804   2.037  18.148  0.00  0.00    +0.000 C 
ATOM     21  C   UNL     1       3.451   3.407  17.840  0.00  0.00    +0.000 C 
ATOM     22  C   UNL     1       2.326   4.408  17.521  0.00  0.00    +0.000 C 
ATOM     23  H   UNL     1       9.247  10.247  18.159  0.00  0.00    +0.000 HD
ATOM     24  H   UNL     1       9.787   8.649  18.106  0.00  0.00    +0.000 HD
ENDROOT
TORSDOF 0
ENDMDL
MODEL 3
REMARK VINA RESULT:      -6.7     10.551     12.566
REMARK  Name = 
REMARK  0 active torsions:
REMARK  status: ('A' for Active; 'I' for Inactive)
REMARK                            x       y       z     vdW  Elec       q    Type
REMARK                         _______ _______ _______ _____ _____    ______ ____
ROOT
ATOM      1  N   UNL     1       3.566  17.431  20.549  0.00  0.00    +0.000 N 
ATOM      2  C   UNL     1       4.061  16.200  20.271  0.00  0.00    +0.000 C 
ATOM      3  O   UNL     1       3.445  15.202  20.642  0.00  0.00    +0.000 OA
ATOM      4  N   UNL     1       5.222  16.169  19.545  0.00  0.00    +0.000 N 
ATOM      5  C   UNL     1       5.662  14.877  19.025  0.00  0.00    +0.000 C 
ATOM      6  C   UNL     1       6.710  15.062  17.941  0.00  0.00    +0.000 C 
ATOM      7  C   UNL     1       7.957  15.663  18.582  0.00  0.00    +0.000 C 
ATOM      8  C   UNL     1       7.624  16.815  19.553  0.00  0.00    +0.000 C 
ATOM      9  C   UNL     1       6.169  17.285  19.425  0.00  0.00    +0.000 C 
ATOM     10  O   UNL     1       8.864  16.114  17.576  0.00  0.00    +0.000 OA
ATOM     11  O   UNL     1      10.178  15.652  18.046  0.00  0.00    +0.000 OA
ATOM     12  C   UNL     1       9.878  14.436  18.722  0.00  0.00    +0.000 C 
ATOM     13  O   UNL     1       8.584  14.599  19.299  0.00  0.00    +0.000 OA
ATOM     14  C   UNL     1      10.857  14.154  19.881  0.00  0.00    +0.000 C 
ATOM     15  C   UNL     1      10.399  12.870  20.615  0.00  0.00    +0.000 C 
ATOM     16  C   UNL     1      10.412  11.674  19.642  0.00  0.00    +0.000 C 
ATOM     17  C   UNL     1      11.847  11.482  19.126  0.00  0.00    +0.000 C 
ATOM     18  C   UNL     1      12.315  12.747  18.383  0.00  0.00    +0.000 C 
ATOM     19  C   UNL     1      12.284  13.944  19.347  0.00  0.00    +0.000 C 
ATOM     20  C   UNL     1      11.362  13.033  17.208  0.00  0.00    +0.000 C 
ATOM     21  C   UNL     1       9.922  13.242  17.730  0.00  0.00    +0.000 C 
ATOM     22  C   UNL     1       9.481  11.953  18.447  0.00  0.00    +0.000 C 
ATOM     23  H   UNL     1       2.664  17.377  21.001  0.00  0.00    +0.000 HD
ATOM     24  H   UNL     1       3.588  18.077  19.774  0.00  0.00    +0.000 HD
ENDROOT
TORSDOF 0
ENDMDL
MODEL 4
REMARK VINA RESULT:      -6.7     10.046     12.003
REMARK  Name = 
REMARK  0 active torsions:
REMARK  status: ('A' for Active; 'I' for Inactive)
REMARK                            x       y       z     vdW  Elec       q    Type
REMARK                         _______ _______ _______ _____ _____    ______ ____
ROOT
ATOM      1  N   UNL     1       2.775  16.202  19.109  0.00  0.00    +0.000 N 
ATOM      2  C   UNL     1       3.794  15.802  18.309  0.00  0.00    +0.000 C 
ATOM      3  O   UNL     1       3.561  15.487  17.143  0.00  0.00    +0.000 OA
ATOM      4  N   UNL     1       5.042  15.818  18.874  0.00  0.00    +0.000 N 
ATOM      5  C   UNL     1       6.188  15.622  17.990  0.00  0.00    +0.000 C 
ATOM      6  C   UNL     1       7.475  16.053  18.674  0.00  0.00    +0.000 C 
ATOM      7  C   UNL     1       7.729  15.112  19.847  0.00  0.00    +0.000 C 
ATOM      8  C   UNL     1       6.455  14.843  20.674  0.00  0.00    +0.000 C 
ATOM      9  C   UNL     1       5.313  15.804  20.318  0.00  0.00    +0.000 C 
ATOM     10  O   UNL     1       8.760  15.631  20.685  0.00  0.00    +0.000 OA
ATOM     11  O   UNL     1       9.602  14.463  20.982  0.00  0.00    +0.000 OA
ATOM     12  C   UNL     1       9.504  13.677  19.800  0.00  0.00    +0.000 C 
ATOM     13  O   UNL     1       8.195  13.888  19.277  0.00  0.00    +0.000 OA
ATOM     14  C   UNL     1       9.637  12.167  20.088  0.00  0.00    +0.000 C 
ATOM     15  C   UNL     1       9.425  11.390  18.766  0.00  0.00    +0.000 C 
ATOM     16  C   UNL     1      10.493  11.802  17.735  0.00  0.00    +0.000 C 
ATOM     17  C   UNL     1      11.879  11.462  18.307  0.00  0.00    +0.000 C 
ATOM     18  C   UNL     1      12.112  12.237  19.618  0.00  0.00    +0.000 C 
ATOM     19  C   UNL     1      11.035  11.841  20.641  0.00  0.00    +0.000 C 
ATOM     20  C   UNL     1      12.005  13.748  19.347  0.00  0.00    +0.000 C 
ATOM     21  C   UNL     1      10.606  14.090  18.786  0.00  0.00    +0.000 C 
ATOM     22  C   UNL     1      10.416  13.316  17.468  0.00  0.00    +0.000 C 
ATOM     23  H   UNL     1       1.903  16.257  18.601  0.00  0.00    +0.000 HD
ATOM     24  H   UNL     1       2.971  17.026  19.658  0.00  0.00    +0.000 HD
ENDROOT
TORSDOF 0
ENDMDL
MODEL 5
REMARK VINA RESULT:      -6.5      4.071      5.780
REMARK  Name = 
REMARK  0 active torsions:
REMARK  status: ('A' for Active; 'I' for Inactive)
REMARK                            x       y       z     vdW  Elec       q    Type
REMARK                         _______ _______ _______ _____ _____    ______ ____
ROOT
ATOM      1  N   UNL     1      -0.528  11.573  19.241  0.00  0.00    +0.000 N 
ATOM      2  C   UNL     1      -0.528  10.424  18.523  0.00  0.00    +0.000 C 
ATOM      3  O   UNL     1      -1.463  10.186  17.760  0.00  0.00    +0.000 OA
ATOM      4  N   UNL     1       0.566   9.616  18.684  0.00  0.00    +0.000 N 
ATOM      5  C   UNL     1       0.720   8.492  17.762  0.00  0.00    +0.000 C 
ATOM      6  C   UNL     1       2.138   7.949  17.809  0.00  0.00    +0.000 C 
ATOM      7  C   UNL     1       2.372   7.347  19.191  0.00  0.00    +0.000 C 
ATOM      8  C   UNL     1       1.842   8.251  20.325  0.00  0.00    +0.000 C 
ATOM      9  C   UNL     1       1.483   9.658  19.831  0.00  0.00    +0.000 C 
ATOM     10  O   UNL     1       3.760   7.076  19.386  0.00  0.00    +0.000 OA
ATOM     11  O   UNL     1       3.780   5.743  20.005  0.00  0.00    +0.000 OA
ATOM     12  C   UNL     1       2.653   5.094  19.428  0.00  0.00    +0.000 C 
ATOM     13  O   UNL     1       1.671   6.103  19.205  0.00  0.00    +0.000 OA
ATOM     14  C   UNL     1       2.024   4.055  20.380  0.00  0.00    +0.000 C 
ATOM     15  C   UNL     1       0.756   3.472  19.710  0.00  0.00    +0.000 C 
ATOM     16  C   UNL     1       1.131   2.780  18.385  0.00  0.00    +0.000 C 
ATOM     17  C   UNL     1       2.114   1.638  18.694  0.00  0.00    +0.000 C 
ATOM     18  C   UNL     1       3.388   2.202  19.352  0.00  0.00    +0.000 C 
ATOM     19  C   UNL     1       3.012   2.911  20.663  0.00  0.00    +0.000 C 
ATOM     20  C   UNL     1       4.043   3.226  18.407  0.00  0.00    +0.000 C 
ATOM     21  C   UNL     1       3.059   4.380  18.109  0.00  0.00    +0.000 C 
ATOM     22  C   UNL     1       1.809   3.784  17.435  0.00  0.00    +0.000 C 
ATOM     23  H   UNL     1      -1.314  12.162  19.003  0.00  0.00    +0.000 HD
ATOM     24  H   UNL     1       0.352  12.065  19.247  0.00  0.00    +0.000 HD
ENDROOT
TORSDOF 0
ENDMDL
MODEL 6
REMARK VINA RESULT:      -6.5      9.744     12.018
REMARK  Name = 
REMARK  0 active torsions:
REMARK  status: ('A' for Active; 'I' for Inactive)
REMARK                            x       y       z     vdW  Elec       q    Type
REMARK                         _______ _______ _______ _____ _____    ______ ____
ROOT
ATOM      1  N   UNL     1       5.809  11.246  26.557  0.00  0.00    +0.000 N 
ATOM      2  C   UNL     1       5.725  11.234  25.204  0.00  0.00    +0.000 C 
ATOM      3  O   UNL     1       4.901  10.504  24.655  0.00  0.00    +0.000 OA
ATOM      4  N   UNL     1       6.566  12.090  24.543  0.00  0.00    +0.000 N 
ATOM      5  C   UNL     1       6.348  12.281  23.111  0.00  0.00    +0.000 C 
ATOM      6  C   UNL     1       7.076  13.521  22.618  0.00  0.00    +0.000 C 
ATOM      7  C   UNL     1       8.576  13.276  22.750  0.00  0.00    +0.000 C 
ATOM      8  C   UNL     1       8.952  12.634  24.101  0.00  0.00    +0.000 C 
ATOM      9  C   UNL     1       7.793  12.666  25.107  0.00  0.00    +0.000 C 
ATOM     10  O   UNL     1       9.295  14.495  22.567  0.00  0.00    +0.000 OA
ATOM     11  O   UNL     1      10.419  14.120  21.696  0.00  0.00    +0.000 OA
ATOM     12  C   UNL     1       9.875  13.088  20.882  0.00  0.00    +0.000 C 
ATOM     13  O   UNL     1       8.927  12.390  21.686  0.00  0.00    +0.000 OA
ATOM     14  C   UNL     1      10.942  12.061  20.448  0.00  0.00    +0.000 C 
ATOM     15  C   UNL     1      10.246  10.931  19.650  0.00  0.00    +0.000 C 
ATOM     16  C   UNL     1       9.567  11.513  18.395  0.00  0.00    +0.000 C 
ATOM     17  C   UNL     1      10.647  12.167  17.516  0.00  0.00    +0.000 C 
ATOM     18  C   UNL     1      11.342  13.302  18.291  0.00  0.00    +0.000 C 
ATOM     19  C   UNL     1      12.002  12.725  19.553  0.00  0.00    +0.000 C 
ATOM     20  C   UNL     1      10.296  14.349  18.714  0.00  0.00    +0.000 C 
ATOM     21  C   UNL     1       9.220  13.694  19.610  0.00  0.00    +0.000 C 
ATOM     22  C   UNL     1       8.533  12.581  18.798  0.00  0.00    +0.000 C 
ATOM     23  H   UNL     1       5.098  10.665  26.980  0.00  0.00    +0.000 HD
ATOM     24  H   UNL     1       5.869  12.166  26.967  0.00  0.00    +0.000 HD
ENDROOT
TORSDOF 0
ENDMDL
MODEL 7
REMARK VINA RESULT:      -6.3     10.640     12.753
REMARK  Name = 
REMARK  0 active torsions:
REMARK  status: ('A' for Active; 'I' for Inactive)
REMARK                            x       y       z     vdW  Elec       q    Type
REMARK                         _______ _______ _______ _____ _____    ______ ____
ROOT
ATOM      1  N   UNL     1       4.422  16.396  23.764  0.00  0.00    +0.000 N 
ATOM      2  C   UNL     1       4.706  15.401  22.887  0.00  0.00    +0.000 C 
ATOM      3  O   UNL     1       4.049  14.363  22.917  0.00  0.00    +0.000 OA
ATOM      4  N   UNL     1       5.708  15.660  21.989  0.00  0.00    +0.000 N 
ATOM      5  C   UNL     1       5.888  14.720  20.886  0.00  0.00    +0.000 C 
ATOM      6  C   UNL     1       6.742  15.335  19.790  0.00  0.00    +0.000 C 
ATOM      7  C   UNL     1       8.147  15.549  20.345  0.00  0.00    +0.000 C 
ATOM      8  C   UNL     1       8.134  16.160  21.763  0.00  0.00    +0.000 C 
ATOM      9  C   UNL     1       6.748  16.684  22.161  0.00  0.00    +0.000 C 
ATOM     10  O   UNL     1       8.909  16.372  19.462  0.00  0.00    +0.000 OA
ATOM     11  O   UNL     1      10.219  15.708  19.397  0.00  0.00    +0.000 OA
ATOM     12  C   UNL     1       9.898  14.329  19.535  0.00  0.00    +0.000 C 
ATOM     13  O   UNL     1       8.757  14.259  20.387  0.00  0.00    +0.000 OA
ATOM     14  C   UNL     1      11.025  13.531  20.224  0.00  0.00    +0.000 C 
ATOM     15  C   UNL     1      10.551  12.069  20.415  0.00  0.00    +0.000 C 
ATOM     16  C   UNL     1      10.246  11.430  19.046  0.00  0.00    +0.000 C 
ATOM     17  C   UNL     1      11.533  11.442  18.205  0.00  0.00    +0.000 C 
ATOM     18  C   UNL     1      12.012  12.891  17.996  0.00  0.00    +0.000 C 
ATOM     19  C   UNL     1      12.298  13.535  19.362  0.00  0.00    +0.000 C 
ATOM     20  C   UNL     1      10.909  13.699  17.289  0.00  0.00    +0.000 C 
ATOM     21  C   UNL     1       9.620  13.699  18.143  0.00  0.00    +0.000 C 
ATOM     22  C   UNL     1       9.159  12.240  18.315  0.00  0.00    +0.000 C 
ATOM     23  H   UNL     1       3.615  16.175  24.329  0.00  0.00    +0.000 HD
ATOM     24  H   UNL     1       4.385  17.318  23.355  0.00  0.00    +0.000 HD
ENDROOT
TORSDOF 0
ENDMDL
MODEL 8
REMARK VINA RESULT:      -6.3     10.234     12.472
REMARK  Name = 
REMARK  0 active torsions:
REMARK  status: ('A' for Active; 'I' for Inactive)
REMARK                            x       y       z     vdW  Elec       q    Type
REMARK                         _______ _______ _______ _____ _____    ______ ____
ROOT
ATOM      1  N   UNL     1       7.122  13.540  26.777  0.00  0.00    +0.000 N 
ATOM      2  C   UNL     1       7.221  12.713  25.707  0.00  0.00    +0.000 C 
ATOM      3  O   UNL     1       7.087  11.501  25.864  0.00  0.00    +0.000 OA
ATOM      4  N   UNL     1       7.430  13.321  24.497  0.00  0.00    +0.000 N 
ATOM      5  C   UNL     1       7.309  12.498  23.296  0.00  0.00    +0.000 C 
ATOM      6  C   UNL     1       7.176  13.369  22.059  0.00  0.00    +0.000 C 
ATOM      7  C   UNL     1       8.483  14.133  21.871  0.00  0.00    +0.000 C 
ATOM      8  C   UNL     1       9.013  14.726  23.193  0.00  0.00    +0.000 C 
ATOM      9  C   UNL     1       7.971  14.674  24.317  0.00  0.00    +0.000 C 
ATOM     10  O   UNL     1       8.319  15.164  20.898  0.00  0.00    +0.000 OA
ATOM     11  O   UNL     1       9.528  15.067  20.067  0.00  0.00    +0.000 OA
ATOM     12  C   UNL     1       9.829  13.677  20.085  0.00  0.00    +0.000 C 
ATOM     13  O   UNL     1       9.423  13.187  21.361  0.00  0.00    +0.000 OA
ATOM     14  C   UNL     1      11.343  13.404  19.959  0.00  0.00    +0.000 C 
ATOM     15  C   UNL     1      11.584  11.880  20.082  0.00  0.00    +0.000 C 
ATOM     16  C   UNL     1      10.842  11.136  18.954  0.00  0.00    +0.000 C 
ATOM     17  C   UNL     1      11.388  11.629  17.604  0.00  0.00    +0.000 C 
ATOM     18  C   UNL     1      11.146  13.144  17.460  0.00  0.00    +0.000 C 
ATOM     19  C   UNL     1      11.870  13.885  18.596  0.00  0.00    +0.000 C 
ATOM     20  C   UNL     1       9.638  13.434  17.561  0.00  0.00    +0.000 C 
ATOM     21  C   UNL     1       9.094  12.951  18.925  0.00  0.00    +0.000 C 
ATOM     22  C   UNL     1       9.333  11.433  19.026  0.00  0.00    +0.000 C 
ATOM     23  H   UNL     1       6.874  13.035  27.616  0.00  0.00    +0.000 HD
ATOM     24  H   UNL     1       6.558  14.362  26.623  0.00  0.00    +0.000 HD
ENDROOT
TORSDOF 0
ENDMDL
MODEL 9
REMARK VINA RESULT:      -6.3     10.130     12.544
REMARK  Name = 
REMARK  0 active torsions:
REMARK  status: ('A' for Active; 'I' for Inactive)
REMARK                            x       y       z     vdW  Elec       q    Type
REMARK                         _______ _______ _______ _____ _____    ______ ____
ROOT
ATOM      1  N   UNL     1       4.813  16.099  24.461  0.00  0.00    +0.000 N 
ATOM      2  C   UNL     1       5.867  16.396  23.661  0.00  0.00    +0.000 C 
ATOM      3  O   UNL     1       6.003  17.542  23.239  0.00  0.00    +0.000 OA
ATOM      4  N   UNL     1       6.740  15.369  23.413  0.00  0.00    +0.000 N 
ATOM      5  C   UNL     1       8.002  15.698  22.756  0.00  0.00    +0.000 C 
ATOM      6  C   UNL     1       8.999  14.561  22.908  0.00  0.00    +0.000 C 
ATOM      7  C   UNL     1       8.468  13.356  22.138  0.00  0.00    +0.000 C 
ATOM      8  C   UNL     1       6.964  13.116  22.384  0.00  0.00    +0.000 C 
ATOM      9  C   UNL     1       6.424  13.942  23.559  0.00  0.00    +0.000 C 
ATOM     10  O   UNL     1       9.214  12.186  22.472  0.00  0.00    +0.000 OA
ATOM     11  O   UNL     1       9.449  11.530  21.177  0.00  0.00    +0.000 OA
ATOM     12  C   UNL     1       9.554  12.621  20.270  0.00  0.00    +0.000 C 
ATOM     13  O   UNL     1       8.687  13.642  20.757  0.00  0.00    +0.000 OA
ATOM     14  C   UNL     1       9.066  12.252  18.853  0.00  0.00    +0.000 C 
ATOM     15  C   UNL     1       9.127  13.518  17.963  0.00  0.00    +0.000 C 
ATOM     16  C   UNL     1      10.578  14.033  17.878  0.00  0.00    +0.000 C 
ATOM     17  C   UNL     1      11.451  12.931  17.256  0.00  0.00    +0.000 C 
ATOM     18  C   UNL     1      11.410  11.667  18.136  0.00  0.00    +0.000 C 
ATOM     19  C   UNL     1       9.961  11.164  18.236  0.00  0.00    +0.000 C 
ATOM     20  C   UNL     1      11.915  12.010  19.549  0.00  0.00    +0.000 C 
ATOM     21  C   UNL     1      11.027  13.107  20.179  0.00  0.00    +0.000 C 
ATOM     22  C   UNL     1      11.107  14.360  19.287  0.00  0.00    +0.000 C 
ATOM     23  H   UNL     1       4.267  16.921  24.678  0.00  0.00    +0.000 HD
ATOM     24  H   UNL     1       5.044  15.546  25.273  0.00  0.00    +0.000 HD
ENDROOT
TORSDOF 0
ENDMDL
