MODEL 1
REMARK VINA RESULT:      -7.9      0.000      0.000
REMARK  Name = 
REMARK  9 active torsions:
REMARK  status: ('A' for Active; 'I' for Inactive)
REMARK    1  A    between atoms: C_1  and  C_2
REMARK    2  A    between atoms: C_2  and  C_15
REMARK    3  A    between atoms: N_3  and  N_4
REMARK    4  A    between atoms: N_4  and  C_5
REMARK    5  A    between atoms: C_5  and  N_7
REMARK    6  A    between atoms: N_7  and  C_8
REMARK    7  A    between atoms: C_8  and  C_9
REMARK    8  A    between atoms: C_24  and  O_25
REMARK    9  A    between atoms: O_25  and  C_26
REMARK                            x       y       z     vdW  Elec       q    Type
REMARK                         _______ _______ _______ _____ _____    ______ ____
ROOT
ATOM      1  C   UNL     1       1.810   8.624  18.090  0.00  0.00    +0.000 C 
ATOM      2  C   UNL     1       1.890   7.934  19.437  0.00  0.00    +0.000 C 
ATOM      3  N   UNL     1       1.553   8.470  20.573  0.00  0.00    +0.000 NA
ENDROOT
BRANCH   2   4
ATOM      4  C   UNL     1       2.260   6.483  19.470  0.00  0.00    +0.000 A 
ATOM      5  C   UNL     1       1.731   5.812  20.587  0.00  0.00    +0.000 A 
ATOM      6  C   UNL     1       1.788   4.424  20.681  0.00  0.00    +0.000 A 
ATOM      7  C   UNL     1       2.387   3.690  19.660  0.00  0.00    +0.000 A 
ATOM      8  C   UNL     1       2.228   2.295  19.615  0.00  0.00    +0.000 A 
ATOM      9  C   UNL     1       2.816   1.553  18.596  0.00  0.00    +0.000 A 
ATOM     10  C   UNL     1       3.745   2.157  17.763  0.00  0.00    +0.000 A 
ATOM     11  C   UNL     1       3.867   3.545  17.765  0.00  0.00    +0.000 A 
ATOM     12  C   UNL     1       3.107   4.351  18.639  0.00  0.00    +0.000 A 
ATOM     13  C   UNL     1       2.969   5.767  18.502  0.00  0.00    +0.000 A 
BRANCH  13  14
ATOM     14  O   UNL     1       3.490   6.243  17.324  0.00  0.00    +0.000 OA
BRANCH  14  15
ATOM     15  C   UNL     1       4.725   6.920  17.299  0.00  0.00    +0.000 C 
ATOM     16  F   UNL     1       5.636   6.287  18.066  0.00  0.00    +0.000 F 
ATOM     17  F   UNL     1       5.180   6.857  16.022  0.00  0.00    +0.000 F 
ENDBRANCH  14  15
ENDBRANCH  13  14
ENDBRANCH   2   4
BRANCH   3  18
ATOM     18  N   UNL     1       1.097   9.757  20.581  0.00  0.00    +0.000 N 
ATOM     19  H   UNL     1       0.944  10.085  19.626  0.00  0.00    +0.000 HD
BRANCH  18  20
ATOM     20  C   UNL     1       0.062  10.155  21.411  0.00  0.00    +0.000 C 
ATOM     21  S   UNL     1      -0.285   9.660  22.964  0.00  0.00    +0.000 S 
BRANCH  20  22
ATOM     22  N   UNL     1      -0.702  11.170  20.903  0.00  0.00    +0.000 N 
ATOM     23  H   UNL     1      -1.678  11.002  21.101  0.00  0.00    +0.000 HD
BRANCH  22  24
ATOM     24  C   UNL     1      -0.492  11.653  19.555  0.00  0.00    +0.000 C 
BRANCH  24  25
ATOM     25  C   UNL     1      -1.615  11.204  18.666  0.00  0.00    +0.000 A 
ATOM     26  C   UNL     1      -1.412  10.196  17.715  0.00  0.00    +0.000 A 
ATOM     27  C   UNL     1      -2.447   9.815  16.860  0.00  0.00    +0.000 A 
ATOM     28  C   UNL     1      -3.689  10.441  16.952  0.00  0.00    +0.000 A 
ATOM     29  C   UNL     1      -3.905  11.436  17.902  0.00  0.00    +0.000 A 
ATOM     30  C   UNL     1      -2.876  11.816  18.756  0.00  0.00    +0.000 A 
ENDBRANCH  24  25
ENDBRANCH  22  24
ENDBRANCH  20  22
ENDBRANCH  18  20
ENDBRANCH   3  18
TORSDOF 8
ENDMDL
MODEL 2
REMARK VINA RESULT:      -7.9      1.998      3.236
REMARK  Name = 
REMARK  9 active torsions:
REMARK  status: ('A' for Active; 'I' for Inactive)
REMARK    1  A    between atoms: C_1  and  C_2
REMARK    2  A    between atoms: C_2  and  C_15
REMARK    3  A    between atoms: N_3  and  N_4
REMARK    4  A    between atoms: N_4  and  C_5
REMARK    5  A    between atoms: C_5  and  N_7
REMARK    6  A    between atoms: N_7  and  C_8
REMARK    7  A    between atoms: C_8  and  C_9
REMARK    8  A    between atoms: C_24  and  O_25
REMARK    9  A    between atoms: O_25  and  C_26
REMARK                            x       y       z     vdW  Elec       q    Type
REMARK                         _______ _______ _______ _____ _____    ______ ____
ROOT
ATOM      1  C   UNL     1       2.262   5.504  20.807  0.00  0.00    +0.000 C 
ATOM      2  C   UNL     1       2.304   6.534  19.696  0.00  0.00    +0.000 C 
ATOM      3  N   UNL     1       1.768   7.718  19.754  0.00  0.00    +0.000 NA
ENDROOT
BRANCH   2   4
ATOM      4  C   UNL     1       3.129   6.236  18.482  0.00  0.00    +0.000 A 
ATOM      5  C   UNL     1       3.615   7.397  17.855  0.00  0.00    +0.000 A 
ATOM      6  C   UNL     1       4.568   7.319  16.844  0.00  0.00    +0.000 A 
ATOM      7  C   UNL     1       5.039   6.072  16.439  0.00  0.00    +0.000 A 
ATOM      8  C   UNL     1       6.172   5.988  15.611  0.00  0.00    +0.000 A 
ATOM      9  C   UNL     1       6.656   4.749  15.207  0.00  0.00    +0.000 A 
ATOM     10  C   UNL     1       5.890   3.614  15.426  0.00  0.00    +0.000 A 
ATOM     11  C   UNL     1       4.799   3.681  16.290  0.00  0.00    +0.000 A 
ATOM     12  C   UNL     1       4.416   4.893  16.904  0.00  0.00    +0.000 A 
ATOM     13  C   UNL     1       3.505   4.978  18.001  0.00  0.00    +0.000 A 
BRANCH  13  14
ATOM     14  O   UNL     1       3.185   3.751  18.528  0.00  0.00    +0.000 OA
BRANCH  14  15
ATOM     15  C   UNL     1       1.948   3.140  18.241  0.00  0.00    +0.000 C 
ATOM     16  F   UNL     1       1.180   3.945  17.480  0.00  0.00    +0.000 F 
ATOM     17  F   UNL     1       2.221   2.040  17.492  0.00  0.00    +0.000 F 
ENDBRANCH  14  15
ENDBRANCH  13  14
ENDBRANCH   2   4
BRANCH   3  18
ATOM     18  N   UNL     1       1.103   8.082  20.889  0.00  0.00    +0.000 N 
ATOM     19  H   UNL     1       1.714   7.991  21.702  0.00  0.00    +0.000 HD
BRANCH  18  20
ATOM     20  C   UNL     1       0.365   9.251  20.953  0.00  0.00    +0.000 C 
ATOM     21  S   UNL     1      -0.169  10.081  22.296  0.00  0.00    +0.000 S 
BRANCH  20  22
ATOM     22  N   UNL     1       0.147   9.843  19.739  0.00  0.00    +0.000 N 
ATOM     23  H   UNL     1       1.016   9.923  19.231  0.00  0.00    +0.000 HD
BRANCH  22  24
ATOM     24  C   UNL     1      -0.661  11.040  19.632  0.00  0.00    +0.000 C 
BRANCH  24  25
ATOM     25  C   UNL     1      -1.696  10.867  18.558  0.00  0.00    +0.000 A 
ATOM     26  C   UNL     1      -1.456  10.021  17.467  0.00  0.00    +0.000 A 
ATOM     27  C   UNL     1      -2.402   9.901  16.449  0.00  0.00    +0.000 A 
ATOM     28  C   UNL     1      -3.591  10.624  16.515  0.00  0.00    +0.000 A 
ATOM     29  C   UNL     1      -3.845  11.459  17.602  0.00  0.00    +0.000 A 
ATOM     30  C   UNL     1      -2.904  11.579  18.619  0.00  0.00    +0.000 A 
ENDBRANCH  24  25
ENDBRANCH  22  24
ENDBRANCH  20  22
ENDBRANCH  18  20
ENDBRANCH   3  18
TORSDOF 8
ENDMDL
MODEL 3
REMARK VINA RESULT:      -7.8      2.089      3.463
REMARK  Name = 
REMARK  9 active torsions:
REMARK  status: ('A' for Active; 'I' for Inactive)
REMARK    1  A    between atoms: C_1  and  C_2
REMARK    2  A    between atoms: C_2  and  C_15
REMARK    3  A    between atoms: N_3  and  N_4
REMARK    4  A    between atoms: N_4  and  C_5
REMARK    5  A    between atoms: C_5  and  N_7
REMARK    6  A    between atoms: N_7  and  C_8
REMARK    7  A    between atoms: C_8  and  C_9
REMARK    8  A    between atoms: C_24  and  O_25
REMARK    9  A    between atoms: O_25  and  C_26
REMARK                            x       y       z     vdW  Elec       q    Type
REMARK                         _______ _______ _______ _____ _____    ______ ____
ROOT
ATOM      1  C   UNL     1       2.192   5.140  20.852  0.00  0.00    +0.000 C 
ATOM      2  C   UNL     1       2.358   6.285  19.873  0.00  0.00    +0.000 C 
ATOM      3  N   UNL     1       1.973   7.510  20.084  0.00  0.00    +0.000 NA
ENDROOT
BRANCH   2   4
ATOM      4  C   UNL     1       3.136   6.038  18.618  0.00  0.00    +0.000 A 
ATOM      5  C   UNL     1       3.534   7.228  17.981  0.00  0.00    +0.000 A 
ATOM      6  C   UNL     1       4.439   7.205  16.924  0.00  0.00    +0.000 A 
ATOM      7  C   UNL     1       4.950   5.987  16.483  0.00  0.00    +0.000 A 
ATOM      8  C   UNL     1       6.044   5.965  15.601  0.00  0.00    +0.000 A 
ATOM      9  C   UNL     1       6.566   4.755  15.160  0.00  0.00    +0.000 A 
ATOM     10  C   UNL     1       5.868   3.582  15.402  0.00  0.00    +0.000 A 
ATOM     11  C   UNL     1       4.818   3.588  16.319  0.00  0.00    +0.000 A 
ATOM     12  C   UNL     1       4.408   4.774  16.964  0.00  0.00    +0.000 A 
ATOM     13  C   UNL     1       3.548   4.805  18.105  0.00  0.00    +0.000 A 
BRANCH  13  14
ATOM     14  O   UNL     1       3.315   3.560  18.633  0.00  0.00    +0.000 OA
BRANCH  14  15
ATOM     15  C   UNL     1       2.129   2.858  18.336  0.00  0.00    +0.000 C 
ATOM     16  F   UNL     1       2.339   1.952  17.360  0.00  0.00    +0.000 F 
ATOM     17  F   UNL     1       1.799   2.159  19.452  0.00  0.00    +0.000 F 
ENDBRANCH  14  15
ENDBRANCH  13  14
ENDBRANCH   2   4
BRANCH   3  18
ATOM     18  N   UNL     1       1.361   7.811  21.266  0.00  0.00    +0.000 N 
ATOM     19  H   UNL     1       2.055   7.901  22.011  0.00  0.00    +0.000 HD
BRANCH  18  20
ATOM     20  C   UNL     1       0.408   8.811  21.356  0.00  0.00    +0.000 C 
ATOM     21  S   UNL     1      -0.114   9.644  22.701  0.00  0.00    +0.000 S 
BRANCH  20  22
ATOM     22  N   UNL     1      -0.080   9.227  20.148  0.00  0.00    +0.000 N 
ATOM     23  H   UNL     1       0.466   8.830  19.396  0.00  0.00    +0.000 HD
BRANCH  22  24
ATOM     24  C   UNL     1      -0.396  10.622  19.917  0.00  0.00    +0.000 C 
BRANCH  24  25
ATOM     25  C   UNL     1      -1.414  10.743  18.820  0.00  0.00    +0.000 A 
ATOM     26  C   UNL     1      -2.520  11.590  18.966  0.00  0.00    +0.000 A 
ATOM     27  C   UNL     1      -3.488  11.664  17.963  0.00  0.00    +0.000 A 
ATOM     28  C   UNL     1      -3.355  10.891  16.811  0.00  0.00    +0.000 A 
ATOM     29  C   UNL     1      -2.252  10.054  16.651  0.00  0.00    +0.000 A 
ATOM     30  C   UNL     1      -1.286   9.981  17.648  0.00  0.00    +0.000 A 
ENDBRANCH  24  25
ENDBRANCH  22  24
ENDBRANCH  20  22
ENDBRANCH  18  20
ENDBRANCH   3  18
TORSDOF 8
ENDMDL
MODEL 4
REMARK VINA RESULT:      -7.7      3.325      8.326
REMARK  Name = 
REMARK  9 active torsions:
REMARK  status: ('A' for Active; 'I' for Inactive)
REMARK    1  A    between atoms: C_1  and  C_2
REMARK    2  A    between atoms: C_2  and  C_15
REMARK    3  A    between atoms: N_3  and  N_4
REMARK    4  A    between atoms: N_4  and  C_5
REMARK    5  A    between atoms: C_5  and  N_7
REMARK    6  A    between atoms: N_7  and  C_8
REMARK    7  A    between atoms: C_8  and  C_9
REMARK    8  A    between atoms: C_24  and  O_25
REMARK    9  A    between atoms: O_25  and  C_26
REMARK                            x       y       z     vdW  Elec       q    Type
REMARK                         _______ _______ _______ _____ _____    ______ ____
ROOT
ATOM      1  C   UNL     1       2.547   8.662  17.977  0.00  0.00    +0.000 C 
ATOM      2  C   UNL     1       1.660   8.628  19.205  0.00  0.00    +0.000 C 
ATOM      3  N   UNL     1       1.740   7.749  20.161  0.00  0.00    +0.000 NA
ENDROOT
BRANCH   2   4
ATOM      4  C   UNL     1       0.700   9.757  19.418  0.00  0.00    +0.000 A 
ATOM      5  C   UNL     1      -0.022  10.085  18.256  0.00  0.00    +0.000 A 
ATOM      6  C   UNL     1      -1.103  10.959  18.309  0.00  0.00    +0.000 A 
ATOM      7  C   UNL     1      -1.470  11.527  19.526  0.00  0.00    +0.000 A 
ATOM      8  C   UNL     1      -2.698  12.201  19.643  0.00  0.00    +0.000 A 
ATOM      9  C   UNL     1      -3.077  12.765  20.856  0.00  0.00    +0.000 A 
ATOM     10  C   UNL     1      -2.148  12.866  21.880  0.00  0.00    +0.000 A 
ATOM     11  C   UNL     1      -0.953  12.156  21.793  0.00  0.00    +0.000 A 
ATOM     12  C   UNL     1      -0.636  11.379  20.658  0.00  0.00    +0.000 A 
ATOM     13  C   UNL     1       0.417  10.414  20.619  0.00  0.00    +0.000 A 
BRANCH  13  14
ATOM     14  O   UNL     1       0.969  10.175  21.854  0.00  0.00    +0.000 OA
BRANCH  14  15
ATOM     15  C   UNL     1       0.438   9.185  22.705  0.00  0.00    +0.000 C 
ATOM     16  F   UNL     1      -0.048   9.735  23.836  0.00  0.00    +0.000 F 
ATOM     17  F   UNL     1      -0.619   8.636  22.054  0.00  0.00    +0.000 F 
ENDBRANCH  14  15
ENDBRANCH  13  14
ENDBRANCH   2   4
BRANCH   3  18
ATOM     18  N   UNL     1       2.681   6.765  20.069  0.00  0.00    +0.000 N 
ATOM     19  H   UNL     1       3.289   6.778  20.890  0.00  0.00    +0.000 HD
BRANCH  18  20
ATOM     20  C   UNL     1       2.342   5.467  19.727  0.00  0.00    +0.000 C 
ATOM     21  S   UNL     1       1.590   4.301  20.651  0.00  0.00    +0.000 S 
BRANCH  20  22
ATOM     22  N   UNL     1       2.569   5.157  18.414  0.00  0.00    +0.000 N 
ATOM     23  H   UNL     1       1.710   4.860  17.973  0.00  0.00    +0.000 HD
BRANCH  22  24
ATOM     24  C   UNL     1       3.695   4.331  18.031  0.00  0.00    +0.000 C 
BRANCH  24  25
ATOM     25  C   UNL     1       4.955   5.147  18.030  0.00  0.00    +0.000 A 
ATOM     26  C   UNL     1       5.192   6.091  17.024  0.00  0.00    +0.000 A 
ATOM     27  C   UNL     1       6.386   6.813  17.002  0.00  0.00    +0.000 A 
ATOM     28  C   UNL     1       7.348   6.594  17.985  0.00  0.00    +0.000 A 
ATOM     29  C   UNL     1       7.118   5.665  18.998  0.00  0.00    +0.000 A 
ATOM     30  C   UNL     1       5.928   4.946  19.023  0.00  0.00    +0.000 A 
ENDBRANCH  24  25
ENDBRANCH  22  24
ENDBRANCH  20  22
ENDBRANCH  18  20
ENDBRANCH   3  18
TORSDOF 8
ENDMDL
MODEL 5
REMARK VINA RESULT:      -7.7      0.349      1.079
REMARK  Name = 
REMARK  9 active torsions:
REMARK  status: ('A' for Active; 'I' for Inactive)
REMARK    1  A    between atoms: C_1  and  C_2
REMARK    2  A    between atoms: C_2  and  C_15
REMARK    3  A    between atoms: N_3  and  N_4
REMARK    4  A    between atoms: N_4  and  C_5
REMARK    5  A    between atoms: C_5  and  N_7
REMARK    6  A    between atoms: N_7  and  C_8
REMARK    7  A    between atoms: C_8  and  C_9
REMARK    8  A    between atoms: C_24  and  O_25
REMARK    9  A    between atoms: O_25  and  C_26
REMARK                            x       y       z     vdW  Elec       q    Type
REMARK                         _______ _______ _______ _____ _____    ______ ____
ROOT
ATOM      1  C   UNL     1       2.007   8.645  18.092  0.00  0.00    +0.000 C 
ATOM      2  C   UNL     1       1.937   7.941  19.433  0.00  0.00    +0.000 C 
ATOM      3  N   UNL     1       1.503   8.476  20.536  0.00  0.00    +0.000 NA
ENDROOT
BRANCH   2   4
ATOM      4  C   UNL     1       2.266   6.482  19.485  0.00  0.00    +0.000 A 
ATOM      5  C   UNL     1       1.754   5.849  20.633  0.00  0.00    +0.000 A 
ATOM      6  C   UNL     1       1.774   4.462  20.754  0.00  0.00    +0.000 A 
ATOM      7  C   UNL     1       2.319   3.691  19.731  0.00  0.00    +0.000 A 
ATOM      8  C   UNL     1       2.118   2.300  19.721  0.00  0.00    +0.000 A 
ATOM      9  C   UNL     1       2.652   1.520  18.701  0.00  0.00    +0.000 A 
ATOM     10  C   UNL     1       3.571   2.079  17.827  0.00  0.00    +0.000 A 
ATOM     11  C   UNL     1       3.733   3.463  17.795  0.00  0.00    +0.000 A 
ATOM     12  C   UNL     1       3.024   4.309  18.674  0.00  0.00    +0.000 A 
ATOM     13  C   UNL     1       2.923   5.725  18.511  0.00  0.00    +0.000 A 
BRANCH  13  14
ATOM     14  O   UNL     1       3.420   6.161  17.307  0.00  0.00    +0.000 OA
BRANCH  14  15
ATOM     15  C   UNL     1       4.801   6.377  17.129  0.00  0.00    +0.000 C 
ATOM     16  F   UNL     1       5.121   6.381  15.820  0.00  0.00    +0.000 F 
ATOM     17  F   UNL     1       5.065   7.623  17.599  0.00  0.00    +0.000 F 
ENDBRANCH  14  15
ENDBRANCH  13  14
ENDBRANCH   2   4
BRANCH   3  18
ATOM     18  N   UNL     1       1.080   9.774  20.513  0.00  0.00    +0.000 N 
ATOM     19  H   UNL     1       0.885  10.067  19.554  0.00  0.00    +0.000 HD
BRANCH  18  20
ATOM     20  C   UNL     1       0.101  10.233  21.378  0.00  0.00    +0.000 C 
ATOM     21  S   UNL     1      -0.259   9.719  22.922  0.00  0.00    +0.000 S 
BRANCH  20  22
ATOM     22  N   UNL     1      -0.580  11.328  20.920  0.00  0.00    +0.000 N 
ATOM     23  H   UNL     1      -1.555  11.264  21.179  0.00  0.00    +0.000 HD
BRANCH  22  24
ATOM     24  C   UNL     1      -0.404  11.796  19.561  0.00  0.00    +0.000 C 
BRANCH  24  25
ATOM     25  C   UNL     1      -1.538  11.317  18.702  0.00  0.00    +0.000 A 
ATOM     26  C   UNL     1      -2.822  11.857  18.851  0.00  0.00    +0.000 A 
ATOM     27  C   UNL     1      -3.882  11.375  18.082  0.00  0.00    +0.000 A 
ATOM     28  C   UNL     1      -3.664  10.352  17.162  0.00  0.00    +0.000 A 
ATOM     29  C   UNL     1      -2.389   9.816  16.997  0.00  0.00    +0.000 A 
ATOM     30  C   UNL     1      -1.330  10.296  17.761  0.00  0.00    +0.000 A 
ENDBRANCH  24  25
ENDBRANCH  22  24
ENDBRANCH  20  22
ENDBRANCH  18  20
ENDBRANCH   3  18
TORSDOF 8
ENDMDL
MODEL 6
REMARK VINA RESULT:      -7.6      3.234      8.156
REMARK  Name = 
REMARK  9 active torsions:
REMARK  status: ('A' for Active; 'I' for Inactive)
REMARK    1  A    between atoms: C_1  and  C_2
REMARK    2  A    between atoms: C_2  and  C_15
REMARK    3  A    between atoms: N_3  and  N_4
REMARK    4  A    between atoms: N_4  and  C_5
REMARK    5  A    between atoms: C_5  and  N_7
REMARK    6  A    between atoms: N_7  and  C_8
REMARK    7  A    between atoms: C_8  and  C_9
REMARK    8  A    between atoms: C_24  and  O_25
REMARK    9  A    between atoms: O_25  and  C_26
REMARK                            x       y       z     vdW  Elec       q    Type
REMARK                         _______ _______ _______ _____ _____    ______ ____
ROOT
ATOM      1  C   UNL     1       3.026   7.812  17.978  0.00  0.00    +0.000 C 
ATOM      2  C   UNL     1       2.053   7.939  19.134  0.00  0.00    +0.000 C 
ATOM      3  N   UNL     1       2.042   7.177  20.188  0.00  0.00    +0.000 NA
ENDROOT
BRANCH   2   4
ATOM      4  C   UNL     1       1.111   9.103  19.143  0.00  0.00    +0.000 A 
ATOM      5  C   UNL     1       0.489   9.309  17.898  0.00  0.00    +0.000 A 
ATOM      6  C   UNL     1      -0.569  10.204  17.767  0.00  0.00    +0.000 A 
ATOM      7  C   UNL     1      -1.012  10.913  18.880  0.00  0.00    +0.000 A 
ATOM      8  C   UNL     1      -2.226  11.617  18.824  0.00  0.00    +0.000 A 
ATOM      9  C   UNL     1      -2.681  12.323  19.932  0.00  0.00    +0.000 A 
ATOM     10  C   UNL     1      -1.831  12.523  21.008  0.00  0.00    +0.000 A 
ATOM     11  C   UNL     1      -0.652  11.785  21.096  0.00  0.00    +0.000 A 
ATOM     12  C   UNL     1      -0.271  10.879  20.083  0.00  0.00    +0.000 A 
ATOM     13  C   UNL     1       0.755   9.897  20.236  0.00  0.00    +0.000 A 
BRANCH  13  14
ATOM     14  O   UNL     1       1.204   9.790  21.529  0.00  0.00    +0.000 OA
BRANCH  14  15
ATOM     15  C   UNL     1       0.554   8.949  22.455  0.00  0.00    +0.000 C 
ATOM     16  F   UNL     1       0.060   9.662  23.487  0.00  0.00    +0.000 F 
ATOM     17  F   UNL     1      -0.511   8.408  21.810  0.00  0.00    +0.000 F 
ENDBRANCH  14  15
ENDBRANCH  13  14
ENDBRANCH   2   4
BRANCH   3  18
ATOM     18  N   UNL     1       2.961   6.172  20.282  0.00  0.00    +0.000 N 
ATOM     19  H   UNL     1       3.571   6.323  21.087  0.00  0.00    +0.000 HD
BRANCH  18  20
ATOM     20  C   UNL     1       2.592   4.841  20.184  0.00  0.00    +0.000 C 
ATOM     21  S   UNL     1       1.087   4.153  20.380  0.00  0.00    +0.000 S 
BRANCH  20  22
ATOM     22  N   UNL     1       3.597   4.013  19.764  0.00  0.00    +0.000 N 
ATOM     23  H   UNL     1       4.468   4.273  20.204  0.00  0.00    +0.000 HD
BRANCH  22  24
ATOM     24  C   UNL     1       3.763   3.702  18.360  0.00  0.00    +0.000 C 
BRANCH  24  25
ATOM     25  C   UNL     1       4.912   4.484  17.792  0.00  0.00    +0.000 A 
ATOM     26  C   UNL     1       6.004   4.830  18.598  0.00  0.00    +0.000 A 
ATOM     27  C   UNL     1       7.047   5.597  18.077  0.00  0.00    +0.000 A 
ATOM     28  C   UNL     1       7.003   6.022  16.751  0.00  0.00    +0.000 A 
ATOM     29  C   UNL     1       5.926   5.673  15.938  0.00  0.00    +0.000 A 
ATOM     30  C   UNL     1       4.887   4.907  16.454  0.00  0.00    +0.000 A 
ENDBRANCH  24  25
ENDBRANCH  22  24
ENDBRANCH  20  22
ENDBRANCH  18  20
ENDBRANCH   3  18
TORSDOF 8
ENDMDL
MODEL 7
REMARK VINA RESULT:      -7.5      3.517      8.159
REMARK  Name = 
REMARK  9 active torsions:
REMARK  status: ('A' for Active; 'I' for Inactive)
REMARK    1  A    between atoms: C_1  and  C_2
REMARK    2  A    between atoms: C_2  and  C_15
REMARK    3  A    between atoms: N_3  and  N_4
REMARK    4  A    between atoms: N_4  and  C_5
REMARK    5  A    between atoms: C_5  and  N_7
REMARK    6  A    between atoms: N_7  and  C_8
REMARK    7  A    between atoms: C_8  and  C_9
REMARK    8  A    between atoms: C_24  and  O_25
REMARK    9  A    between atoms: O_25  and  C_26
REMARK                            x       y       z     vdW  Elec       q    Type
REMARK                         _______ _______ _______ _____ _____    ______ ____
ROOT
ATOM      1  C   UNL     1       1.701   7.164  20.762  0.00  0.00    +0.000 C 
ATOM      2  C   UNL     1       1.868   8.069  19.557  0.00  0.00    +0.000 C 
ATOM      3  N   UNL     1       2.720   7.879  18.593  0.00  0.00    +0.000 NA
ENDROOT
BRANCH   2   4
ATOM      4  C   UNL     1       0.902   9.199  19.380  0.00  0.00    +0.000 A 
ATOM      5  C   UNL     1       0.420   9.302  18.063  0.00  0.00    +0.000 A 
ATOM      6  C   UNL     1      -0.639  10.151  17.753  0.00  0.00    +0.000 A 
ATOM      7  C   UNL     1      -1.222  10.918  18.758  0.00  0.00    +0.000 A 
ATOM      8  C   UNL     1      -2.439  11.578  18.519  0.00  0.00    +0.000 A 
ATOM      9  C   UNL     1      -3.034  12.340  19.517  0.00  0.00    +0.000 A 
ATOM     10  C   UNL     1      -2.315  12.639  20.665  0.00  0.00    +0.000 A 
ATOM     11  C   UNL     1      -1.136  11.948  20.934  0.00  0.00    +0.000 A 
ATOM     12  C   UNL     1      -0.621  10.989  20.036  0.00  0.00    +0.000 A 
ATOM     13  C   UNL     1       0.405  10.052  20.370  0.00  0.00    +0.000 A 
BRANCH  13  14
ATOM     14  O   UNL     1       0.708  10.046  21.709  0.00  0.00    +0.000 OA
BRANCH  14  15
ATOM     15  C   UNL     1      -0.227   9.596  22.661  0.00  0.00    +0.000 C 
ATOM     16  F   UNL     1      -0.822   8.458  22.250  0.00  0.00    +0.000 F 
ATOM     17  F   UNL     1       0.474   9.287  23.782  0.00  0.00    +0.000 F 
ENDBRANCH  14  15
ENDBRANCH  13  14
ENDBRANCH   2   4
BRANCH   3  18
ATOM     18  N   UNL     1       3.545   6.793  18.650  0.00  0.00    +0.000 N 
ATOM     19  H   UNL     1       3.223   6.141  19.368  0.00  0.00    +0.000 HD
BRANCH  18  20
ATOM     20  C   UNL     1       3.933   6.116  17.507  0.00  0.00    +0.000 C 
ATOM     21  S   UNL     1       5.134   6.502  16.417  0.00  0.00    +0.000 S 
BRANCH  20  22
ATOM     22  N   UNL     1       3.303   4.915  17.327  0.00  0.00    +0.000 N 
ATOM     23  H   UNL     1       2.303   5.032  17.406  0.00  0.00    +0.000 HD
BRANCH  22  24
ATOM     24  C   UNL     1       3.770   3.724  18.007  0.00  0.00    +0.000 C 
BRANCH  24  25
ATOM     25  C   UNL     1       2.914   3.449  19.209  0.00  0.00    +0.000 A 
ATOM     26  C   UNL     1       3.475   2.912  20.374  0.00  0.00    +0.000 A 
ATOM     27  C   UNL     1       2.666   2.614  21.472  0.00  0.00    +0.000 A 
ATOM     28  C   UNL     1       1.295   2.851  21.409  0.00  0.00    +0.000 A 
ATOM     29  C   UNL     1       0.728   3.396  20.258  0.00  0.00    +0.000 A 
ATOM     30  C   UNL     1       1.533   3.696  19.164  0.00  0.00    +0.000 A 
ENDBRANCH  24  25
ENDBRANCH  22  24
ENDBRANCH  20  22
ENDBRANCH  18  20
ENDBRANCH   3  18
TORSDOF 8
ENDMDL
MODEL 8
REMARK VINA RESULT:      -7.5      3.373      8.387
REMARK  Name = 
REMARK  9 active torsions:
REMARK  status: ('A' for Active; 'I' for Inactive)
REMARK    1  A    between atoms: C_1  and  C_2
REMARK    2  A    between atoms: C_2  and  C_15
REMARK    3  A    between atoms: N_3  and  N_4
REMARK    4  A    between atoms: N_4  and  C_5
REMARK    5  A    between atoms: C_5  and  N_7
REMARK    6  A    between atoms: N_7  and  C_8
REMARK    7  A    between atoms: C_8  and  C_9
REMARK    8  A    between atoms: C_24  and  O_25
REMARK    9  A    between atoms: O_25  and  C_26
REMARK                            x       y       z     vdW  Elec       q    Type
REMARK                         _______ _______ _______ _____ _____    ______ ____
ROOT
ATOM      1  C   UNL     1       1.822   9.064  18.259  0.00  0.00    +0.000 C 
ATOM      2  C   UNL     1       1.347   8.600  19.621  0.00  0.00    +0.000 C 
ATOM      3  N   UNL     1       1.777   7.542  20.243  0.00  0.00    +0.000 NA
ENDROOT
BRANCH   2   4
ATOM      4  C   UNL     1       0.406   9.483  20.382  0.00  0.00    +0.000 A 
ATOM      5  C   UNL     1       0.473   9.280  21.772  0.00  0.00    +0.000 A 
ATOM      6  C   UNL     1      -0.166  10.148  22.653  0.00  0.00    +0.000 A 
ATOM      7  C   UNL     1      -0.892  11.225  22.152  0.00  0.00    +0.000 A 
ATOM      8  C   UNL     1      -1.323  12.243  23.020  0.00  0.00    +0.000 A 
ATOM      9  C   UNL     1      -2.041  13.327  22.529  0.00  0.00    +0.000 A 
ATOM     10  C   UNL     1      -2.531  13.290  21.232  0.00  0.00    +0.000 A 
ATOM     11  C   UNL     1      -2.064  12.315  20.352  0.00  0.00    +0.000 A 
ATOM     12  C   UNL     1      -1.146  11.326  20.765  0.00  0.00    +0.000 A 
ATOM     13  C   UNL     1      -0.417  10.488  19.866  0.00  0.00    +0.000 A 
BRANCH  13  14
ATOM     14  O   UNL     1      -0.551  10.868  18.554  0.00  0.00    +0.000 OA
BRANCH  14  15
ATOM     15  C   UNL     1      -1.648  10.437  17.782  0.00  0.00    +0.000 C 
ATOM     16  F   UNL     1      -2.042  11.400  16.925  0.00  0.00    +0.000 F 
ATOM     17  F   UNL     1      -1.209   9.398  17.026  0.00  0.00    +0.000 F 
ENDBRANCH  14  15
ENDBRANCH  13  14
ENDBRANCH   2   4
BRANCH   3  18
ATOM     18  N   UNL     1       2.724   6.766  19.639  0.00  0.00    +0.000 N 
ATOM     19  H   UNL     1       3.649   7.183  19.754  0.00  0.00    +0.000 HD
BRANCH  18  20
ATOM     20  C   UNL     1       2.771   5.396  19.834  0.00  0.00    +0.000 C 
ATOM     21  S   UNL     1       1.838   4.447  20.837  0.00  0.00    +0.000 S 
BRANCH  20  22
ATOM     22  N   UNL     1       3.637   4.743  19.001  0.00  0.00    +0.000 N 
ATOM     23  H   UNL     1       4.383   4.321  19.535  0.00  0.00    +0.000 HD
BRANCH  22  24
ATOM     24  C   UNL     1       4.121   5.375  17.791  0.00  0.00    +0.000 C 
BRANCH  24  25
ATOM     25  C   UNL     1       5.519   5.882  17.999  0.00  0.00    +0.000 A 
ATOM     26  C   UNL     1       6.340   5.320  18.984  0.00  0.00    +0.000 A 
ATOM     27  C   UNL     1       7.622   5.826  19.205  0.00  0.00    +0.000 A 
ATOM     28  C   UNL     1       8.087   6.895  18.443  0.00  0.00    +0.000 A 
ATOM     29  C   UNL     1       7.282   7.454  17.452  0.00  0.00    +0.000 A 
ATOM     30  C   UNL     1       6.005   6.950  17.229  0.00  0.00    +0.000 A 
ENDBRANCH  24  25
ENDBRANCH  22  24
ENDBRANCH  20  22
ENDBRANCH  18  20
ENDBRANCH   3  18
TORSDOF 8
ENDMDL
MODEL 9
REMARK VINA RESULT:      -7.5      3.466      8.493
REMARK  Name = 
REMARK  9 active torsions:
REMARK  status: ('A' for Active; 'I' for Inactive)
REMARK    1  A    between atoms: C_1  and  C_2
REMARK    2  A    between atoms: C_2  and  C_15
REMARK    3  A    between atoms: N_3  and  N_4
REMARK    4  A    between atoms: N_4  and  C_5
REMARK    5  A    between atoms: C_5  and  N_7
REMARK    6  A    between atoms: N_7  and  C_8
REMARK    7  A    between atoms: C_8  and  C_9
REMARK    8  A    between atoms: C_24  and  O_25
REMARK    9  A    between atoms: O_25  and  C_26
REMARK                            x       y       z     vdW  Elec       q    Type
REMARK                         _______ _______ _______ _____ _____    ______ ____
ROOT
ATOM      1  C   UNL     1       1.996   8.822  18.536  0.00  0.00    +0.000 C 
ATOM      2  C   UNL     1       1.395   8.413  19.866  0.00  0.00    +0.000 C 
ATOM      3  N   UNL     1       1.713   7.341  20.531  0.00  0.00    +0.000 NA
ENDROOT
BRANCH   2   4
ATOM      4  C   UNL     1       0.459   9.364  20.543  0.00  0.00    +0.000 A 
ATOM      5  C   UNL     1       0.409   9.179  21.937  0.00  0.00    +0.000 A 
ATOM      6  C   UNL     1      -0.238  10.099  22.758  0.00  0.00    +0.000 A 
ATOM      7  C   UNL     1      -0.854  11.211  22.191  0.00  0.00    +0.000 A 
ATOM      8  C   UNL     1      -1.283  12.268  23.013  0.00  0.00    +0.000 A 
ATOM      9  C   UNL     1      -1.893  13.387  22.458  0.00  0.00    +0.000 A 
ATOM     10  C   UNL     1      -2.286  13.360  21.129  0.00  0.00    +0.000 A 
ATOM     11  C   UNL     1      -1.817  12.344  20.297  0.00  0.00    +0.000 A 
ATOM     12  C   UNL     1      -0.998  11.306  20.789  0.00  0.00    +0.000 A 
ATOM     13  C   UNL     1      -0.258  10.411  19.956  0.00  0.00    +0.000 A 
BRANCH  13  14
ATOM     14  O   UNL     1      -0.269  10.778  18.633  0.00  0.00    +0.000 OA
BRANCH  14  15
ATOM     15  C   UNL     1      -1.193  10.213  17.732  0.00  0.00    +0.000 C 
ATOM     16  F   UNL     1      -2.160   9.544  18.392  0.00  0.00    +0.000 F 
ATOM     17  F   UNL     1      -1.800  11.247  17.095  0.00  0.00    +0.000 F 
ENDBRANCH  14  15
ENDBRANCH  13  14
ENDBRANCH   2   4
BRANCH   3  18
ATOM     18  N   UNL     1       2.651   6.499  20.009  0.00  0.00    +0.000 N 
ATOM     19  H   UNL     1       3.529   6.582  20.524  0.00  0.00    +0.000 HD
BRANCH  18  20
ATOM     20  C   UNL     1       2.364   5.172  19.736  0.00  0.00    +0.000 C 
ATOM     21  S   UNL     1       1.149   4.214  20.355  0.00  0.00    +0.000 S 
BRANCH  20  22
ATOM     22  N   UNL     1       3.128   4.628  18.740  0.00  0.00    +0.000 N 
ATOM     23  H   UNL     1       2.594   3.940  18.229  0.00  0.00    +0.000 HD
BRANCH  22  24
ATOM     24  C   UNL     1       4.482   4.186  19.003  0.00  0.00    +0.000 C 
BRANCH  24  25
ATOM     25  C   UNL     1       5.309   4.293  17.755  0.00  0.00    +0.000 A 
ATOM     26  C   UNL     1       6.678   4.581  17.831  0.00  0.00    +0.000 A 
ATOM     27  C   UNL     1       7.432   4.726  16.666  0.00  0.00    +0.000 A 
ATOM     28  C   UNL     1       6.822   4.585  15.421  0.00  0.00    +0.000 A 
ATOM     29  C   UNL     1       5.464   4.287  15.335  0.00  0.00    +0.000 A 
ATOM     30  C   UNL     1       4.711   4.140  16.495  0.00  0.00    +0.000 A 
ENDBRANCH  24  25
ENDBRANCH  22  24
ENDBRANCH  20  22
ENDBRANCH  18  20
ENDBRANCH   3  18
TORSDOF 8
ENDMDL
