MODEL 1
REMARK VINA RESULT:      -5.8      0.000      0.000
REMARK  Name = 
REMARK  5 active torsions:
REMARK  status: ('A' for Active; 'I' for Inactive)
REMARK    1  A    between atoms: C_1  and  O_2
REMARK    2  A    between atoms: O_2  and  C_3
REMARK    3  A    between atoms: C_6  and  C_7
REMARK    4  A    between atoms: C_7  and  C_8
REMARK    5  A    between atoms: C_11  and  C_12
REMARK                            x       y       z     vdW  Elec       q    Type
REMARK                         _______ _______ _______ _____ _____    ______ ____
ROOT
ATOM      1  C   UNL     1       5.262   4.541  18.210  0.00  0.00    +0.000 A 
ATOM      2  C   UNL     1       4.562   3.948  17.154  0.00  0.00    +0.000 A 
ATOM      3  C   UNL     1       5.076   3.963  15.855  0.00  0.00    +0.000 A 
ATOM      4  C   UNL     1       6.293   4.592  15.593  0.00  0.00    +0.000 A 
ATOM      5  C   UNL     1       7.019   5.150  16.653  0.00  0.00    +0.000 A 
ATOM      6  C   UNL     1       6.523   5.117  17.971  0.00  0.00    +0.000 A 
ENDROOT
BRANCH   4   7
ATOM      7  C   UNL     1       6.867   4.678  14.222  0.00  0.00    +0.000 C 
ATOM      8  C   UNL     1       6.304   3.825  13.115  0.00  0.00    +0.000 C 
ATOM      9  O   UNL     1       7.779   5.473  14.000  0.00  0.00    +0.000 OA
ENDBRANCH   4   7
BRANCH   1  11
ATOM     10  C   UNL     1       3.603   5.298  19.726  0.00  0.00    +0.000 C 
ATOM     11  O   UNL     1       4.807   4.568  19.502  0.00  0.00    +0.000 OA
ENDBRANCH   1  11
BRANCH   6  12
ATOM     12  C   UNL     1       7.348   5.721  19.076  0.00  0.00    +0.000 C 
ATOM     13 CL   UNL     1       8.156   7.201  18.518  0.00  0.00    +0.000 Cl
ENDBRANCH   6  12
TORSDOF 3
ENDMDL
MODEL 2
REMARK VINA RESULT:      -5.8      2.716      4.542
REMARK  Name = 
REMARK  5 active torsions:
REMARK  status: ('A' for Active; 'I' for Inactive)
REMARK    1  A    between atoms: C_1  and  O_2
REMARK    2  A    between atoms: O_2  and  C_3
REMARK    3  A    between atoms: C_6  and  C_7
REMARK    4  A    between atoms: C_7  and  C_8
REMARK    5  A    between atoms: C_11  and  C_12
REMARK                            x       y       z     vdW  Elec       q    Type
REMARK                         _______ _______ _______ _____ _____    ______ ____
ROOT
ATOM      1  C   UNL     1       5.840   6.071  16.703  0.00  0.00    +0.000 A 
ATOM      2  C   UNL     1       4.838   6.490  17.586  0.00  0.00    +0.000 A 
ATOM      3  C   UNL     1       3.738   5.674  17.860  0.00  0.00    +0.000 A 
ATOM      4  C   UNL     1       3.616   4.432  17.237  0.00  0.00    +0.000 A 
ATOM      5  C   UNL     1       4.636   3.990  16.385  0.00  0.00    +0.000 A 
ATOM      6  C   UNL     1       5.763   4.792  16.122  0.00  0.00    +0.000 A 
ENDROOT
BRANCH   4   7
ATOM      7  C   UNL     1       2.444   3.541  17.457  0.00  0.00    +0.000 C 
ATOM      8  C   UNL     1       2.654   2.105  17.861  0.00  0.00    +0.000 C 
ATOM      9  O   UNL     1       1.309   4.001  17.338  0.00  0.00    +0.000 OA
ENDBRANCH   4   7
BRANCH   1  11
ATOM     10  C   UNL     1       7.517   7.568  17.457  0.00  0.00    +0.000 C 
ATOM     11  O   UNL     1       6.936   6.829  16.385  0.00  0.00    +0.000 OA
ENDBRANCH   1  11
BRANCH   6  12
ATOM     12  C   UNL     1       6.837   4.265  15.208  0.00  0.00    +0.000 C 
ATOM     13 CL   UNL     1       6.166   3.880  13.609  0.00  0.00    +0.000 Cl
ENDBRANCH   6  12
TORSDOF 3
ENDMDL
MODEL 3
REMARK VINA RESULT:      -5.8      2.324      3.044
REMARK  Name = 
REMARK  5 active torsions:
REMARK  status: ('A' for Active; 'I' for Inactive)
REMARK    1  A    between atoms: C_1  and  O_2
REMARK    2  A    between atoms: O_2  and  C_3
REMARK    3  A    between atoms: C_6  and  C_7
REMARK    4  A    between atoms: C_7  and  C_8
REMARK    5  A    between atoms: C_11  and  C_12
REMARK                            x       y       z     vdW  Elec       q    Type
REMARK                         _______ _______ _______ _____ _____    ______ ____
ROOT
ATOM      1  C   UNL     1       4.739   4.002  18.545  0.00  0.00    +0.000 A 
ATOM      2  C   UNL     1       6.037   4.525  18.524  0.00  0.00    +0.000 A 
ATOM      3  C   UNL     1       6.696   4.757  17.315  0.00  0.00    +0.000 A 
ATOM      4  C   UNL     1       6.069   4.450  16.107  0.00  0.00    +0.000 A 
ATOM      5  C   UNL     1       4.755   3.966  16.120  0.00  0.00    +0.000 A 
ATOM      6  C   UNL     1       4.071   3.753  17.332  0.00  0.00    +0.000 A 
ENDROOT
BRANCH   4   7
ATOM      7  C   UNL     1       6.740   4.635  14.791  0.00  0.00    +0.000 C 
ATOM      8  C   UNL     1       6.234   3.903  13.576  0.00  0.00    +0.000 C 
ATOM      9  O   UNL     1       7.688   5.415  14.704  0.00  0.00    +0.000 OA
ENDBRANCH   4   7
BRANCH   1  11
ATOM     10  C   UNL     1       4.204   2.434  20.242  0.00  0.00    +0.000 C 
ATOM     11  O   UNL     1       4.045   3.742  19.697  0.00  0.00    +0.000 OA
ENDBRANCH   1  11
BRANCH   6  12
ATOM     12  C   UNL     1       2.655   3.242  17.292  0.00  0.00    +0.000 C 
ATOM     13 CL   UNL     1       1.505   4.557  17.611  0.00  0.00    +0.000 Cl
ENDBRANCH   6  12
TORSDOF 3
ENDMDL
MODEL 4
REMARK VINA RESULT:      -5.8      2.835      5.094
REMARK  Name = 
REMARK  5 active torsions:
REMARK  status: ('A' for Active; 'I' for Inactive)
REMARK    1  A    between atoms: C_1  and  O_2
REMARK    2  A    between atoms: O_2  and  C_3
REMARK    3  A    between atoms: C_6  and  C_7
REMARK    4  A    between atoms: C_7  and  C_8
REMARK    5  A    between atoms: C_11  and  C_12
REMARK                            x       y       z     vdW  Elec       q    Type
REMARK                         _______ _______ _______ _____ _____    ______ ____
ROOT
ATOM      1  C   UNL     1       4.902   6.207  16.921  0.00  0.00    +0.000 A 
ATOM      2  C   UNL     1       3.933   6.859  17.691  0.00  0.00    +0.000 A 
ATOM      3  C   UNL     1       2.864   6.152  18.246  0.00  0.00    +0.000 A 
ATOM      4  C   UNL     1       2.741   4.780  18.021  0.00  0.00    +0.000 A 
ATOM      5  C   UNL     1       3.731   4.115  17.288  0.00  0.00    +0.000 A 
ATOM      6  C   UNL     1       4.827   4.813  16.746  0.00  0.00    +0.000 A 
ENDROOT
BRANCH   4   7
ATOM      7  C   UNL     1       1.600   3.985  18.551  0.00  0.00    +0.000 C 
ATOM      8  C   UNL     1       1.180   4.135  19.990  0.00  0.00    +0.000 C 
ATOM      9  O   UNL     1       0.988   3.234  17.794  0.00  0.00    +0.000 OA
ENDBRANCH   4   7
BRANCH   1  11
ATOM     10  C   UNL     1       6.965   7.335  17.235  0.00  0.00    +0.000 C 
ATOM     11  O   UNL     1       5.967   6.846  16.341  0.00  0.00    +0.000 OA
ENDBRANCH   1  11
BRANCH   6  12
ATOM     12  C   UNL     1       5.870   4.049  15.974  0.00  0.00    +0.000 C 
ATOM     13 CL   UNL     1       5.586   4.190  14.226  0.00  0.00    +0.000 Cl
ENDBRANCH   6  12
TORSDOF 3
ENDMDL
MODEL 5
REMARK VINA RESULT:      -5.7      2.498      4.468
REMARK  Name = 
REMARK  5 active torsions:
REMARK  status: ('A' for Active; 'I' for Inactive)
REMARK    1  A    between atoms: C_1  and  O_2
REMARK    2  A    between atoms: O_2  and  C_3
REMARK    3  A    between atoms: C_6  and  C_7
REMARK    4  A    between atoms: C_7  and  C_8
REMARK    5  A    between atoms: C_11  and  C_12
REMARK                            x       y       z     vdW  Elec       q    Type
REMARK                         _______ _______ _______ _____ _____    ______ ____
ROOT
ATOM      1  C   UNL     1       6.594   5.788  16.994  0.00  0.00    +0.000 A 
ATOM      2  C   UNL     1       5.998   5.727  18.258  0.00  0.00    +0.000 A 
ATOM      3  C   UNL     1       4.953   4.837  18.516  0.00  0.00    +0.000 A 
ATOM      4  C   UNL     1       4.478   4.005  17.502  0.00  0.00    +0.000 A 
ATOM      5  C   UNL     1       5.098   4.031  16.247  0.00  0.00    +0.000 A 
ATOM      6  C   UNL     1       6.170   4.905  15.983  0.00  0.00    +0.000 A 
ENDROOT
BRANCH   4   7
ATOM      7  C   UNL     1       3.339   3.069  17.708  0.00  0.00    +0.000 C 
ATOM      8  C   UNL     1       1.926   3.592  17.723  0.00  0.00    +0.000 C 
ATOM      9  O   UNL     1       3.564   1.866  17.832  0.00  0.00    +0.000 OA
ENDBRANCH   4   7
BRANCH   1  11
ATOM     10  C   UNL     1       7.722   7.816  17.484  0.00  0.00    +0.000 C 
ATOM     11  O   UNL     1       7.614   6.646  16.676  0.00  0.00    +0.000 OA
ENDBRANCH   1  11
BRANCH   6  12
ATOM     12  C   UNL     1       6.810   4.886  14.621  0.00  0.00    +0.000 C 
ATOM     13 CL   UNL     1       5.924   3.802  13.527  0.00  0.00    +0.000 Cl
ENDBRANCH   6  12
TORSDOF 3
ENDMDL
MODEL 6
REMARK VINA RESULT:      -5.7      2.697      3.280
REMARK  Name = 
REMARK  5 active torsions:
REMARK  status: ('A' for Active; 'I' for Inactive)
REMARK    1  A    between atoms: C_1  and  O_2
REMARK    2  A    between atoms: O_2  and  C_3
REMARK    3  A    between atoms: C_6  and  C_7
REMARK    4  A    between atoms: C_7  and  C_8
REMARK    5  A    between atoms: C_11  and  C_12
REMARK                            x       y       z     vdW  Elec       q    Type
REMARK                         _______ _______ _______ _____ _____    ______ ____
ROOT
ATOM      1  C   UNL     1       3.302   5.654  17.811  0.00  0.00    +0.000 A 
ATOM      2  C   UNL     1       4.153   6.639  17.297  0.00  0.00    +0.000 A 
ATOM      3  C   UNL     1       5.217   6.301  16.458  0.00  0.00    +0.000 A 
ATOM      4  C   UNL     1       5.454   4.964  16.134  0.00  0.00    +0.000 A 
ATOM      5  C   UNL     1       4.581   3.979  16.610  0.00  0.00    +0.000 A 
ATOM      6  C   UNL     1       3.489   4.311  17.436  0.00  0.00    +0.000 A 
ENDROOT
BRANCH   4   7
ATOM      7  C   UNL     1       6.598   4.543  15.281  0.00  0.00    +0.000 C 
ATOM      8  C   UNL     1       6.349   4.031  13.886  0.00  0.00    +0.000 C 
ATOM      9  O   UNL     1       7.744   4.648  15.716  0.00  0.00    +0.000 OA
ENDBRANCH   4   7
BRANCH   1  11
ATOM     10  C   UNL     1       2.400   7.053  19.500  0.00  0.00    +0.000 C 
ATOM     11  O   UNL     1       2.250   5.921  18.647  0.00  0.00    +0.000 OA
ENDBRANCH   1  11
BRANCH   6  12
ATOM     12  C   UNL     1       2.574   3.215  17.912  0.00  0.00    +0.000 C 
ATOM     13 CL   UNL     1       3.439   1.666  17.994  0.00  0.00    +0.000 Cl
ENDBRANCH   6  12
TORSDOF 3
ENDMDL
MODEL 7
REMARK VINA RESULT:      -5.6      2.429      4.789
REMARK  Name = 
REMARK  5 active torsions:
REMARK  status: ('A' for Active; 'I' for Inactive)
REMARK    1  A    between atoms: C_1  and  O_2
REMARK    2  A    between atoms: O_2  and  C_3
REMARK    3  A    between atoms: C_6  and  C_7
REMARK    4  A    between atoms: C_7  and  C_8
REMARK    5  A    between atoms: C_11  and  C_12
REMARK                            x       y       z     vdW  Elec       q    Type
REMARK                         _______ _______ _______ _____ _____    ______ ____
ROOT
ATOM      1  C   UNL     1       5.894   4.878  18.115  0.00  0.00    +0.000 A 
ATOM      2  C   UNL     1       5.193   5.185  19.286  0.00  0.00    +0.000 A 
ATOM      3  C   UNL     1       3.833   4.890  19.406  0.00  0.00    +0.000 A 
ATOM      4  C   UNL     1       3.150   4.297  18.343  0.00  0.00    +0.000 A 
ATOM      5  C   UNL     1       3.856   3.948  17.185  0.00  0.00    +0.000 A 
ATOM      6  C   UNL     1       5.233   4.217  17.063  0.00  0.00    +0.000 A 
ENDROOT
BRANCH   4   7
ATOM      7  C   UNL     1       1.693   4.000  18.399  0.00  0.00    +0.000 C 
ATOM      8  C   UNL     1       1.046   3.644  19.711  0.00  0.00    +0.000 C 
ATOM      9  O   UNL     1       1.023   4.082  17.370  0.00  0.00    +0.000 OA
ENDBRANCH   4   7
BRANCH   1  11
ATOM     10  C   UNL     1       7.627   6.495  18.193  0.00  0.00    +0.000 C 
ATOM     11  O   UNL     1       7.224   5.152  17.932  0.00  0.00    +0.000 OA
ENDBRANCH   1  11
BRANCH   6  12
ATOM     12  C   UNL     1       5.947   3.812  15.801  0.00  0.00    +0.000 C 
ATOM     13 CL   UNL     1       5.995   5.162  14.647  0.00  0.00    +0.000 Cl
ENDBRANCH   6  12
TORSDOF 3
ENDMDL
MODEL 8
REMARK VINA RESULT:      -5.6      3.393      4.469
REMARK  Name = 
REMARK  5 active torsions:
REMARK  status: ('A' for Active; 'I' for Inactive)
REMARK    1  A    between atoms: C_1  and  O_2
REMARK    2  A    between atoms: O_2  and  C_3
REMARK    3  A    between atoms: C_6  and  C_7
REMARK    4  A    between atoms: C_7  and  C_8
REMARK    5  A    between atoms: C_11  and  C_12
REMARK                            x       y       z     vdW  Elec       q    Type
REMARK                         _______ _______ _______ _____ _____    ______ ____
ROOT
ATOM      1  C   UNL     1       2.690   4.069  18.184  0.00  0.00    +0.000 A 
ATOM      2  C   UNL     1       3.691   3.843  17.233  0.00  0.00    +0.000 A 
ATOM      3  C   UNL     1       4.991   4.311  17.435  0.00  0.00    +0.000 A 
ATOM      4  C   UNL     1       5.303   5.032  18.589  0.00  0.00    +0.000 A 
ATOM      5  C   UNL     1       4.316   5.224  19.564  0.00  0.00    +0.000 A 
ATOM      6  C   UNL     1       3.009   4.733  19.383  0.00  0.00    +0.000 A 
ENDROOT
BRANCH   4   7
ATOM      7  C   UNL     1       6.659   5.592  18.836  0.00  0.00    +0.000 C 
ATOM      8  C   UNL     1       7.338   6.418  17.775  0.00  0.00    +0.000 C 
ATOM      9  O   UNL     1       7.200   5.400  19.924  0.00  0.00    +0.000 OA
ENDBRANCH   4   7
BRANCH   1  11
ATOM     10  C   UNL     1       1.117   2.320  18.487  0.00  0.00    +0.000 C 
ATOM     11  O   UNL     1       1.395   3.645  18.039  0.00  0.00    +0.000 OA
ENDBRANCH   1  11
BRANCH   6  12
ATOM     12  C   UNL     1       1.988   4.958  20.467  0.00  0.00    +0.000 C 
ATOM     13 CL   UNL     1       2.081   3.675  21.691  0.00  0.00    +0.000 Cl
ENDBRANCH   6  12
TORSDOF 3
ENDMDL
MODEL 9
REMARK VINA RESULT:      -5.6      2.187      2.880
REMARK  Name = 
REMARK  5 active torsions:
REMARK  status: ('A' for Active; 'I' for Inactive)
REMARK    1  A    between atoms: C_1  and  O_2
REMARK    2  A    between atoms: O_2  and  C_3
REMARK    3  A    between atoms: C_6  and  C_7
REMARK    4  A    between atoms: C_7  and  C_8
REMARK    5  A    between atoms: C_11  and  C_12
REMARK                            x       y       z     vdW  Elec       q    Type
REMARK                         _______ _______ _______ _____ _____    ______ ____
ROOT
ATOM      1  C   UNL     1       4.600   5.103  18.230  0.00  0.00    +0.000 A 
ATOM      2  C   UNL     1       5.676   5.962  17.982  0.00  0.00    +0.000 A 
ATOM      3  C   UNL     1       6.387   5.893  16.782  0.00  0.00    +0.000 A 
ATOM      4  C   UNL     1       6.040   4.946  15.818  0.00  0.00    +0.000 A 
ATOM      5  C   UNL     1       4.938   4.112  16.043  0.00  0.00    +0.000 A 
ATOM      6  C   UNL     1       4.197   4.191  17.237  0.00  0.00    +0.000 A 
ENDROOT
BRANCH   4   7
ATOM      7  C   UNL     1       6.790   4.797  14.541  0.00  0.00    +0.000 C 
ATOM      8  C   UNL     1       6.280   3.868  13.471  0.00  0.00    +0.000 C 
ATOM      9  O   UNL     1       7.808   5.464  14.361  0.00  0.00    +0.000 OA
ENDBRANCH   4   7
BRANCH   1  11
ATOM     10  C   UNL     1       2.943   6.188  19.535  0.00  0.00    +0.000 C 
ATOM     11  O   UNL     1       3.871   5.115  19.390  0.00  0.00    +0.000 OA
ENDBRANCH   1  11
BRANCH   6  12
ATOM     12  C   UNL     1       3.014   3.280  17.425  0.00  0.00    +0.000 C 
ATOM     13 CL   UNL     1       3.523   1.725  18.116  0.00  0.00    +0.000 Cl
ENDBRANCH   6  12
TORSDOF 3
ENDMDL
