MODEL 1
REMARK VINA RESULT:      -7.6      0.000      0.000
REMARK  Name = 
REMARK  4 active torsions:
REMARK  status: ('A' for Active; 'I' for Inactive)
REMARK    1  A    between atoms: C_2  and  C_3
REMARK    2  A    between atoms: C_3  and  N_4
REMARK    3  A    between atoms: N_7  and  S_8
REMARK    4  A    between atoms: S_8  and  C_11
REMARK                            x       y       z     vdW  Elec       q    Type
REMARK                         _______ _______ _______ _____ _____    ______ ____
ROOT
ATOM      1  N   UNL     1       5.446   5.816  18.131  0.00  0.00    +0.000 NA
ATOM      2  C   UNL     1       6.863   5.748  17.701  0.00  0.00    +0.000 C 
ATOM      3  C   UNL     1       7.265   4.456  16.969  0.00  0.00    +0.000 C 
ATOM      4  N   UNL     1       6.349   4.172  15.825  0.00  0.00    +0.000 NA
ATOM      5  C   UNL     1       4.939   4.113  16.320  0.00  0.00    +0.000 C 
ATOM      6  C   UNL     1       4.541   5.422  17.027  0.00  0.00    +0.000 C 
ENDROOT
BRANCH   4   7
ATOM      7  S   UNL     1       6.591   5.131  14.421  0.00  0.00    +0.000 S 
ATOM      8  O   UNL     1       5.570   6.164  14.412  0.00  0.00    +0.000 OA
ATOM      9  O   UNL     1       7.989   5.476  14.300  0.00  0.00    +0.000 OA
BRANCH   7  10
ATOM     10  C   UNL     1       6.197   3.986  13.121  0.00  0.00    +0.000 A 
ATOM     11  C   UNL     1       4.856   3.804  12.773  0.00  0.00    +0.000 A 
ATOM     12  C   UNL     1       4.525   2.891  11.774  0.00  0.00    +0.000 A 
ATOM     13  C   UNL     1       5.530   2.182  11.114  0.00  0.00    +0.000 A 
ATOM     14  C   UNL     1       6.871   2.383  11.450  0.00  0.00    +0.000 A 
ATOM     15  C   UNL     1       7.210   3.284  12.460  0.00  0.00    +0.000 A 
ENDBRANCH   7  10
ENDBRANCH   4   7
BRANCH   1  16
ATOM     16  C   UNL     1       5.187   5.028  19.349  0.00  0.00    +0.000 C 
BRANCH  16  18
ATOM     17  O   UNL     1       3.081   6.102  19.970  0.00  0.00    +0.000 OA
ATOM     18  C   UNL     1       3.704   5.057  19.771  0.00  0.00    +0.000 C 
ATOM     19  N   UNL     1       3.086   3.824  19.940  0.00  0.00    +0.000 N 
ATOM     20  C   UNL     1       3.697   2.521  19.692  0.00  0.00    +0.000 C 
ATOM     21  C   UNL     1       2.983   1.808  18.546  0.00  0.00    +0.000 C 
ATOM     22  C   UNL     1       1.472   1.756  18.783  0.00  0.00    +0.000 C 
ATOM     23  C   UNL     1       0.904   3.142  19.087  0.00  0.00    +0.000 C 
ATOM     24  C   UNL     1       1.660   3.800  20.237  0.00  0.00    +0.000 C 
ENDBRANCH  16  18
ENDBRANCH   1  16
TORSDOF 4
ENDMDL
MODEL 2
REMARK VINA RESULT:      -7.3      0.239      1.018
REMARK  Name = 
REMARK  4 active torsions:
REMARK  status: ('A' for Active; 'I' for Inactive)
REMARK    1  A    between atoms: C_2  and  C_3
REMARK    2  A    between atoms: C_3  and  N_4
REMARK    3  A    between atoms: N_7  and  S_8
REMARK    4  A    between atoms: S_8  and  C_11
REMARK                            x       y       z     vdW  Elec       q    Type
REMARK                         _______ _______ _______ _____ _____    ______ ____
ROOT
ATOM      1  N   UNL     1       5.224   5.920  18.027  0.00  0.00    +0.000 NA
ATOM      2  C   UNL     1       6.655   6.051  17.662  0.00  0.00    +0.000 C 
ATOM      3  C   UNL     1       7.284   4.805  17.017  0.00  0.00    +0.000 C 
ATOM      4  N   UNL     1       6.481   4.331  15.853  0.00  0.00    +0.000 NA
ATOM      5  C   UNL     1       5.072   4.078  16.289  0.00  0.00    +0.000 C 
ATOM      6  C   UNL     1       4.446   5.342  16.908  0.00  0.00    +0.000 C 
ENDROOT
BRANCH   4   7
ATOM      7  S   UNL     1       6.645   5.249  14.411  0.00  0.00    +0.000 S 
ATOM      8  O   UNL     1       5.628   6.287  14.432  0.00  0.00    +0.000 OA
ATOM      9  O   UNL     1       8.034   5.584  14.201  0.00  0.00    +0.000 OA
BRANCH   7  10
ATOM     10  C   UNL     1       6.173   4.071  13.168  0.00  0.00    +0.000 A 
ATOM     11  C   UNL     1       7.177   3.414  12.453  0.00  0.00    +0.000 A 
ATOM     12  C   UNL     1       6.826   2.506  11.456  0.00  0.00    +0.000 A 
ATOM     13  C   UNL     1       5.481   2.242  11.192  0.00  0.00    +0.000 A 
ATOM     14  C   UNL     1       4.480   2.886  11.925  0.00  0.00    +0.000 A 
ATOM     15  C   UNL     1       4.822   3.807  12.914  0.00  0.00    +0.000 A 
ENDBRANCH   7  10
ENDBRANCH   4   7
BRANCH   1  16
ATOM     16  C   UNL     1       5.027   5.159  19.273  0.00  0.00    +0.000 C 
BRANCH  16  18
ATOM     17  O   UNL     1       2.991   6.262  20.058  0.00  0.00    +0.000 OA
ATOM     18  C   UNL     1       3.570   5.211  19.776  0.00  0.00    +0.000 C 
ATOM     19  N   UNL     1       2.923   3.989  19.921  0.00  0.00    +0.000 N 
ATOM     20  C   UNL     1       3.478   2.683  19.578  0.00  0.00    +0.000 C 
ATOM     21  C   UNL     1       2.682   2.048  18.442  0.00  0.00    +0.000 C 
ATOM     22  C   UNL     1       1.185   2.028  18.758  0.00  0.00    +0.000 C 
ATOM     23  C   UNL     1       0.678   3.414  19.157  0.00  0.00    +0.000 C 
ATOM     24  C   UNL     1       1.514   3.993  20.293  0.00  0.00    +0.000 C 
ENDBRANCH  16  18
ENDBRANCH   1  16
TORSDOF 4
ENDMDL
MODEL 3
REMARK VINA RESULT:      -6.4      4.269      6.010
REMARK  Name = 
REMARK  4 active torsions:
REMARK  status: ('A' for Active; 'I' for Inactive)
REMARK    1  A    between atoms: C_2  and  C_3
REMARK    2  A    between atoms: C_3  and  N_4
REMARK    3  A    between atoms: N_7  and  S_8
REMARK    4  A    between atoms: S_8  and  C_11
REMARK                            x       y       z     vdW  Elec       q    Type
REMARK                         _______ _______ _______ _____ _____    ______ ____
ROOT
ATOM      1  N   UNL     1       1.554   6.510  19.663  0.00  0.00    +0.000 NA
ATOM      2  C   UNL     1       2.696   6.676  18.732  0.00  0.00    +0.000 C 
ATOM      3  C   UNL     1       4.026   6.070  19.210  0.00  0.00    +0.000 C 
ATOM      4  N   UNL     1       3.863   4.639  19.599  0.00  0.00    +0.000 NA
ATOM      5  C   UNL     1       2.796   4.525  20.641  0.00  0.00    +0.000 C 
ATOM      6  C   UNL     1       1.463   5.110  20.138  0.00  0.00    +0.000 C 
ENDROOT
BRANCH   4   7
ATOM      7  S   UNL     1       3.738   3.524  18.299  0.00  0.00    +0.000 S 
ATOM      8  O   UNL     1       4.075   2.208  18.813  0.00  0.00    +0.000 OA
ATOM      9  O   UNL     1       2.500   3.741  17.587  0.00  0.00    +0.000 OA
BRANCH   7  10
ATOM     10  C   UNL     1       5.072   4.036  17.244  0.00  0.00    +0.000 A 
ATOM     11  C   UNL     1       4.807   4.259  15.890  0.00  0.00    +0.000 A 
ATOM     12  C   UNL     1       5.847   4.636  15.042  0.00  0.00    +0.000 A 
ATOM     13  C   UNL     1       7.135   4.810  15.550  0.00  0.00    +0.000 A 
ATOM     14  C   UNL     1       7.391   4.608  16.908  0.00  0.00    +0.000 A 
ATOM     15  C   UNL     1       6.360   4.215  17.761  0.00  0.00    +0.000 A 
ENDBRANCH   7  10
ENDBRANCH   4   7
BRANCH   1  16
ATOM     16  C   UNL     1       1.600   7.461  20.787  0.00  0.00    +0.000 C 
BRANCH  16  18
ATOM     17  O   UNL     1       1.286   9.279  19.183  0.00  0.00    +0.000 OA
ATOM     18  C   UNL     1       1.266   8.904  20.357  0.00  0.00    +0.000 C 
ATOM     19  N   UNL     1       0.953   9.795  21.376  0.00  0.00    +0.000 N 
ATOM     20  C   UNL     1       0.849   9.468  22.796  0.00  0.00    +0.000 C 
ATOM     21  C   UNL     1      -0.583   9.667  23.285  0.00  0.00    +0.000 C 
ATOM     22  C   UNL     1      -1.101  11.061  22.925  0.00  0.00    +0.000 C 
ATOM     23  C   UNL     1      -0.917  11.361  21.437  0.00  0.00    +0.000 C 
ATOM     24  C   UNL     1       0.530  11.141  21.012  0.00  0.00    +0.000 C 
ENDBRANCH  16  18
ENDBRANCH   1  16
TORSDOF 4
ENDMDL
MODEL 4
REMARK VINA RESULT:      -6.4      4.260      6.011
REMARK  Name = 
REMARK  4 active torsions:
REMARK  status: ('A' for Active; 'I' for Inactive)
REMARK    1  A    between atoms: C_2  and  C_3
REMARK    2  A    between atoms: C_3  and  N_4
REMARK    3  A    between atoms: N_7  and  S_8
REMARK    4  A    between atoms: S_8  and  C_11
REMARK                            x       y       z     vdW  Elec       q    Type
REMARK                         _______ _______ _______ _____ _____    ______ ____
ROOT
ATOM      1  N   UNL     1       1.747   6.637  19.428  0.00  0.00    +0.000 NA
ATOM      2  C   UNL     1       2.991   6.671  18.622  0.00  0.00    +0.000 C 
ATOM      3  C   UNL     1       4.191   5.930  19.236  0.00  0.00    +0.000 C 
ATOM      4  N   UNL     1       3.835   4.529  19.603  0.00  0.00    +0.000 NA
ATOM      5  C   UNL     1       2.659   4.541  20.528  0.00  0.00    +0.000 C 
ATOM      6  C   UNL     1       1.456   5.260  19.889  0.00  0.00    +0.000 C 
ENDROOT
BRANCH   4   7
ATOM      7  S   UNL     1       3.726   3.421  18.297  0.00  0.00    +0.000 S 
ATOM      8  O   UNL     1       4.111   2.112  18.795  0.00  0.00    +0.000 OA
ATOM      9  O   UNL     1       2.471   3.604  17.603  0.00  0.00    +0.000 OA
BRANCH   7  10
ATOM     10  C   UNL     1       5.028   3.983  17.227  0.00  0.00    +0.000 A 
ATOM     11  C   UNL     1       6.306   4.158  17.763  0.00  0.00    +0.000 A 
ATOM     12  C   UNL     1       7.334   4.624  16.945  0.00  0.00    +0.000 A 
ATOM     13  C   UNL     1       7.089   4.891  15.598  0.00  0.00    +0.000 A 
ATOM     14  C   UNL     1       5.814   4.694  15.061  0.00  0.00    +0.000 A 
ATOM     15  C   UNL     1       4.776   4.242  15.875  0.00  0.00    +0.000 A 
ENDBRANCH   7  10
ENDBRANCH   4   7
BRANCH   1  16
ATOM     16  C   UNL     1       1.777   7.589  20.552  0.00  0.00    +0.000 C 
BRANCH  16  18
ATOM     17  O   UNL     1       1.117   9.350  18.989  0.00  0.00    +0.000 OA
ATOM     18  C   UNL     1       1.259   8.988  20.159  0.00  0.00    +0.000 C 
ATOM     19  N   UNL     1       0.968   9.855  21.205  0.00  0.00    +0.000 N 
ATOM     20  C   UNL     1       1.047   9.535  22.628  0.00  0.00    +0.000 C 
ATOM     21  C   UNL     1      -0.338   9.598  23.266  0.00  0.00    +0.000 C 
ATOM     22  C   UNL     1      -1.027  10.930  22.962  0.00  0.00    +0.000 C 
ATOM     23  C   UNL     1      -1.032  11.230  21.463  0.00  0.00    +0.000 C 
ATOM     24  C   UNL     1       0.378  11.149  20.887  0.00  0.00    +0.000 C 
ENDBRANCH  16  18
ENDBRANCH   1  16
TORSDOF 4
ENDMDL
MODEL 5
REMARK VINA RESULT:      -6.4      1.230      1.782
REMARK  Name = 
REMARK  4 active torsions:
REMARK  status: ('A' for Active; 'I' for Inactive)
REMARK    1  A    between atoms: C_2  and  C_3
REMARK    2  A    between atoms: C_3  and  N_4
REMARK    3  A    between atoms: N_7  and  S_8
REMARK    4  A    between atoms: S_8  and  C_11
REMARK                            x       y       z     vdW  Elec       q    Type
REMARK                         _______ _______ _______ _____ _____    ______ ____
ROOT
ATOM      1  N   UNL     1       5.186   4.881  17.783  0.00  0.00    +0.000 NA
ATOM      2  C   UNL     1       6.452   5.615  17.543  0.00  0.00    +0.000 C 
ATOM      3  C   UNL     1       7.573   4.792  16.886  0.00  0.00    +0.000 C 
ATOM      4  N   UNL     1       7.099   4.129  15.636  0.00  0.00    +0.000 NA
ATOM      5  C   UNL     1       5.900   3.288  15.942  0.00  0.00    +0.000 C 
ATOM      6  C   UNL     1       4.776   4.131  16.574  0.00  0.00    +0.000 C 
ENDROOT
BRANCH   4   7
ATOM      7  S   UNL     1       6.944   5.150  14.264  0.00  0.00    +0.000 S 
ATOM      8  O   UNL     1       5.869   6.089  14.533  0.00  0.00    +0.000 OA
ATOM      9  O   UNL     1       8.248   5.620  13.855  0.00  0.00    +0.000 OA
BRANCH   7  10
ATOM     10  C   UNL     1       6.360   4.018  13.026  0.00  0.00    +0.000 A 
ATOM     11  C   UNL     1       4.990   3.969  12.757  0.00  0.00    +0.000 A 
ATOM     12  C   UNL     1       4.509   3.068  11.807  0.00  0.00    +0.000 A 
ATOM     13  C   UNL     1       5.397   2.239  11.119  0.00  0.00    +0.000 A 
ATOM     14  C   UNL     1       6.768   2.307  11.376  0.00  0.00    +0.000 A 
ATOM     15  C   UNL     1       7.256   3.195  12.335  0.00  0.00    +0.000 A 
ENDBRANCH   7  10
ENDBRANCH   4   7
BRANCH   1  16
ATOM     16  C   UNL     1       5.256   4.007  18.966  0.00  0.00    +0.000 C 
BRANCH  16  18
ATOM     17  O   UNL     1       4.202   1.803  19.064  0.00  0.00    +0.000 OA
ATOM     18  C   UNL     1       4.067   3.028  19.052  0.00  0.00    +0.000 C 
ATOM     19  N   UNL     1       2.800   3.598  19.098  0.00  0.00    +0.000 N 
ATOM     20  C   UNL     1       2.508   5.028  19.138  0.00  0.00    +0.000 C 
ATOM     21  C   UNL     1       1.833   5.397  20.456  0.00  0.00    +0.000 C 
ATOM     22  C   UNL     1       0.621   4.503  20.726  0.00  0.00    +0.000 C 
ATOM     23  C   UNL     1       0.982   3.021  20.620  0.00  0.00    +0.000 C 
ATOM     24  C   UNL     1       1.653   2.719  19.284  0.00  0.00    +0.000 C 
ENDBRANCH  16  18
ENDBRANCH   1  16
TORSDOF 4
ENDMDL
MODEL 6
REMARK VINA RESULT:      -6.2      6.170      9.557
REMARK  Name = 
REMARK  4 active torsions:
REMARK  status: ('A' for Active; 'I' for Inactive)
REMARK    1  A    between atoms: C_2  and  C_3
REMARK    2  A    between atoms: C_3  and  N_4
REMARK    3  A    between atoms: N_7  and  S_8
REMARK    4  A    between atoms: S_8  and  C_11
REMARK                            x       y       z     vdW  Elec       q    Type
REMARK                         _______ _______ _______ _____ _____    ______ ____
ROOT
ATOM      1  N   UNL     1       2.352   8.180  18.945  0.00  0.00    +0.000 NA
ATOM      2  C   UNL     1       1.935   9.427  18.259  0.00  0.00    +0.000 C 
ATOM      3  C   UNL     1       0.445   9.783  18.395  0.00  0.00    +0.000 C 
ATOM      4  N   UNL     1       0.017   9.795  19.824  0.00  0.00    +0.000 NA
ATOM      5  C   UNL     1       0.330   8.472  20.449  0.00  0.00    +0.000 C 
ATOM      6  C   UNL     1       1.829   8.141  20.330  0.00  0.00    +0.000 C 
ENDROOT
BRANCH   4   7
ATOM      7  S   UNL     1       0.504  11.167  20.736  0.00  0.00    +0.000 S 
ATOM      8  O   UNL     1       1.286  10.691  21.864  0.00  0.00    +0.000 OA
ATOM      9  O   UNL     1       1.029  12.181  19.851  0.00  0.00    +0.000 OA
BRANCH   7  10
ATOM     10  C   UNL     1      -1.047  11.752  21.377  0.00  0.00    +0.000 A 
ATOM     11  C   UNL     1      -1.960  12.332  20.493  0.00  0.00    +0.000 A 
ATOM     12  C   UNL     1      -3.171  12.820  20.982  0.00  0.00    +0.000 A 
ATOM     13  C   UNL     1      -3.472  12.709  22.340  0.00  0.00    +0.000 A 
ATOM     14  C   UNL     1      -2.565  12.109  23.217  0.00  0.00    +0.000 A 
ATOM     15  C   UNL     1      -1.344  11.631  22.738  0.00  0.00    +0.000 A 
ENDBRANCH   7  10
ENDBRANCH   4   7
BRANCH   1  16
ATOM     16  C   UNL     1       1.980   6.970  18.192  0.00  0.00    +0.000 C 
BRANCH  16  18
ATOM     17  O   UNL     1       4.341   6.344  18.089  0.00  0.00    +0.000 OA
ATOM     18  C   UNL     1       3.161   5.995  18.014  0.00  0.00    +0.000 C 
ATOM     19  N   UNL     1       2.834   4.672  17.739  0.00  0.00    +0.000 N 
ATOM     20  C   UNL     1       1.483   4.123  17.671  0.00  0.00    +0.000 C 
ATOM     21  C   UNL     1       1.270   3.094  18.778  0.00  0.00    +0.000 C 
ATOM     22  C   UNL     1       2.376   2.037  18.770  0.00  0.00    +0.000 C 
ATOM     23  C   UNL     1       3.764   2.678  18.792  0.00  0.00    +0.000 C 
ATOM     24  C   UNL     1       3.912   3.694  17.665  0.00  0.00    +0.000 C 
ENDBRANCH  16  18
ENDBRANCH   1  16
TORSDOF 4
ENDMDL
MODEL 7
REMARK VINA RESULT:      -6.1      6.192      9.606
REMARK  Name = 
REMARK  4 active torsions:
REMARK  status: ('A' for Active; 'I' for Inactive)
REMARK    1  A    between atoms: C_2  and  C_3
REMARK    2  A    between atoms: C_3  and  N_4
REMARK    3  A    between atoms: N_7  and  S_8
REMARK    4  A    between atoms: S_8  and  C_11
REMARK                            x       y       z     vdW  Elec       q    Type
REMARK                         _______ _______ _______ _____ _____    ______ ____
ROOT
ATOM      1  N   UNL     1       2.285   8.196  18.973  0.00  0.00    +0.000 NA
ATOM      2  C   UNL     1       1.813   9.362  18.188  0.00  0.00    +0.000 C 
ATOM      3  C   UNL     1       0.326   9.713  18.364  0.00  0.00    +0.000 C 
ATOM      4  N   UNL     1      -0.030   9.865  19.805  0.00  0.00    +0.000 NA
ATOM      5  C   UNL     1       0.336   8.615  20.542  0.00  0.00    +0.000 C 
ATOM      6  C   UNL     1       1.833   8.292  20.380  0.00  0.00    +0.000 C 
ENDROOT
BRANCH   4   7
ATOM      7  S   UNL     1       0.478  11.327  20.548  0.00  0.00    +0.000 S 
ATOM      8  O   UNL     1       1.448  10.986  21.574  0.00  0.00    +0.000 OA
ATOM      9  O   UNL     1       0.794  12.306  19.533  0.00  0.00    +0.000 OA
BRANCH   7  10
ATOM     10  C   UNL     1      -1.003  11.855  21.374  0.00  0.00    +0.000 A 
ATOM     11  C   UNL     1      -1.185  11.502  22.713  0.00  0.00    +0.000 A 
ATOM     12  C   UNL     1      -2.353  11.885  23.371  0.00  0.00    +0.000 A 
ATOM     13  C   UNL     1      -3.320  12.633  22.698  0.00  0.00    +0.000 A 
ATOM     14  C   UNL     1      -3.124  13.003  21.365  0.00  0.00    +0.000 A 
ATOM     15  C   UNL     1      -1.965  12.611  20.695  0.00  0.00    +0.000 A 
ENDBRANCH   7  10
ENDBRANCH   4   7
BRANCH   1  16
ATOM     16  C   UNL     1       1.895   6.912  18.366  0.00  0.00    +0.000 C 
BRANCH  16  18
ATOM     17  O   UNL     1       4.269   6.354  18.186  0.00  0.00    +0.000 OA
ATOM     18  C   UNL     1       3.098   5.971  18.144  0.00  0.00    +0.000 C 
ATOM     19  N   UNL     1       2.800   4.642  17.869  0.00  0.00    +0.000 N 
ATOM     20  C   UNL     1       1.463   4.055  17.838  0.00  0.00    +0.000 C 
ATOM     21  C   UNL     1       1.313   3.013  18.943  0.00  0.00    +0.000 C 
ATOM     22  C   UNL     1       2.448   1.988  18.894  0.00  0.00    +0.000 C 
ATOM     23  C   UNL     1       3.817   2.667  18.878  0.00  0.00    +0.000 C 
ATOM     24  C   UNL     1       3.902   3.695  17.755  0.00  0.00    +0.000 C 
ENDBRANCH  16  18
ENDBRANCH   1  16
TORSDOF 4
ENDMDL
MODEL 8
REMARK VINA RESULT:      -6.0      4.306      6.157
REMARK  Name = 
REMARK  4 active torsions:
REMARK  status: ('A' for Active; 'I' for Inactive)
REMARK    1  A    between atoms: C_2  and  C_3
REMARK    2  A    between atoms: C_3  and  N_4
REMARK    3  A    between atoms: N_7  and  S_8
REMARK    4  A    between atoms: S_8  and  C_11
REMARK                            x       y       z     vdW  Elec       q    Type
REMARK                         _______ _______ _______ _____ _____    ______ ____
ROOT
ATOM      1  N   UNL     1       2.340   6.663  20.213  0.00  0.00    +0.000 NA
ATOM      2  C   UNL     1       1.887   5.278  20.489  0.00  0.00    +0.000 C 
ATOM      3  C   UNL     1       1.491   4.459  19.249  0.00  0.00    +0.000 C 
ATOM      4  N   UNL     1       2.574   4.468  18.222  0.00  0.00    +0.000 NA
ATOM      5  C   UNL     1       2.911   5.882  17.868  0.00  0.00    +0.000 C 
ATOM      6  C   UNL     1       3.332   6.683  19.114  0.00  0.00    +0.000 C 
ENDROOT
BRANCH   4   7
ATOM      7  S   UNL     1       3.921   3.456  18.551  0.00  0.00    +0.000 S 
ATOM      8  O   UNL     1       4.422   3.804  19.869  0.00  0.00    +0.000 OA
ATOM      9  O   UNL     1       3.595   2.087  18.225  0.00  0.00    +0.000 OA
BRANCH   7  10
ATOM     10  C   UNL     1       5.112   4.032  17.365  0.00  0.00    +0.000 A 
ATOM     11  C   UNL     1       6.286   4.630  17.830  0.00  0.00    +0.000 A 
ATOM     12  C   UNL     1       7.219   5.111  16.914  0.00  0.00    +0.000 A 
ATOM     13  C   UNL     1       6.989   4.974  15.544  0.00  0.00    +0.000 A 
ATOM     14  C   UNL     1       5.825   4.355  15.083  0.00  0.00    +0.000 A 
ATOM     15  C   UNL     1       4.878   3.884  15.993  0.00  0.00    +0.000 A 
ENDBRANCH   7  10
ENDBRANCH   4   7
BRANCH   1  16
ATOM     16  C   UNL     1       1.219   7.580  19.947  0.00  0.00    +0.000 C 
BRANCH  16  18
ATOM     17  O   UNL     1       1.680   8.659  22.093  0.00  0.00    +0.000 OA
ATOM     18  C   UNL     1       1.104   8.699  21.003  0.00  0.00    +0.000 C 
ATOM     19  N   UNL     1       0.289   9.776  20.676  0.00  0.00    +0.000 N 
ATOM     20  C   UNL     1      -0.407   9.966  19.406  0.00  0.00    +0.000 C 
ATOM     21  C   UNL     1       0.130  11.199  18.684  0.00  0.00    +0.000 C 
ATOM     22  C   UNL     1       0.112  12.427  19.597  0.00  0.00    +0.000 C 
ATOM     23  C   UNL     1       0.811  12.146  20.928  0.00  0.00    +0.000 C 
ATOM     24  C   UNL     1       0.231  10.904  21.596  0.00  0.00    +0.000 C 
ENDBRANCH  16  18
ENDBRANCH   1  16
TORSDOF 4
ENDMDL
MODEL 9
REMARK VINA RESULT:      -6.0      4.411      6.142
REMARK  Name = 
REMARK  4 active torsions:
REMARK  status: ('A' for Active; 'I' for Inactive)
REMARK    1  A    between atoms: C_2  and  C_3
REMARK    2  A    between atoms: C_3  and  N_4
REMARK    3  A    between atoms: N_7  and  S_8
REMARK    4  A    between atoms: S_8  and  C_11
REMARK                            x       y       z     vdW  Elec       q    Type
REMARK                         _______ _______ _______ _____ _____    ______ ____
ROOT
ATOM      1  N   UNL     1       2.526   6.930  20.016  0.00  0.00    +0.000 NA
ATOM      2  C   UNL     1       1.955   5.602  20.348  0.00  0.00    +0.000 C 
ATOM      3  C   UNL     1       1.500   4.763  19.142  0.00  0.00    +0.000 C 
ATOM      4  N   UNL     1       2.587   4.635  18.127  0.00  0.00    +0.000 NA
ATOM      5  C   UNL     1       3.045   5.997  17.714  0.00  0.00    +0.000 C 
ATOM      6  C   UNL     1       3.524   6.816  18.928  0.00  0.00    +0.000 C 
ENDROOT
BRANCH   4   7
ATOM      7  S   UNL     1       3.841   3.529  18.516  0.00  0.00    +0.000 S 
ATOM      8  O   UNL     1       4.311   3.846  19.853  0.00  0.00    +0.000 OA
ATOM      9  O   UNL     1       3.429   2.185  18.180  0.00  0.00    +0.000 OA
BRANCH   7  10
ATOM     10  C   UNL     1       5.120   4.008  17.379  0.00  0.00    +0.000 A 
ATOM     11  C   UNL     1       4.889   3.859  16.010  0.00  0.00    +0.000 A 
ATOM     12  C   UNL     1       5.890   4.206  15.104  0.00  0.00    +0.000 A 
ATOM     13  C   UNL     1       7.104   4.717  15.566  0.00  0.00    +0.000 A 
ATOM     14  C   UNL     1       7.323   4.884  16.935  0.00  0.00    +0.000 A 
ATOM     15  C   UNL     1       6.332   4.526  17.849  0.00  0.00    +0.000 A 
ENDBRANCH   7  10
ENDBRANCH   4   7
BRANCH   1  16
ATOM     16  C   UNL     1       1.489   7.926  19.697  0.00  0.00    +0.000 C 
BRANCH  16  18
ATOM     17  O   UNL     1       1.584   8.625  22.038  0.00  0.00    +0.000 OA
ATOM     18  C   UNL     1       1.075   8.765  20.923  0.00  0.00    +0.000 C 
ATOM     19  N   UNL     1       0.066   9.699  20.721  0.00  0.00    +0.000 N 
ATOM     20  C   UNL     1      -0.581   9.994  19.446  0.00  0.00    +0.000 C 
ATOM     21  C   UNL     1      -0.284  11.428  19.017  0.00  0.00    +0.000 C 
ATOM     22  C   UNL     1      -0.619  12.420  20.133  0.00  0.00    +0.000 C 
ATOM     23  C   UNL     1       0.048  12.027  21.451  0.00  0.00    +0.000 C 
ATOM     24  C   UNL     1      -0.286  10.586  21.822  0.00  0.00    +0.000 C 
ENDBRANCH  16  18
ENDBRANCH   1  16
TORSDOF 4
ENDMDL
