MODEL 1
REMARK VINA RESULT:      -9.4      0.000      0.000
REMARK  Name = 
REMARK  5 active torsions:
REMARK  status: ('A' for Active; 'I' for Inactive)
REMARK    1  A    between atoms: C_1  and  C_2
REMARK    2  A    between atoms: C_5  and  C_6
REMARK    3  A    between atoms: N_7  and  N_8
REMARK    4  A    between atoms: C_9  and  C_11
REMARK    5  A    between atoms: C_13  and  C_14
REMARK                            x       y       z     vdW  Elec       q    Type
REMARK                         _______ _______ _______ _____ _____    ______ ____
ROOT
ATOM      1  C   UNL     1       6.240   5.430  17.694  0.00  0.00    +0.000 A 
ATOM      2  C   UNL     1       5.125   5.156  18.496  0.00  0.00    +0.000 A 
ATOM      3  C   UNL     1       4.083   4.411  17.972  0.00  0.00    +0.000 A 
ATOM      4  N   UNL     1       4.115   3.950  16.702  0.00  0.00    +0.000 NA
ATOM      5  C   UNL     1       5.163   4.238  15.911  0.00  0.00    +0.000 A 
ATOM      6  C   UNL     1       5.123   3.781  14.599  0.00  0.00    +0.000 A 
ATOM      7  C   UNL     1       6.160   4.018  13.697  0.00  0.00    +0.000 A 
ATOM      8  C   UNL     1       7.277   4.722  14.114  0.00  0.00    +0.000 A 
ATOM      9  C   UNL     1       7.340   5.192  15.427  0.00  0.00    +0.000 A 
ATOM     10  C   UNL     1       6.279   4.974  16.350  0.00  0.00    +0.000 A 
ENDROOT
BRANCH   3  11
ATOM     11  C   UNL     1       2.885   4.051  18.757  0.00  0.00    +0.000 A 
ATOM     12  C   UNL     1       2.556   4.697  19.957  0.00  0.00    +0.000 A 
ATOM     13  C   UNL     1       1.432   4.294  20.664  0.00  0.00    +0.000 A 
ATOM     14  N   UNL     1       0.612   3.303  20.262  0.00  0.00    +0.000 NA
ATOM     15  C   UNL     1       0.921   2.700  19.097  0.00  0.00    +0.000 A 
ATOM     16  C   UNL     1       2.023   3.033  18.325  0.00  0.00    +0.000 A 
ENDBRANCH   3  11
BRANCH   1  18
ATOM     17  N   UNL     1       7.454   7.556  17.770  0.00  0.00    +0.000 N 
ATOM     18  C   UNL     1       7.329   6.265  18.282  0.00  0.00    +0.000 C 
ATOM     19  O   UNL     1       8.060   5.793  19.147  0.00  0.00    +0.000 OA
ATOM     20  H   UNL     1       6.797   7.938  17.101  0.00  0.00    +0.000 HD
BRANCH  17  22
ATOM     21  C   UNL     1       8.317   9.638  18.102  0.00  0.00    +0.000 C 
ATOM     22  N   UNL     1       8.431   8.361  18.278  0.00  0.00    +0.000 NA
BRANCH  21  27
ATOM     23  C   UNL     1      11.971  12.783  17.912  0.00  0.00    +0.000 C 
ATOM     24  C   UNL     1      10.971  11.947  18.604  0.00  0.00    +0.000 A 
ATOM     25  C   UNL     1      10.665  11.761  19.934  0.00  0.00    +0.000 A 
ATOM     26  C   UNL     1       9.598  10.837  19.970  0.00  0.00    +0.000 A 
ATOM     27  C   UNL     1       9.310  10.511  18.658  0.00  0.00    +0.000 A 
ATOM     28  O   UNL     1      10.151  11.187  17.819  0.00  0.00    +0.000 OA
ENDBRANCH  21  27
ENDBRANCH  17  22
ENDBRANCH   1  18
TORSDOF 4
ENDMDL
MODEL 2
REMARK VINA RESULT:      -9.1      0.595      1.036
REMARK  Name = 
REMARK  5 active torsions:
REMARK  status: ('A' for Active; 'I' for Inactive)
REMARK    1  A    between atoms: C_1  and  C_2
REMARK    2  A    between atoms: C_5  and  C_6
REMARK    3  A    between atoms: N_7  and  N_8
REMARK    4  A    between atoms: C_9  and  C_11
REMARK    5  A    between atoms: C_13  and  C_14
REMARK                            x       y       z     vdW  Elec       q    Type
REMARK                         _______ _______ _______ _____ _____    ______ ____
ROOT
ATOM      1  C   UNL     1       6.224   5.484  17.632  0.00  0.00    +0.000 A 
ATOM      2  C   UNL     1       5.113   5.196  18.434  0.00  0.00    +0.000 A 
ATOM      3  C   UNL     1       4.092   4.416  17.919  0.00  0.00    +0.000 A 
ATOM      4  N   UNL     1       4.142   3.935  16.656  0.00  0.00    +0.000 NA
ATOM      5  C   UNL     1       5.186   4.236  15.865  0.00  0.00    +0.000 A 
ATOM      6  C   UNL     1       5.163   3.755  14.561  0.00  0.00    +0.000 A 
ATOM      7  C   UNL     1       6.198   4.003  13.660  0.00  0.00    +0.000 A 
ATOM      8  C   UNL     1       7.295   4.742  14.070  0.00  0.00    +0.000 A 
ATOM      9  C   UNL     1       7.340   5.236  15.375  0.00  0.00    +0.000 A 
ATOM     10  C   UNL     1       6.281   5.007  16.296  0.00  0.00    +0.000 A 
ENDROOT
BRANCH   3  11
ATOM     11  C   UNL     1       2.900   4.040  18.704  0.00  0.00    +0.000 A 
ATOM     12  C   UNL     1       2.579   4.660  19.920  0.00  0.00    +0.000 A 
ATOM     13  C   UNL     1       1.460   4.242  20.626  0.00  0.00    +0.000 A 
ATOM     14  N   UNL     1       0.638   3.259  20.210  0.00  0.00    +0.000 NA
ATOM     15  C   UNL     1       0.939   2.681  19.031  0.00  0.00    +0.000 A 
ATOM     16  C   UNL     1       2.035   3.030  18.258  0.00  0.00    +0.000 A 
ENDBRANCH   3  11
BRANCH   1  18
ATOM     17  N   UNL     1       7.348   7.659  17.717  0.00  0.00    +0.000 N 
ATOM     18  C   UNL     1       7.288   6.356  18.211  0.00  0.00    +0.000 C 
ATOM     19  O   UNL     1       8.058   5.903  19.052  0.00  0.00    +0.000 OA
ATOM     20  H   UNL     1       6.660   8.023  17.069  0.00  0.00    +0.000 HD
BRANCH  17  22
ATOM     21  C   UNL     1       8.247   9.745  17.880  0.00  0.00    +0.000 C 
ATOM     22  N   UNL     1       8.300   8.498  18.217  0.00  0.00    +0.000 NA
BRANCH  21  27
ATOM     23  C   UNL     1      10.239  12.456  21.339  0.00  0.00    +0.000 C 
ATOM     24  C   UNL     1      10.145  11.897  19.977  0.00  0.00    +0.000 A 
ATOM     25  C   UNL     1      10.925  12.039  18.851  0.00  0.00    +0.000 A 
ATOM     26  C   UNL     1      10.327  11.243  17.850  0.00  0.00    +0.000 A 
ATOM     27  C   UNL     1       9.213  10.657  18.421  0.00  0.00    +0.000 A 
ATOM     28  O   UNL     1       9.098  11.058  19.723  0.00  0.00    +0.000 OA
ENDBRANCH  21  27
ENDBRANCH  17  22
ENDBRANCH   1  18
TORSDOF 4
ENDMDL
MODEL 3
REMARK VINA RESULT:      -9.0      1.013      1.196
REMARK  Name = 
REMARK  5 active torsions:
REMARK  status: ('A' for Active; 'I' for Inactive)
REMARK    1  A    between atoms: C_1  and  C_2
REMARK    2  A    between atoms: C_5  and  C_6
REMARK    3  A    between atoms: N_7  and  N_8
REMARK    4  A    between atoms: C_9  and  C_11
REMARK    5  A    between atoms: C_13  and  C_14
REMARK                            x       y       z     vdW  Elec       q    Type
REMARK                         _______ _______ _______ _____ _____    ______ ____
ROOT
ATOM      1  C   UNL     1       6.445   5.738  17.826  0.00  0.00    +0.000 A 
ATOM      2  C   UNL     1       5.484   5.439  18.799  0.00  0.00    +0.000 A 
ATOM      3  C   UNL     1       4.473   4.543  18.499  0.00  0.00    +0.000 A 
ATOM      4  N   UNL     1       4.389   3.958  17.283  0.00  0.00    +0.000 NA
ATOM      5  C   UNL     1       5.285   4.265  16.328  0.00  0.00    +0.000 A 
ATOM      6  C   UNL     1       5.124   3.670  15.082  0.00  0.00    +0.000 A 
ATOM      7  C   UNL     1       5.999   3.914  14.024  0.00  0.00    +0.000 A 
ATOM      8  C   UNL     1       7.074   4.766  14.213  0.00  0.00    +0.000 A 
ATOM      9  C   UNL     1       7.256   5.375  15.456  0.00  0.00    +0.000 A 
ATOM     10  C   UNL     1       6.358   5.150  16.536  0.00  0.00    +0.000 A 
ENDROOT
BRANCH   3  11
ATOM     11  C   UNL     1       3.438   4.151  19.475  0.00  0.00    +0.000 A 
ATOM     12  C   UNL     1       2.318   4.952  19.740  0.00  0.00    +0.000 A 
ATOM     13  C   UNL     1       1.394   4.542  20.690  0.00  0.00    +0.000 A 
ATOM     14  N   UNL     1       1.499   3.395  21.389  0.00  0.00    +0.000 NA
ATOM     15  C   UNL     1       2.565   2.618  21.114  0.00  0.00    +0.000 A 
ATOM     16  C   UNL     1       3.540   2.946  20.184  0.00  0.00    +0.000 A 
ENDBRANCH   3  11
BRANCH   1  18
ATOM     17  N   UNL     1       7.475   7.930  17.458  0.00  0.00    +0.000 N 
ATOM     18  C   UNL     1       7.501   6.734  18.175  0.00  0.00    +0.000 C 
ATOM     19  O   UNL     1       8.335   6.464  19.034  0.00  0.00    +0.000 OA
ATOM     20  H   UNL     1       6.737   8.149  16.801  0.00  0.00    +0.000 HD
BRANCH  17  22
ATOM     21  C   UNL     1       8.026  10.105  17.848  0.00  0.00    +0.000 C 
ATOM     22  N   UNL     1       8.415   8.876  17.744  0.00  0.00    +0.000 NA
BRANCH  21  27
ATOM     23  C   UNL     1      12.024  11.806  19.947  0.00  0.00    +0.000 C 
ATOM     24  C   UNL     1      10.804  11.918  19.125  0.00  0.00    +0.000 A 
ATOM     25  C   UNL     1      10.234  12.962  18.432  0.00  0.00    +0.000 A 
ATOM     26  C   UNL     1       9.066  12.448  17.828  0.00  0.00    +0.000 A 
ATOM     27  C   UNL     1       8.988  11.115  18.185  0.00  0.00    +0.000 A 
ATOM     28  O   UNL     1      10.049  10.788  18.982  0.00  0.00    +0.000 OA
ENDBRANCH  21  27
ENDBRANCH  17  22
ENDBRANCH   1  18
TORSDOF 4
ENDMDL
MODEL 4
REMARK VINA RESULT:      -8.6      1.511      4.683
REMARK  Name = 
REMARK  5 active torsions:
REMARK  status: ('A' for Active; 'I' for Inactive)
REMARK    1  A    between atoms: C_1  and  C_2
REMARK    2  A    between atoms: C_5  and  C_6
REMARK    3  A    between atoms: N_7  and  N_8
REMARK    4  A    between atoms: C_9  and  C_11
REMARK    5  A    between atoms: C_13  and  C_14
REMARK                            x       y       z     vdW  Elec       q    Type
REMARK                         _______ _______ _______ _____ _____    ______ ____
ROOT
ATOM      1  C   UNL     1       6.399   5.741  17.462  0.00  0.00    +0.000 A 
ATOM      2  C   UNL     1       6.768   5.410  16.153  0.00  0.00    +0.000 A 
ATOM      3  C   UNL     1       5.902   4.660  15.375  0.00  0.00    +0.000 A 
ATOM      4  N   UNL     1       4.713   4.234  15.857  0.00  0.00    +0.000 NA
ATOM      5  C   UNL     1       4.364   4.515  17.125  0.00  0.00    +0.000 A 
ATOM      6  C   UNL     1       3.152   4.012  17.584  0.00  0.00    +0.000 A 
ATOM      7  C   UNL     1       2.693   4.248  18.879  0.00  0.00    +0.000 A 
ATOM      8  C   UNL     1       3.455   5.018  19.742  0.00  0.00    +0.000 A 
ATOM      9  C   UNL     1       4.676   5.534  19.303  0.00  0.00    +0.000 A 
ATOM     10  C   UNL     1       5.164   5.281  17.992  0.00  0.00    +0.000 A 
ENDROOT
BRANCH   3  11
ATOM     11  C   UNL     1       6.199   4.292  13.977  0.00  0.00    +0.000 A 
ATOM     12  C   UNL     1       7.345   4.749  13.310  0.00  0.00    +0.000 A 
ATOM     13  C   UNL     1       7.553   4.392  11.986  0.00  0.00    +0.000 A 
ATOM     14  N   UNL     1       6.711   3.612  11.281  0.00  0.00    +0.000 NA
ATOM     15  C   UNL     1       5.622   3.158  11.933  0.00  0.00    +0.000 A 
ATOM     16  C   UNL     1       5.330   3.464  13.253  0.00  0.00    +0.000 A 
ENDBRANCH   3  11
BRANCH   1  18
ATOM     17  N   UNL     1       7.647   7.815  17.837  0.00  0.00    +0.000 N 
ATOM     18  C   UNL     1       7.374   6.521  18.280  0.00  0.00    +0.000 C 
ATOM     19  O   UNL     1       7.896   6.005  19.264  0.00  0.00    +0.000 OA
ATOM     20  H   UNL     1       7.154   8.235  17.059  0.00  0.00    +0.000 HD
BRANCH  17  22
ATOM     21  C   UNL     1       8.616   9.831  18.270  0.00  0.00    +0.000 C 
ATOM     22  N   UNL     1       8.527   8.572  18.553  0.00  0.00    +0.000 NA
BRANCH  21  27
ATOM     23  C   UNL     1      12.333  12.846  18.884  0.00  0.00    +0.000 C 
ATOM     24  C   UNL     1      11.189  12.034  19.343  0.00  0.00    +0.000 A 
ATOM     25  C   UNL     1      10.620  11.836  20.581  0.00  0.00    +0.000 A 
ATOM     26  C   UNL     1       9.538  10.950  20.383  0.00  0.00    +0.000 A 
ATOM     27  C   UNL     1       9.506  10.658  19.033  0.00  0.00    +0.000 A 
ATOM     28  O   UNL     1      10.518  11.318  18.394  0.00  0.00    +0.000 OA
ENDBRANCH  21  27
ENDBRANCH  17  22
ENDBRANCH   1  18
TORSDOF 4
ENDMDL
MODEL 5
REMARK VINA RESULT:      -8.6      4.638      7.911
REMARK  Name = 
REMARK  5 active torsions:
REMARK  status: ('A' for Active; 'I' for Inactive)
REMARK    1  A    between atoms: C_1  and  C_2
REMARK    2  A    between atoms: C_5  and  C_6
REMARK    3  A    between atoms: N_7  and  N_8
REMARK    4  A    between atoms: C_9  and  C_11
REMARK    5  A    between atoms: C_13  and  C_14
REMARK                            x       y       z     vdW  Elec       q    Type
REMARK                         _______ _______ _______ _____ _____    ______ ____
ROOT
ATOM      1  C   UNL     1       2.737   6.161  18.822  0.00  0.00    +0.000 A 
ATOM      2  C   UNL     1       3.756   6.216  17.863  0.00  0.00    +0.000 A 
ATOM      3  C   UNL     1       4.359   5.041  17.449  0.00  0.00    +0.000 A 
ATOM      4  N   UNL     1       3.991   3.844  17.958  0.00  0.00    +0.000 NA
ATOM      5  C   UNL     1       3.040   3.782  18.906  0.00  0.00    +0.000 A 
ATOM      6  C   UNL     1       2.734   2.531  19.428  0.00  0.00    +0.000 A 
ATOM      7  C   UNL     1       1.759   2.354  20.410  0.00  0.00    +0.000 A 
ATOM      8  C   UNL     1       1.059   3.452  20.880  0.00  0.00    +0.000 A 
ATOM      9  C   UNL     1       1.349   4.719  20.371  0.00  0.00    +0.000 A 
ATOM     10  C   UNL     1       2.355   4.914  19.384  0.00  0.00    +0.000 A 
ENDROOT
BRANCH   3  11
ATOM     11  C   UNL     1       5.419   5.005  16.423  0.00  0.00    +0.000 A 
ATOM     12  C   UNL     1       6.668   5.614  16.616  0.00  0.00    +0.000 A 
ATOM     13  C   UNL     1       7.613   5.571  15.601  0.00  0.00    +0.000 A 
ATOM     14  N   UNL     1       7.409   4.964  14.416  0.00  0.00    +0.000 NA
ATOM     15  C   UNL     1       6.216   4.363  14.243  0.00  0.00    +0.000 A 
ATOM     16  C   UNL     1       5.211   4.355  15.198  0.00  0.00    +0.000 A 
ENDBRANCH   3  11
BRANCH   1  18
ATOM     17  N   UNL     1       1.922   7.586  20.640  0.00  0.00    +0.000 N 
ATOM     18  C   UNL     1       2.135   7.452  19.268  0.00  0.00    +0.000 C 
ATOM     19  O   UNL     1       1.839   8.306  18.439  0.00  0.00    +0.000 OA
ATOM     20  H   UNL     1       2.234   6.890  21.306  0.00  0.00    +0.000 HD
BRANCH  17  22
ATOM     21  C   UNL     1       0.113   8.763  21.367  0.00  0.00    +0.000 C 
ATOM     22  N   UNL     1       1.379   8.749  21.100  0.00  0.00    +0.000 NA
BRANCH  21  27
ATOM     23  C   UNL     1      -1.734  13.211  21.067  0.00  0.00    +0.000 C 
ATOM     24  C   UNL     1      -1.328  11.986  21.781  0.00  0.00    +0.000 A 
ATOM     25  C   UNL     1      -1.400  11.605  23.103  0.00  0.00    +0.000 A 
ATOM     26  C   UNL     1      -0.854  10.305  23.172  0.00  0.00    +0.000 A 
ATOM     27  C   UNL     1      -0.478   9.963  21.887  0.00  0.00    +0.000 A 
ATOM     28  O   UNL     1      -0.764  10.992  21.033  0.00  0.00    +0.000 OA
ENDBRANCH  21  27
ENDBRANCH  17  22
ENDBRANCH   1  18
TORSDOF 4
ENDMDL
MODEL 6
REMARK VINA RESULT:      -8.4      1.675      4.881
REMARK  Name = 
REMARK  5 active torsions:
REMARK  status: ('A' for Active; 'I' for Inactive)
REMARK    1  A    between atoms: C_1  and  C_2
REMARK    2  A    between atoms: C_5  and  C_6
REMARK    3  A    between atoms: N_7  and  N_8
REMARK    4  A    between atoms: C_9  and  C_11
REMARK    5  A    between atoms: C_13  and  C_14
REMARK                            x       y       z     vdW  Elec       q    Type
REMARK                         _______ _______ _______ _____ _____    ______ ____
ROOT
ATOM      1  C   UNL     1       6.482   5.804  17.482  0.00  0.00    +0.000 A 
ATOM      2  C   UNL     1       6.848   5.473  16.172  0.00  0.00    +0.000 A 
ATOM      3  C   UNL     1       5.989   4.705  15.404  0.00  0.00    +0.000 A 
ATOM      4  N   UNL     1       4.811   4.262  15.896  0.00  0.00    +0.000 NA
ATOM      5  C   UNL     1       4.465   4.542  17.164  0.00  0.00    +0.000 A 
ATOM      6  C   UNL     1       3.265   4.021  17.634  0.00  0.00    +0.000 A 
ATOM      7  C   UNL     1       2.810   4.257  18.930  0.00  0.00    +0.000 A 
ATOM      8  C   UNL     1       3.565   5.044  19.784  0.00  0.00    +0.000 A 
ATOM      9  C   UNL     1       4.774   5.577  19.335  0.00  0.00    +0.000 A 
ATOM     10  C   UNL     1       5.258   5.327  18.022  0.00  0.00    +0.000 A 
ENDROOT
BRANCH   3  11
ATOM     11  C   UNL     1       6.283   4.335  14.005  0.00  0.00    +0.000 A 
ATOM     12  C   UNL     1       5.509   3.401  13.301  0.00  0.00    +0.000 A 
ATOM     13  C   UNL     1       5.854   3.073  11.998  0.00  0.00    +0.000 A 
ATOM     14  N   UNL     1       6.903   3.608  11.345  0.00  0.00    +0.000 NA
ATOM     15  C   UNL     1       7.630   4.521  12.018  0.00  0.00    +0.000 A 
ATOM     16  C   UNL     1       7.364   4.909  13.322  0.00  0.00    +0.000 A 
ENDBRANCH   3  11
BRANCH   1  18
ATOM     17  N   UNL     1       7.736   7.883  17.809  0.00  0.00    +0.000 N 
ATOM     18  C   UNL     1       7.448   6.605  18.290  0.00  0.00    +0.000 C 
ATOM     19  O   UNL     1       7.952   6.118  19.297  0.00  0.00    +0.000 OA
ATOM     20  H   UNL     1       7.258   8.280  17.011  0.00  0.00    +0.000 HD
BRANCH  17  22
ATOM     21  C   UNL     1       8.576   9.936  18.326  0.00  0.00    +0.000 C 
ATOM     22  N   UNL     1       8.610   8.657  18.515  0.00  0.00    +0.000 NA
BRANCH  21  27
ATOM     23  C   UNL     1       9.746  12.912  21.939  0.00  0.00    +0.000 C 
ATOM     24  C   UNL     1      10.022  12.130  20.718  0.00  0.00    +0.000 A 
ATOM     25  C   UNL     1      11.157  11.945  19.962  0.00  0.00    +0.000 A 
ATOM     26  C   UNL     1      10.796  11.076  18.910  0.00  0.00    +0.000 A 
ATOM     27  C   UNL     1       9.458  10.778  19.082  0.00  0.00    +0.000 A 
ATOM     28  O   UNL     1       8.980  11.424  20.188  0.00  0.00    +0.000 OA
ENDBRANCH  21  27
ENDBRANCH  17  22
ENDBRANCH   1  18
TORSDOF 4
ENDMDL
MODEL 7
REMARK VINA RESULT:      -8.2      4.979      7.560
REMARK  Name = 
REMARK  5 active torsions:
REMARK  status: ('A' for Active; 'I' for Inactive)
REMARK    1  A    between atoms: C_1  and  C_2
REMARK    2  A    between atoms: C_5  and  C_6
REMARK    3  A    between atoms: N_7  and  N_8
REMARK    4  A    between atoms: C_9  and  C_11
REMARK    5  A    between atoms: C_13  and  C_14
REMARK                            x       y       z     vdW  Elec       q    Type
REMARK                         _______ _______ _______ _____ _____    ______ ____
ROOT
ATOM      1  C   UNL     1       2.762   6.242  18.776  0.00  0.00    +0.000 A 
ATOM      2  C   UNL     1       3.787   6.292  17.825  0.00  0.00    +0.000 A 
ATOM      3  C   UNL     1       4.362   5.112  17.387  0.00  0.00    +0.000 A 
ATOM      4  N   UNL     1       3.959   3.913  17.865  0.00  0.00    +0.000 NA
ATOM      5  C   UNL     1       3.001   3.854  18.806  0.00  0.00    +0.000 A 
ATOM      6  C   UNL     1       2.659   2.599  19.297  0.00  0.00    +0.000 A 
ATOM      7  C   UNL     1       1.674   2.425  20.269  0.00  0.00    +0.000 A 
ATOM      8  C   UNL     1       1.000   3.531  20.761  0.00  0.00    +0.000 A 
ATOM      9  C   UNL     1       1.326   4.801  20.283  0.00  0.00    +0.000 A 
ATOM     10  C   UNL     1       2.343   4.992  19.307  0.00  0.00    +0.000 A 
ENDROOT
BRANCH   3  11
ATOM     11  C   UNL     1       5.427   5.072  16.365  0.00  0.00    +0.000 A 
ATOM     12  C   UNL     1       6.649   5.739  16.533  0.00  0.00    +0.000 A 
ATOM     13  C   UNL     1       7.599   5.688  15.524  0.00  0.00    +0.000 A 
ATOM     14  N   UNL     1       7.426   5.020  14.367  0.00  0.00    +0.000 NA
ATOM     15  C   UNL     1       6.259   4.363  14.220  0.00  0.00    +0.000 A 
ATOM     16  C   UNL     1       5.251   4.359  15.171  0.00  0.00    +0.000 A 
ENDBRANCH   3  11
BRANCH   1  18
ATOM     17  N   UNL     1       1.973   8.504  18.268  0.00  0.00    +0.000 N 
ATOM     18  C   UNL     1       2.190   7.537  19.249  0.00  0.00    +0.000 C 
ATOM     19  O   UNL     1       1.963   7.704  20.444  0.00  0.00    +0.000 OA
ATOM     20  H   UNL     1       2.111   8.315  17.283  0.00  0.00    +0.000 HD
BRANCH  17  22
ATOM     21  C   UNL     1       0.201   9.931  18.384  0.00  0.00    +0.000 C 
ATOM     22  N   UNL     1       1.447   9.704  18.648  0.00  0.00    +0.000 NA
BRANCH  21  27
ATOM     23  C   UNL     1      -0.034  14.730  18.832  0.00  0.00    +0.000 C 
ATOM     24  C   UNL     1      -0.525  13.351  19.022  0.00  0.00    +0.000 A 
ATOM     25  C   UNL     1      -1.656  12.833  19.612  0.00  0.00    +0.000 A 
ATOM     26  C   UNL     1      -1.569  11.431  19.474  0.00  0.00    +0.000 A 
ATOM     27  C   UNL     1      -0.388  11.170  18.806  0.00  0.00    +0.000 A 
ATOM     28  O   UNL     1       0.256  12.344  18.531  0.00  0.00    +0.000 OA
ENDBRANCH  21  27
ENDBRANCH  17  22
ENDBRANCH   1  18
TORSDOF 4
ENDMDL
MODEL 8
REMARK VINA RESULT:      -8.2      5.073      7.888
REMARK  Name = 
REMARK  5 active torsions:
REMARK  status: ('A' for Active; 'I' for Inactive)
REMARK    1  A    between atoms: C_1  and  C_2
REMARK    2  A    between atoms: C_5  and  C_6
REMARK    3  A    between atoms: N_7  and  N_8
REMARK    4  A    between atoms: C_9  and  C_11
REMARK    5  A    between atoms: C_13  and  C_14
REMARK                            x       y       z     vdW  Elec       q    Type
REMARK                         _______ _______ _______ _____ _____    ______ ____
ROOT
ATOM      1  C   UNL     1       2.748   6.258  18.753  0.00  0.00    +0.000 A 
ATOM      2  C   UNL     1       3.759   6.299  17.786  0.00  0.00    +0.000 A 
ATOM      3  C   UNL     1       4.321   5.113  17.344  0.00  0.00    +0.000 A 
ATOM      4  N   UNL     1       3.919   3.919  17.834  0.00  0.00    +0.000 NA
ATOM      5  C   UNL     1       2.975   3.869  18.790  0.00  0.00    +0.000 A 
ATOM      6  C   UNL     1       2.634   2.618  19.291  0.00  0.00    +0.000 A 
ATOM      7  C   UNL     1       1.664   2.453  20.279  0.00  0.00    +0.000 A 
ATOM      8  C   UNL     1       1.003   3.565  20.776  0.00  0.00    +0.000 A 
ATOM      9  C   UNL     1       1.328   4.831  20.287  0.00  0.00    +0.000 A 
ATOM     10  C   UNL     1       2.331   5.013  19.295  0.00  0.00    +0.000 A 
ENDROOT
BRANCH   3  11
ATOM     11  C   UNL     1       5.370   5.064  16.307  0.00  0.00    +0.000 A 
ATOM     12  C   UNL     1       5.217   4.328  15.123  0.00  0.00    +0.000 A 
ATOM     13  C   UNL     1       6.251   4.297  14.199  0.00  0.00    +0.000 A 
ATOM     14  N   UNL     1       7.420   4.946  14.364  0.00  0.00    +0.000 NA
ATOM     15  C   UNL     1       7.554   5.670  15.493  0.00  0.00    +0.000 A 
ATOM     16  C   UNL     1       6.577   5.758  16.472  0.00  0.00    +0.000 A 
ENDBRANCH   3  11
BRANCH   1  18
ATOM     17  N   UNL     1       1.950   8.518  18.245  0.00  0.00    +0.000 N 
ATOM     18  C   UNL     1       2.191   7.558  19.229  0.00  0.00    +0.000 C 
ATOM     19  O   UNL     1       1.994   7.736  20.427  0.00  0.00    +0.000 OA
ATOM     20  H   UNL     1       2.064   8.320  17.259  0.00  0.00    +0.000 HD
BRANCH  17  22
ATOM     21  C   UNL     1       0.185   9.949  18.392  0.00  0.00    +0.000 C 
ATOM     22  N   UNL     1       1.436   9.721  18.628  0.00  0.00    +0.000 NA
BRANCH  21  27
ATOM     23  C   UNL     1      -3.269  12.751  20.263  0.00  0.00    +0.000 C 
ATOM     24  C   UNL     1      -1.943  12.492  19.670  0.00  0.00    +0.000 A 
ATOM     25  C   UNL     1      -0.877  13.310  19.370  0.00  0.00    +0.000 A 
ATOM     26  C   UNL     1       0.121  12.475  18.822  0.00  0.00    +0.000 A 
ATOM     27  C   UNL     1      -0.392  11.192  18.818  0.00  0.00    +0.000 A 
ATOM     28  O   UNL     1      -1.658  11.200  19.334  0.00  0.00    +0.000 OA
ENDBRANCH  21  27
ENDBRANCH  17  22
ENDBRANCH   1  18
TORSDOF 4
ENDMDL
MODEL 9
REMARK VINA RESULT:      -8.0      4.598      6.833
REMARK  Name = 
REMARK  5 active torsions:
REMARK  status: ('A' for Active; 'I' for Inactive)
REMARK    1  A    between atoms: C_1  and  C_2
REMARK    2  A    between atoms: C_5  and  C_6
REMARK    3  A    between atoms: N_7  and  N_8
REMARK    4  A    between atoms: C_9  and  C_11
REMARK    5  A    between atoms: C_13  and  C_14
REMARK                            x       y       z     vdW  Elec       q    Type
REMARK                         _______ _______ _______ _____ _____    ______ ____
ROOT
ATOM      1  C   UNL     1       2.792   6.129  18.525  0.00  0.00    +0.000 A 
ATOM      2  C   UNL     1       3.776   6.108  17.529  0.00  0.00    +0.000 A 
ATOM      3  C   UNL     1       4.326   4.896  17.148  0.00  0.00    +0.000 A 
ATOM      4  N   UNL     1       3.941   3.735  17.725  0.00  0.00    +0.000 NA
ATOM      5  C   UNL     1       3.024   3.748  18.709  0.00  0.00    +0.000 A 
ATOM      6  C   UNL     1       2.700   2.532  19.299  0.00  0.00    +0.000 A 
ATOM      7  C   UNL     1       1.758   2.431  20.322  0.00  0.00    +0.000 A 
ATOM      8  C   UNL     1       1.110   3.572  20.765  0.00  0.00    +0.000 A 
ATOM      9  C   UNL     1       1.419   4.804  20.188  0.00  0.00    +0.000 A 
ATOM     10  C   UNL     1       2.393   4.922  19.158  0.00  0.00    +0.000 A 
ENDROOT
BRANCH   3  11
ATOM     11  C   UNL     1       5.346   4.779  16.087  0.00  0.00    +0.000 A 
ATOM     12  C   UNL     1       6.632   5.321  16.224  0.00  0.00    +0.000 A 
ATOM     13  C   UNL     1       7.537   5.204  15.178  0.00  0.00    +0.000 A 
ATOM     14  N   UNL     1       7.258   4.585  14.014  0.00  0.00    +0.000 NA
ATOM     15  C   UNL     1       6.028   4.048  13.897  0.00  0.00    +0.000 A 
ATOM     16  C   UNL     1       5.059   4.117  14.885  0.00  0.00    +0.000 A 
ENDBRANCH   3  11
BRANCH   1  18
ATOM     17  N   UNL     1       1.900   8.321  17.893  0.00  0.00    +0.000 N 
ATOM     18  C   UNL     1       2.247   7.458  18.932  0.00  0.00    +0.000 C 
ATOM     19  O   UNL     1       2.149   7.739  20.122  0.00  0.00    +0.000 OA
ATOM     20  H   UNL     1       1.933   8.038  16.921  0.00  0.00    +0.000 HD
BRANCH  17  22
ATOM     21  C   UNL     1       2.193  10.561  18.184  0.00  0.00    +0.000 C 
ATOM     22  N   UNL     1       1.392   9.546  18.212  0.00  0.00    +0.000 NA
BRANCH  21  27
ATOM     23  C   UNL     1       2.379  15.375  18.458  0.00  0.00    +0.000 C 
ATOM     24  C   UNL     1       1.729  14.058  18.611  0.00  0.00    +0.000 A 
ATOM     25  C   UNL     1       0.478  13.676  19.040  0.00  0.00    +0.000 A 
ATOM     26  C   UNL     1       0.443  12.267  18.956  0.00  0.00    +0.000 A 
ATOM     27  C   UNL     1       1.677  11.867  18.479  0.00  0.00    +0.000 A 
ATOM     28  O   UNL     1       2.468  12.961  18.270  0.00  0.00    +0.000 OA
ENDBRANCH  21  27
ENDBRANCH  17  22
ENDBRANCH   1  18
TORSDOF 4
ENDMDL
