MODEL 1
REMARK VINA RESULT:     -10.2      0.000      0.000
REMARK  Name = 
REMARK  7 active torsions:
REMARK  status: ('A' for Active; 'I' for Inactive)
REMARK    1  A    between atoms: C_4  and  C_5
REMARK    2  A    between atoms: C_5  and  C_6
REMARK    3  A    between atoms: C_5  and  C_21
REMARK    4  A    between atoms: C_6  and  C_7
REMARK    5  A    between atoms: C_7  and  N_8
REMARK    6  A    between atoms: N_8  and  C_9
REMARK    7  A    between atoms: C_12  and  C_13
REMARK                            x       y       z     vdW  Elec       q    Type
REMARK                         _______ _______ _______ _____ _____    ______ ____
ROOT
ATOM      1  C   UNL     1       3.566   6.268  17.612  0.00  0.00    +0.000 C 
ENDROOT
BRANCH   1   5
ATOM      2  N   UNL     1       7.862   5.419  19.951  0.00  0.00    +0.000 N 
ATOM      3  C   UNL     1       7.146   5.380  18.754  0.00  0.00    +0.000 A 
ATOM      4  C   UNL     1       5.782   5.685  18.765  0.00  0.00    +0.000 A 
ATOM      5  C   UNL     1       5.022   5.783  17.571  0.00  0.00    +0.000 A 
ATOM      6  C   UNL     1       5.723   5.365  16.424  0.00  0.00    +0.000 A 
ATOM      7  N   UNL     1       5.362   5.223  15.108  0.00  0.00    +0.000 NA
ATOM      8  N   UNL     1       6.422   4.807  14.421  0.00  0.00    +0.000 NA
ATOM      9  N   UNL     1       7.442   4.693  15.288  0.00  0.00    +0.000 N 
ATOM     10  C   UNL     1       7.062   5.027  16.552  0.00  0.00    +0.000 A 
ATOM     11  N   UNL     1       7.831   5.034  17.655  0.00  0.00    +0.000 NA
ATOM     12  H   UNL     1       7.734   6.302  20.432  0.00  0.00    +0.000 HD
ATOM     13  H   UNL     1       8.839   5.249  19.727  0.00  0.00    +0.000 HD
ATOM     14  H   UNL     1       8.349   4.391  14.961  0.00  0.00    +0.000 HD
ENDBRANCH   1   5
BRANCH   1  15
ATOM     15  C   UNL     1       2.636   5.369  18.450  0.00  0.00    +0.000 A 
ATOM     16  C   UNL     1       1.994   4.273  17.854  0.00  0.00    +0.000 A 
ATOM     17  C   UNL     1       1.159   3.445  18.610  0.00  0.00    +0.000 A 
ATOM     18  C   UNL     1       0.951   3.701  19.965  0.00  0.00    +0.000 A 
ATOM     19  C   UNL     1       1.562   4.796  20.567  0.00  0.00    +0.000 A 
ATOM     20  C   UNL     1       2.387   5.627  19.812  0.00  0.00    +0.000 A 
ENDBRANCH   1  15
BRANCH   1  21
ATOM     21  C   UNL     1       3.352   7.752  18.034  0.00  0.00    +0.000 C 
BRANCH  21  22
ATOM     22  C   UNL     1       2.008   8.318  17.559  0.00  0.00    +0.000 C 
BRANCH  22  23
ATOM     23  N   UNL     1       1.943   9.780  17.610  0.00  0.00    +0.000 NA
ATOM     24  H   UNL     1       1.787  10.134  16.662  0.00  0.00    +0.000 HD
BRANCH  23  25
ATOM     25  C   UNL     1       0.839  10.227  18.475  0.00  0.00    +0.000 C 
ATOM     26  C   UNL     1       0.809   9.513  19.840  0.00  0.00    +0.000 C 
ATOM     27  C   UNL     1      -0.363   9.998  20.697  0.00  0.00    +0.000 C 
ATOM     28  C   UNL     1      -0.357  11.524  20.868  0.00  0.00    +0.000 C 
ATOM     29  C   UNL     1      -0.222  12.252  19.520  0.00  0.00    +0.000 C 
ATOM     30  C   UNL     1       0.957  11.741  18.698  0.00  0.00    +0.000 C 
BRANCH  28  31
ATOM     31  C   UNL     1      -1.581  12.029  21.614  0.00  0.00    +0.000 A 
ATOM     32  C   UNL     1      -2.556  12.770  20.932  0.00  0.00    +0.000 A 
ATOM     33  C   UNL     1      -3.735  13.157  21.574  0.00  0.00    +0.000 A 
ATOM     34  C   UNL     1      -3.951  12.813  22.907  0.00  0.00    +0.000 A 
ATOM     35  C   UNL     1      -2.981  12.099  23.605  0.00  0.00    +0.000 A 
ATOM     36  C   UNL     1      -1.801  11.716  22.965  0.00  0.00    +0.000 A 
ENDBRANCH  28  31
ENDBRANCH  23  25
ENDBRANCH  22  23
ENDBRANCH  21  22
ENDBRANCH   1  21
TORSDOF 7
ENDMDL
MODEL 2
REMARK VINA RESULT:     -10.1      0.999      2.324
REMARK  Name = 
REMARK  7 active torsions:
REMARK  status: ('A' for Active; 'I' for Inactive)
REMARK    1  A    between atoms: C_4  and  C_5
REMARK    2  A    between atoms: C_5  and  C_6
REMARK    3  A    between atoms: C_5  and  C_21
REMARK    4  A    between atoms: C_6  and  C_7
REMARK    5  A    between atoms: C_7  and  N_8
REMARK    6  A    between atoms: N_8  and  C_9
REMARK    7  A    between atoms: C_12  and  C_13
REMARK                            x       y       z     vdW  Elec       q    Type
REMARK                         _______ _______ _______ _____ _____    ______ ____
ROOT
ATOM      1  C   UNL     1       3.253   5.923  17.496  0.00  0.00    +0.000 C 
ENDROOT
BRANCH   1   5
ATOM      2  N   UNL     1       6.631   4.402  14.192  0.00  0.00    +0.000 N 
ATOM      3  C   UNL     1       6.349   4.739  15.516  0.00  0.00    +0.000 A 
ATOM      4  C   UNL     1       5.089   5.253  15.835  0.00  0.00    +0.000 A 
ATOM      5  C   UNL     1       4.694   5.503  17.175  0.00  0.00    +0.000 A 
ATOM      6  C   UNL     1       5.742   5.362  18.104  0.00  0.00    +0.000 A 
ATOM      7  N   UNL     1       5.827   5.575  19.457  0.00  0.00    +0.000 NA
ATOM      8  N   UNL     1       7.057   5.268  19.858  0.00  0.00    +0.000 NA
ATOM      9  N   UNL     1       7.740   4.860  18.775  0.00  0.00    +0.000 N 
ATOM     10  C   UNL     1       6.970   4.900  17.653  0.00  0.00    +0.000 A 
ATOM     11  N   UNL     1       7.333   4.551  16.407  0.00  0.00    +0.000 NA
ATOM     12  H   UNL     1       5.926   3.785  13.807  0.00  0.00    +0.000 HD
ATOM     13  H   UNL     1       7.554   3.975  14.177  0.00  0.00    +0.000 HD
ATOM     14  H   UNL     1       8.705   4.575  18.868  0.00  0.00    +0.000 HD
ENDBRANCH   1   5
BRANCH   1  15
ATOM     15  C   UNL     1       2.492   4.909  18.373  0.00  0.00    +0.000 A 
ATOM     16  C   UNL     1       2.136   5.245  19.687  0.00  0.00    +0.000 A 
ATOM     17  C   UNL     1       1.433   4.336  20.484  0.00  0.00    +0.000 A 
ATOM     18  C   UNL     1       1.083   3.083  19.983  0.00  0.00    +0.000 A 
ATOM     19  C   UNL     1       1.447   2.725  18.689  0.00  0.00    +0.000 A 
ATOM     20  C   UNL     1       2.154   3.627  17.897  0.00  0.00    +0.000 A 
ENDBRANCH   1  15
BRANCH   1  21
ATOM     21  C   UNL     1       3.075   7.349  18.099  0.00  0.00    +0.000 C 
BRANCH  21  22
ATOM     22  C   UNL     1       1.849   8.083  17.541  0.00  0.00    +0.000 C 
BRANCH  22  23
ATOM     23  N   UNL     1       1.989   9.540  17.553  0.00  0.00    +0.000 NA
ATOM     24  H   UNL     1       1.738   9.901  16.629  0.00  0.00    +0.000 HD
BRANCH  23  25
ATOM     25  C   UNL     1       1.103  10.145  18.560  0.00  0.00    +0.000 C 
ATOM     26  C   UNL     1       1.016   9.327  19.863  0.00  0.00    +0.000 C 
ATOM     27  C   UNL     1       0.072   9.985  20.872  0.00  0.00    +0.000 C 
ATOM     28  C   UNL     1       0.461  11.442  21.157  0.00  0.00    +0.000 C 
ATOM     29  C   UNL     1       0.654  12.249  19.861  0.00  0.00    +0.000 C 
ATOM     30  C   UNL     1       1.601  11.560  18.883  0.00  0.00    +0.000 C 
BRANCH  28  31
ATOM     31  C   UNL     1      -0.539  12.144  22.063  0.00  0.00    +0.000 A 
ATOM     32  C   UNL     1      -0.446  13.528  22.264  0.00  0.00    +0.000 A 
ATOM     33  C   UNL     1      -1.412  14.206  23.011  0.00  0.00    +0.000 A 
ATOM     34  C   UNL     1      -2.480  13.507  23.570  0.00  0.00    +0.000 A 
ATOM     35  C   UNL     1      -2.573  12.129  23.401  0.00  0.00    +0.000 A 
ATOM     36  C   UNL     1      -1.605  11.450  22.658  0.00  0.00    +0.000 A 
ENDBRANCH  28  31
ENDBRANCH  23  25
ENDBRANCH  22  23
ENDBRANCH  21  22
ENDBRANCH   1  21
TORSDOF 7
ENDMDL
MODEL 3
REMARK VINA RESULT:     -10.1      0.702      2.341
REMARK  Name = 
REMARK  7 active torsions:
REMARK  status: ('A' for Active; 'I' for Inactive)
REMARK    1  A    between atoms: C_4  and  C_5
REMARK    2  A    between atoms: C_5  and  C_6
REMARK    3  A    between atoms: C_5  and  C_21
REMARK    4  A    between atoms: C_6  and  C_7
REMARK    5  A    between atoms: C_7  and  N_8
REMARK    6  A    between atoms: N_8  and  C_9
REMARK    7  A    between atoms: C_12  and  C_13
REMARK                            x       y       z     vdW  Elec       q    Type
REMARK                         _______ _______ _______ _____ _____    ______ ____
ROOT
ATOM      1  C   UNL     1       3.390   6.019  17.566  0.00  0.00    +0.000 C 
ENDROOT
BRANCH   1   5
ATOM      2  N   UNL     1       6.663   4.290  14.259  0.00  0.00    +0.000 N 
ATOM      3  C   UNL     1       6.412   4.673  15.576  0.00  0.00    +0.000 A 
ATOM      4  C   UNL     1       5.176   5.240  15.898  0.00  0.00    +0.000 A 
ATOM      5  C   UNL     1       4.810   5.540  17.236  0.00  0.00    +0.000 A 
ATOM      6  C   UNL     1       5.866   5.387  18.155  0.00  0.00    +0.000 A 
ATOM      7  N   UNL     1       5.979   5.635  19.499  0.00  0.00    +0.000 NA
ATOM      8  N   UNL     1       7.204   5.295  19.891  0.00  0.00    +0.000 NA
ATOM      9  N   UNL     1       7.856   4.834  18.811  0.00  0.00    +0.000 N 
ATOM     10  C   UNL     1       7.071   4.870  17.700  0.00  0.00    +0.000 A 
ATOM     11  N   UNL     1       7.402   4.475  16.459  0.00  0.00    +0.000 NA
ATOM     12  H   UNL     1       5.930   3.688  13.901  0.00  0.00    +0.000 HD
ATOM     13  H   UNL     1       7.570   3.832  14.242  0.00  0.00    +0.000 HD
ATOM     14  H   UNL     1       8.811   4.517  18.898  0.00  0.00    +0.000 HD
ENDBRANCH   1   5
BRANCH   1  15
ATOM     15  C   UNL     1       2.571   5.010  18.395  0.00  0.00    +0.000 A 
ATOM     16  C   UNL     1       2.471   5.160  19.785  0.00  0.00    +0.000 A 
ATOM     17  C   UNL     1       1.719   4.257  20.543  0.00  0.00    +0.000 A 
ATOM     18  C   UNL     1       1.063   3.193  19.925  0.00  0.00    +0.000 A 
ATOM     19  C   UNL     1       1.170   3.017  18.549  0.00  0.00    +0.000 A 
ATOM     20  C   UNL     1       1.926   3.911  17.795  0.00  0.00    +0.000 A 
ENDBRANCH   1  15
BRANCH   1  21
ATOM     21  C   UNL     1       3.280   7.426  18.227  0.00  0.00    +0.000 C 
BRANCH  21  22
ATOM     22  C   UNL     1       1.932   8.107  17.956  0.00  0.00    +0.000 C 
BRANCH  22  23
ATOM     23  N   UNL     1       1.962   9.556  18.164  0.00  0.00    +0.000 NA
ATOM     24  H   UNL     1       1.931  10.019  17.251  0.00  0.00    +0.000 HD
BRANCH  23  25
ATOM     25  C   UNL     1       0.806   9.997  18.962  0.00  0.00    +0.000 C 
ATOM     26  C   UNL     1       0.955   9.696  20.465  0.00  0.00    +0.000 C 
ATOM     27  C   UNL     1      -0.274  10.156  21.251  0.00  0.00    +0.000 C 
ATOM     28  C   UNL     1      -0.588  11.640  21.010  0.00  0.00    +0.000 C 
ATOM     29  C   UNL     1      -0.638  11.980  19.511  0.00  0.00    +0.000 C 
ATOM     30  C   UNL     1       0.606  11.505  18.765  0.00  0.00    +0.000 C 
BRANCH  28  31
ATOM     31  C   UNL     1      -1.876  12.079  21.687  0.00  0.00    +0.000 A 
ATOM     32  C   UNL     1      -2.103  11.755  23.032  0.00  0.00    +0.000 A 
ATOM     33  C   UNL     1      -3.232  12.233  23.700  0.00  0.00    +0.000 A 
ATOM     34  C   UNL     1      -4.152  13.038  23.031  0.00  0.00    +0.000 A 
ATOM     35  C   UNL     1      -3.954  13.348  21.688  0.00  0.00    +0.000 A 
ATOM     36  C   UNL     1      -2.828  12.866  21.019  0.00  0.00    +0.000 A 
ENDBRANCH  28  31
ENDBRANCH  23  25
ENDBRANCH  22  23
ENDBRANCH  21  22
ENDBRANCH   1  21
TORSDOF 7
ENDMDL
MODEL 4
REMARK VINA RESULT:     -10.1      1.305      2.423
REMARK  Name = 
REMARK  7 active torsions:
REMARK  status: ('A' for Active; 'I' for Inactive)
REMARK    1  A    between atoms: C_4  and  C_5
REMARK    2  A    between atoms: C_5  and  C_6
REMARK    3  A    between atoms: C_5  and  C_21
REMARK    4  A    between atoms: C_6  and  C_7
REMARK    5  A    between atoms: C_7  and  N_8
REMARK    6  A    between atoms: N_8  and  C_9
REMARK    7  A    between atoms: C_12  and  C_13
REMARK                            x       y       z     vdW  Elec       q    Type
REMARK                         _______ _______ _______ _____ _____    ______ ____
ROOT
ATOM      1  C   UNL     1       3.425   5.718  17.894  0.00  0.00    +0.000 C 
ENDROOT
BRANCH   1   5
ATOM      2  N   UNL     1       6.435   4.021  14.330  0.00  0.00    +0.000 N 
ATOM      3  C   UNL     1       6.299   4.441  15.653  0.00  0.00    +0.000 A 
ATOM      4  C   UNL     1       5.074   4.961  16.080  0.00  0.00    +0.000 A 
ATOM      5  C   UNL     1       4.828   5.294  17.438  0.00  0.00    +0.000 A 
ATOM      6  C   UNL     1       5.977   5.225  18.249  0.00  0.00    +0.000 A 
ATOM      7  N   UNL     1       6.210   5.528  19.567  0.00  0.00    +0.000 NA
ATOM      8  N   UNL     1       7.483   5.261  19.843  0.00  0.00    +0.000 NA
ATOM      9  N   UNL     1       8.047   4.791  18.718  0.00  0.00    +0.000 N 
ATOM     10  C   UNL     1       7.155   4.748  17.691  0.00  0.00    +0.000 A 
ATOM     11  N   UNL     1       7.380   4.323  16.437  0.00  0.00    +0.000 NA
ATOM     12  H   UNL     1       5.703   3.372  14.068  0.00  0.00    +0.000 HD
ATOM     13  H   UNL     1       7.359   3.605  14.237  0.00  0.00    +0.000 HD
ATOM     14  H   UNL     1       9.021   4.523  18.718  0.00  0.00    +0.000 HD
ENDBRANCH   1   5
BRANCH   1  15
ATOM     15  C   UNL     1       2.656   4.613  18.644  0.00  0.00    +0.000 A 
ATOM     16  C   UNL     1       1.616   3.923  18.005  0.00  0.00    +0.000 A 
ATOM     17  C   UNL     1       0.922   2.910  18.673  0.00  0.00    +0.000 A 
ATOM     18  C   UNL     1       1.253   2.576  19.986  0.00  0.00    +0.000 A 
ATOM     19  C   UNL     1       2.267   3.265  20.643  0.00  0.00    +0.000 A 
ATOM     20  C   UNL     1       2.953   4.280  19.981  0.00  0.00    +0.000 A 
ENDBRANCH   1  15
BRANCH   1  21
ATOM     21  C   UNL     1       3.345   7.039  18.716  0.00  0.00    +0.000 C 
BRANCH  21  22
ATOM     22  C   UNL     1       1.953   7.285  19.312  0.00  0.00    +0.000 C 
BRANCH  22  23
ATOM     23  N   UNL     1       1.985   7.640  20.733  0.00  0.00    +0.000 NA
ATOM     24  H   UNL     1       2.859   8.138  20.926  0.00  0.00    +0.000 HD
BRANCH  23  25
ATOM     25  C   UNL     1       0.851   8.511  21.082  0.00  0.00    +0.000 C 
ATOM     26  C   UNL     1       0.975   9.137  22.485  0.00  0.00    +0.000 C 
ATOM     27  C   UNL     1      -0.232  10.019  22.810  0.00  0.00    +0.000 C 
ATOM     28  C   UNL     1      -0.461  11.096  21.740  0.00  0.00    +0.000 C 
ATOM     29  C   UNL     1      -0.484  10.501  20.322  0.00  0.00    +0.000 C 
ATOM     30  C   UNL     1       0.736   9.629  20.038  0.00  0.00    +0.000 C 
BRANCH  28  31
ATOM     31  C   UNL     1      -1.727  11.900  21.988  0.00  0.00    +0.000 A 
ATOM     32  C   UNL     1      -2.313  12.620  20.938  0.00  0.00    +0.000 A 
ATOM     33  C   UNL     1      -3.529  13.283  21.119  0.00  0.00    +0.000 A 
ATOM     34  C   UNL     1      -4.172  13.239  22.354  0.00  0.00    +0.000 A 
ATOM     35  C   UNL     1      -3.590  12.550  23.415  0.00  0.00    +0.000 A 
ATOM     36  C   UNL     1      -2.373  11.891  23.235  0.00  0.00    +0.000 A 
ENDBRANCH  28  31
ENDBRANCH  23  25
ENDBRANCH  22  23
ENDBRANCH  21  22
ENDBRANCH   1  21
TORSDOF 7
ENDMDL
MODEL 5
REMARK VINA RESULT:     -10.1      1.177      2.578
REMARK  Name = 
REMARK  7 active torsions:
REMARK  status: ('A' for Active; 'I' for Inactive)
REMARK    1  A    between atoms: C_4  and  C_5
REMARK    2  A    between atoms: C_5  and  C_6
REMARK    3  A    between atoms: C_5  and  C_21
REMARK    4  A    between atoms: C_6  and  C_7
REMARK    5  A    between atoms: C_7  and  N_8
REMARK    6  A    between atoms: N_8  and  C_9
REMARK    7  A    between atoms: C_12  and  C_13
REMARK                            x       y       z     vdW  Elec       q    Type
REMARK                         _______ _______ _______ _____ _____    ______ ____
ROOT
ATOM      1  C   UNL     1       3.313   5.958  17.588  0.00  0.00    +0.000 C 
ENDROOT
BRANCH   1   5
ATOM      2  N   UNL     1       6.843   5.095  14.206  0.00  0.00    +0.000 N 
ATOM      3  C   UNL     1       6.512   5.224  15.555  0.00  0.00    +0.000 A 
ATOM      4  C   UNL     1       5.220   5.625  15.905  0.00  0.00    +0.000 A 
ATOM      5  C   UNL     1       4.781   5.660  17.254  0.00  0.00    +0.000 A 
ATOM      6  C   UNL     1       5.813   5.437  18.186  0.00  0.00    +0.000 A 
ATOM      7  N   UNL     1       5.855   5.458  19.557  0.00  0.00    +0.000 NA
ATOM      8  N   UNL     1       7.089   5.156  19.947  0.00  0.00    +0.000 NA
ATOM      9  N   UNL     1       7.818   4.942  18.839  0.00  0.00    +0.000 N 
ATOM     10  C   UNL     1       7.074   5.105  17.712  0.00  0.00    +0.000 A 
ATOM     11  N   UNL     1       7.483   4.958  16.440  0.00  0.00    +0.000 NA
ATOM     12  H   UNL     1       6.180   4.506  13.715  0.00  0.00    +0.000 HD
ATOM     13  H   UNL     1       7.787   4.721  14.158  0.00  0.00    +0.000 HD
ATOM     14  H   UNL     1       8.794   4.694  18.920  0.00  0.00    +0.000 HD
ENDBRANCH   1   5
BRANCH   1  15
ATOM     15  C   UNL     1       2.583   4.789  18.278  0.00  0.00    +0.000 A 
ATOM     16  C   UNL     1       2.019   4.966  19.549  0.00  0.00    +0.000 A 
ATOM     17  C   UNL     1       1.344   3.914  20.176  0.00  0.00    +0.000 A 
ATOM     18  C   UNL     1       1.227   2.676  19.546  0.00  0.00    +0.000 A 
ATOM     19  C   UNL     1       1.798   2.477  18.293  0.00  0.00    +0.000 A 
ATOM     20  C   UNL     1       2.479   3.521  17.672  0.00  0.00    +0.000 A 
ENDBRANCH   1  15
BRANCH   1  21
ATOM     21  C   UNL     1       3.047   7.267  18.390  0.00  0.00    +0.000 C 
BRANCH  21  22
ATOM     22  C   UNL     1       1.975   8.154  17.745  0.00  0.00    +0.000 C 
BRANCH  22  23
ATOM     23  N   UNL     1       2.133   9.576  18.057  0.00  0.00    +0.000 NA
ATOM     24  H   UNL     1       2.287  10.088  17.184  0.00  0.00    +0.000 HD
BRANCH  23  25
ATOM     25  C   UNL     1       0.928  10.107  18.715  0.00  0.00    +0.000 C 
ATOM     26  C   UNL     1       1.046  11.597  19.089  0.00  0.00    +0.000 C 
ATOM     27  C   UNL     1      -0.221  12.099  19.784  0.00  0.00    +0.000 C 
ATOM     28  C   UNL     1      -1.479  11.835  18.944  0.00  0.00    +0.000 C 
ATOM     29  C   UNL     1      -1.560  10.373  18.474  0.00  0.00    +0.000 C 
ATOM     30  C   UNL     1      -0.278   9.912  17.787  0.00  0.00    +0.000 C 
BRANCH  28  31
ATOM     31  C   UNL     1      -2.756  12.219  19.675  0.00  0.00    +0.000 A 
ATOM     32  C   UNL     1      -3.998  12.032  19.053  0.00  0.00    +0.000 A 
ATOM     33  C   UNL     1      -5.186  12.283  19.744  0.00  0.00    +0.000 A 
ATOM     34  C   UNL     1      -5.146  12.730  21.063  0.00  0.00    +0.000 A 
ATOM     35  C   UNL     1      -3.920  12.945  21.686  0.00  0.00    +0.000 A 
ATOM     36  C   UNL     1      -2.733  12.698  20.995  0.00  0.00    +0.000 A 
ENDBRANCH  28  31
ENDBRANCH  23  25
ENDBRANCH  22  23
ENDBRANCH  21  22
ENDBRANCH   1  21
TORSDOF 7
ENDMDL
MODEL 6
REMARK VINA RESULT:     -10.0      1.294      2.661
REMARK  Name = 
REMARK  7 active torsions:
REMARK  status: ('A' for Active; 'I' for Inactive)
REMARK    1  A    between atoms: C_4  and  C_5
REMARK    2  A    between atoms: C_5  and  C_6
REMARK    3  A    between atoms: C_5  and  C_21
REMARK    4  A    between atoms: C_6  and  C_7
REMARK    5  A    between atoms: C_7  and  N_8
REMARK    6  A    between atoms: N_8  and  C_9
REMARK    7  A    between atoms: C_12  and  C_13
REMARK                            x       y       z     vdW  Elec       q    Type
REMARK                         _______ _______ _______ _____ _____    ______ ____
ROOT
ATOM      1  C   UNL     1       3.444   5.709  17.877  0.00  0.00    +0.000 C 
ENDROOT
BRANCH   1   5
ATOM      2  N   UNL     1       6.421   3.816  14.385  0.00  0.00    +0.000 N 
ATOM      3  C   UNL     1       6.295   4.302  15.686  0.00  0.00    +0.000 A 
ATOM      4  C   UNL     1       5.077   4.852  16.093  0.00  0.00    +0.000 A 
ATOM      5  C   UNL     1       4.841   5.253  17.434  0.00  0.00    +0.000 A 
ATOM      6  C   UNL     1       5.994   5.216  18.242  0.00  0.00    +0.000 A 
ATOM      7  N   UNL     1       6.237   5.581  19.541  0.00  0.00    +0.000 NA
ATOM      8  N   UNL     1       7.510   5.319  19.824  0.00  0.00    +0.000 NA
ATOM      9  N   UNL     1       8.064   4.790  18.721  0.00  0.00    +0.000 N 
ATOM     10  C   UNL     1       7.165   4.703  17.702  0.00  0.00    +0.000 A 
ATOM     11  N   UNL     1       7.380   4.215  16.469  0.00  0.00    +0.000 NA
ATOM     12  H   UNL     1       5.683   3.161  14.159  0.00  0.00    +0.000 HD
ATOM     13  H   UNL     1       7.341   3.389  14.307  0.00  0.00    +0.000 HD
ATOM     14  H   UNL     1       9.036   4.515  18.729  0.00  0.00    +0.000 HD
ENDBRANCH   1   5
BRANCH   1  15
ATOM     15  C   UNL     1       2.666   4.644  18.674  0.00  0.00    +0.000 A 
ATOM     16  C   UNL     1       3.003   4.382  20.010  0.00  0.00    +0.000 A 
ATOM     17  C   UNL     1       2.294   3.427  20.744  0.00  0.00    +0.000 A 
ATOM     18  C   UNL     1       1.246   2.720  20.156  0.00  0.00    +0.000 A 
ATOM     19  C   UNL     1       0.913   2.951  18.825  0.00  0.00    +0.000 A 
ATOM     20  C   UNL     1       1.624   3.896  18.090  0.00  0.00    +0.000 A 
ENDBRANCH   1  15
BRANCH   1  21
ATOM     21  C   UNL     1       3.379   7.065  18.642  0.00  0.00    +0.000 C 
BRANCH  21  22
ATOM     22  C   UNL     1       1.987   7.357  19.218  0.00  0.00    +0.000 C 
BRANCH  22  23
ATOM     23  N   UNL     1       2.003   7.663  20.650  0.00  0.00    +0.000 NA
ATOM     24  H   UNL     1       2.871   8.162  20.868  0.00  0.00    +0.000 HD
BRANCH  23  25
ATOM     25  C   UNL     1       0.858   8.510  21.019  0.00  0.00    +0.000 C 
ATOM     26  C   UNL     1       0.989   9.130  22.424  0.00  0.00    +0.000 C 
ATOM     27  C   UNL     1      -0.230   9.988  22.770  0.00  0.00    +0.000 C 
ATOM     28  C   UNL     1      -0.493  11.066  21.709  0.00  0.00    +0.000 C 
ATOM     29  C   UNL     1      -0.524  10.479  20.288  0.00  0.00    +0.000 C 
ATOM     30  C   UNL     1       0.708   9.632  19.983  0.00  0.00    +0.000 C 
BRANCH  28  31
ATOM     31  C   UNL     1      -1.771  11.846  21.978  0.00  0.00    +0.000 A 
ATOM     32  C   UNL     1      -2.316  11.867  23.269  0.00  0.00    +0.000 A 
ATOM     33  C   UNL     1      -3.430  12.657  23.560  0.00  0.00    +0.000 A 
ATOM     34  C   UNL     1      -4.017  13.432  22.561  0.00  0.00    +0.000 A 
ATOM     35  C   UNL     1      -3.503  13.402  21.268  0.00  0.00    +0.000 A 
ATOM     36  C   UNL     1      -2.391  12.609  20.977  0.00  0.00    +0.000 A 
ENDBRANCH  28  31
ENDBRANCH  23  25
ENDBRANCH  22  23
ENDBRANCH  21  22
ENDBRANCH   1  21
TORSDOF 7
ENDMDL
MODEL 7
REMARK VINA RESULT:     -10.0      0.641      1.290
REMARK  Name = 
REMARK  7 active torsions:
REMARK  status: ('A' for Active; 'I' for Inactive)
REMARK    1  A    between atoms: C_4  and  C_5
REMARK    2  A    between atoms: C_5  and  C_6
REMARK    3  A    between atoms: C_5  and  C_21
REMARK    4  A    between atoms: C_6  and  C_7
REMARK    5  A    between atoms: C_7  and  N_8
REMARK    6  A    between atoms: N_8  and  C_9
REMARK    7  A    between atoms: C_12  and  C_13
REMARK                            x       y       z     vdW  Elec       q    Type
REMARK                         _______ _______ _______ _____ _____    ______ ____
ROOT
ATOM      1  C   UNL     1       3.403   6.268  17.800  0.00  0.00    +0.000 C 
ENDROOT
BRANCH   1   5
ATOM      2  N   UNL     1       7.739   5.434  20.068  0.00  0.00    +0.000 N 
ATOM      3  C   UNL     1       7.034   5.502  18.867  0.00  0.00    +0.000 A 
ATOM      4  C   UNL     1       5.651   5.702  18.899  0.00  0.00    +0.000 A 
ATOM      5  C   UNL     1       4.891   5.901  17.717  0.00  0.00    +0.000 A 
ATOM      6  C   UNL     1       5.627   5.691  16.535  0.00  0.00    +0.000 A 
ATOM      7  N   UNL     1       5.284   5.699  15.206  0.00  0.00    +0.000 NA
ATOM      8  N   UNL     1       6.375   5.457  14.486  0.00  0.00    +0.000 NA
ATOM      9  N   UNL     1       7.396   5.304  15.345  0.00  0.00    +0.000 N 
ATOM     10  C   UNL     1       6.987   5.438  16.637  0.00  0.00    +0.000 A 
ATOM     11  N   UNL     1       7.747   5.356  17.742  0.00  0.00    +0.000 NA
ATOM     12  H   UNL     1       7.544   6.234  20.660  0.00  0.00    +0.000 HD
ATOM     13  H   UNL     1       8.727   5.368  19.839  0.00  0.00    +0.000 HD
ATOM     14  H   UNL     1       8.324   5.115  14.995  0.00  0.00    +0.000 HD
ENDBRANCH   1   5
BRANCH   1  15
ATOM     15  C   UNL     1       2.547   5.226  18.546  0.00  0.00    +0.000 A 
ATOM     16  C   UNL     1       2.183   5.443  19.883  0.00  0.00    +0.000 A 
ATOM     17  C   UNL     1       1.396   4.508  20.562  0.00  0.00    +0.000 A 
ATOM     18  C   UNL     1       0.967   3.347  19.921  0.00  0.00    +0.000 A 
ATOM     19  C   UNL     1       1.337   3.106  18.602  0.00  0.00    +0.000 A 
ATOM     20  C   UNL     1       2.129   4.031  17.927  0.00  0.00    +0.000 A 
ENDBRANCH   1  15
BRANCH   1  21
ATOM     21  C   UNL     1       3.079   7.685  18.360  0.00  0.00    +0.000 C 
BRANCH  21  22
ATOM     22  C   UNL     1       1.990   8.409  17.558  0.00  0.00    +0.000 C 
BRANCH  22  23
ATOM     23  N   UNL     1       2.107   9.868  17.605  0.00  0.00    +0.000 NA
ATOM     24  H   UNL     1       1.784  10.251  16.712  0.00  0.00    +0.000 HD
BRANCH  23  25
ATOM     25  C   UNL     1       1.284  10.425  18.690  0.00  0.00    +0.000 C 
ATOM     26  C   UNL     1       1.453  11.948  18.860  0.00  0.00    +0.000 C 
ATOM     27  C   UNL     1       0.593  12.479  20.008  0.00  0.00    +0.000 C 
ATOM     28  C   UNL     1      -0.886  12.100  19.841  0.00  0.00    +0.000 C 
ATOM     29  C   UNL     1      -1.066  10.598  19.567  0.00  0.00    +0.000 C 
ATOM     30  C   UNL     1      -0.192  10.108  18.416  0.00  0.00    +0.000 C 
BRANCH  28  31
ATOM     31  C   UNL     1      -1.731  12.517  21.034  0.00  0.00    +0.000 A 
ATOM     32  C   UNL     1      -2.607  13.605  20.922  0.00  0.00    +0.000 A 
ATOM     33  C   UNL     1      -3.464  13.942  21.973  0.00  0.00    +0.000 A 
ATOM     34  C   UNL     1      -3.451  13.197  23.150  0.00  0.00    +0.000 A 
ATOM     35  C   UNL     1      -2.569  12.129  23.287  0.00  0.00    +0.000 A 
ATOM     36  C   UNL     1      -1.709  11.796  22.239  0.00  0.00    +0.000 A 
ENDBRANCH  28  31
ENDBRANCH  23  25
ENDBRANCH  22  23
ENDBRANCH  21  22
ENDBRANCH   1  21
TORSDOF 7
ENDMDL
MODEL 8
REMARK VINA RESULT:     -10.0      1.905      2.995
REMARK  Name = 
REMARK  7 active torsions:
REMARK  status: ('A' for Active; 'I' for Inactive)
REMARK    1  A    between atoms: C_4  and  C_5
REMARK    2  A    between atoms: C_5  and  C_6
REMARK    3  A    between atoms: C_5  and  C_21
REMARK    4  A    between atoms: C_6  and  C_7
REMARK    5  A    between atoms: C_7  and  N_8
REMARK    6  A    between atoms: N_8  and  C_9
REMARK    7  A    between atoms: C_12  and  C_13
REMARK                            x       y       z     vdW  Elec       q    Type
REMARK                         _______ _______ _______ _____ _____    ______ ____
ROOT
ATOM      1  C   UNL     1       3.358   6.110  17.592  0.00  0.00    +0.000 C 
ENDROOT
BRANCH   1   5
ATOM      2  N   UNL     1       6.596   4.445  14.217  0.00  0.00    +0.000 N 
ATOM      3  C   UNL     1       6.352   4.777  15.550  0.00  0.00    +0.000 A 
ATOM      4  C   UNL     1       5.129   5.360  15.894  0.00  0.00    +0.000 A 
ATOM      5  C   UNL     1       4.768   5.611  17.243  0.00  0.00    +0.000 A 
ATOM      6  C   UNL     1       5.817   5.394  18.156  0.00  0.00    +0.000 A 
ATOM      7  N   UNL     1       5.933   5.580  19.510  0.00  0.00    +0.000 NA
ATOM      8  N   UNL     1       7.148   5.195  19.888  0.00  0.00    +0.000 NA
ATOM      9  N   UNL     1       7.791   4.765  18.790  0.00  0.00    +0.000 N 
ATOM     10  C   UNL     1       7.010   4.868  17.680  0.00  0.00    +0.000 A 
ATOM     11  N   UNL     1       7.335   4.518  16.424  0.00  0.00    +0.000 NA
ATOM     12  H   UNL     1       5.851   3.876  13.833  0.00  0.00    +0.000 HD
ATOM     13  H   UNL     1       7.492   3.965  14.182  0.00  0.00    +0.000 HD
ATOM     14  H   UNL     1       8.739   4.422  18.865  0.00  0.00    +0.000 HD
ENDBRANCH   1   5
BRANCH   1  15
ATOM     15  C   UNL     1       2.510   5.083  18.366  0.00  0.00    +0.000 A 
ATOM     16  C   UNL     1       1.964   3.977  17.699  0.00  0.00    +0.000 A 
ATOM     17  C   UNL     1       1.204   3.033  18.397  0.00  0.00    +0.000 A 
ATOM     18  C   UNL     1       0.977   3.183  19.765  0.00  0.00    +0.000 A 
ATOM     19  C   UNL     1       1.493   4.286  20.438  0.00  0.00    +0.000 A 
ATOM     20  C   UNL     1       2.242   5.231  19.742  0.00  0.00    +0.000 A 
ENDBRANCH   1  15
BRANCH   1  21
ATOM     21  C   UNL     1       3.281   7.485  18.320  0.00  0.00    +0.000 C 
BRANCH  21  22
ATOM     22  C   UNL     1       2.091   8.337  17.861  0.00  0.00    +0.000 C 
BRANCH  22  23
ATOM     23  N   UNL     1       2.036   9.652  18.503  0.00  0.00    +0.000 NA
ATOM     24  H   UNL     1       2.761  10.247  18.093  0.00  0.00    +0.000 HD
BRANCH  23  25
ATOM     25  C   UNL     1       0.723  10.284  18.294  0.00  0.00    +0.000 C 
ATOM     26  C   UNL     1      -0.265   9.391  17.519  0.00  0.00    +0.000 C 
ATOM     27  C   UNL     1      -1.608  10.094  17.312  0.00  0.00    +0.000 C 
ATOM     28  C   UNL     1      -2.215  10.574  18.638  0.00  0.00    +0.000 C 
ATOM     29  C   UNL     1      -1.207  11.381  19.473  0.00  0.00    +0.000 C 
ATOM     30  C   UNL     1       0.117  10.645  19.656  0.00  0.00    +0.000 C 
BRANCH  28  31
ATOM     31  C   UNL     1      -3.488  11.381  18.435  0.00  0.00    +0.000 A 
ATOM     32  C   UNL     1      -4.179  11.299  17.219  0.00  0.00    +0.000 A 
ATOM     33  C   UNL     1      -5.402  11.952  17.048  0.00  0.00    +0.000 A 
ATOM     34  C   UNL     1      -5.946  12.700  18.090  0.00  0.00    +0.000 A 
ATOM     35  C   UNL     1      -5.259  12.813  19.296  0.00  0.00    +0.000 A 
ATOM     36  C   UNL     1      -4.035  12.163  19.465  0.00  0.00    +0.000 A 
ENDBRANCH  28  31
ENDBRANCH  23  25
ENDBRANCH  22  23
ENDBRANCH  21  22
ENDBRANCH   1  21
TORSDOF 7
ENDMDL
MODEL 9
REMARK VINA RESULT:     -10.0      0.913      1.284
REMARK  Name = 
REMARK  7 active torsions:
REMARK  status: ('A' for Active; 'I' for Inactive)
REMARK    1  A    between atoms: C_4  and  C_5
REMARK    2  A    between atoms: C_5  and  C_6
REMARK    3  A    between atoms: C_5  and  C_21
REMARK    4  A    between atoms: C_6  and  C_7
REMARK    5  A    between atoms: C_7  and  N_8
REMARK    6  A    between atoms: N_8  and  C_9
REMARK    7  A    between atoms: C_12  and  C_13
REMARK                            x       y       z     vdW  Elec       q    Type
REMARK                         _______ _______ _______ _____ _____    ______ ____
ROOT
ATOM      1  C   UNL     1       3.453   6.380  17.716  0.00  0.00    +0.000 C 
ENDROOT
BRANCH   1   5
ATOM      2  N   UNL     1       7.704   5.409  20.088  0.00  0.00    +0.000 N 
ATOM      3  C   UNL     1       7.034   5.512  18.869  0.00  0.00    +0.000 A 
ATOM      4  C   UNL     1       5.656   5.744  18.866  0.00  0.00    +0.000 A 
ATOM      5  C   UNL     1       4.934   5.980  17.667  0.00  0.00    +0.000 A 
ATOM      6  C   UNL     1       5.697   5.773  16.503  0.00  0.00    +0.000 A 
ATOM      7  N   UNL     1       5.392   5.810  15.166  0.00  0.00    +0.000 NA
ATOM      8  N   UNL     1       6.497   5.554  14.472  0.00  0.00    +0.000 NA
ATOM      9  N   UNL     1       7.490   5.363  15.356  0.00  0.00    +0.000 N 
ATOM     10  C   UNL     1       7.048   5.486  16.638  0.00  0.00    +0.000 A 
ATOM     11  N   UNL     1       7.776   5.368  17.762  0.00  0.00    +0.000 NA
ATOM     12  H   UNL     1       7.511   6.203  20.688  0.00  0.00    +0.000 HD
ATOM     13  H   UNL     1       8.697   5.323  19.885  0.00  0.00    +0.000 HD
ATOM     14  H   UNL     1       8.423   5.158  15.028  0.00  0.00    +0.000 HD
ENDBRANCH   1   5
BRANCH   1  15
ATOM     15  C   UNL     1       2.564   5.377  18.477  0.00  0.00    +0.000 A 
ATOM     16  C   UNL     1       2.007   4.281  17.803  0.00  0.00    +0.000 A 
ATOM     17  C   UNL     1       1.210   3.359  18.489  0.00  0.00    +0.000 A 
ATOM     18  C   UNL     1       0.955   3.522  19.850  0.00  0.00    +0.000 A 
ATOM     19  C   UNL     1       1.482   4.616  20.529  0.00  0.00    +0.000 A 
ATOM     20  C   UNL     1       2.268   5.539  19.845  0.00  0.00    +0.000 A 
ENDBRANCH   1  15
BRANCH   1  21
ATOM     21  C   UNL     1       3.151   7.819  18.232  0.00  0.00    +0.000 C 
BRANCH  21  22
ATOM     22  C   UNL     1       1.854   8.399  17.653  0.00  0.00    +0.000 C 
BRANCH  22  23
ATOM     23  N   UNL     1       1.864   9.860  17.557  0.00  0.00    +0.000 NA
ATOM     24  H   UNL     1       1.310  10.138  16.742  0.00  0.00    +0.000 HD
BRANCH  23  25
ATOM     25  C   UNL     1       1.279  10.470  18.762  0.00  0.00    +0.000 C 
ATOM     26  C   UNL     1       1.617  11.966  18.911  0.00  0.00    +0.000 C 
ATOM     27  C   UNL     1       1.003  12.552  20.184  0.00  0.00    +0.000 C 
ATOM     28  C   UNL     1      -0.513  12.316  20.251  0.00  0.00    +0.000 C 
ATOM     29  C   UNL     1      -0.876  10.843  20.001  0.00  0.00    +0.000 C 
ATOM     30  C   UNL     1      -0.245  10.297  18.723  0.00  0.00    +0.000 C 
BRANCH  28  31
ATOM     31  C   UNL     1      -1.116  12.785  21.566  0.00  0.00    +0.000 A 
ATOM     32  C   UNL     1      -0.494  13.811  22.292  0.00  0.00    +0.000 A 
ATOM     33  C   UNL     1      -1.084  14.325  23.448  0.00  0.00    +0.000 A 
ATOM     34  C   UNL     1      -2.302  13.816  23.897  0.00  0.00    +0.000 A 
ATOM     35  C   UNL     1      -2.919  12.780  23.201  0.00  0.00    +0.000 A 
ATOM     36  C   UNL     1      -2.327  12.263  22.048  0.00  0.00    +0.000 A 
ENDBRANCH  28  31
ENDBRANCH  23  25
ENDBRANCH  22  23
ENDBRANCH  21  22
ENDBRANCH   1  21
TORSDOF 7
ENDMDL
