MODEL 1
REMARK VINA RESULT:      -7.1      0.000      0.000
REMARK  Name = 
REMARK  3 active torsions:
REMARK  status: ('A' for Active; 'I' for Inactive)
REMARK    1  A    between atoms: C_1  and  C_2
REMARK    2  A    between atoms: C_5  and  N_6
REMARK    3  A    between atoms: C_19  and  C_20
REMARK                            x       y       z     vdW  Elec       q    Type
REMARK                         _______ _______ _______ _____ _____    ______ ____
ROOT
ATOM      1  N   UNL     1       1.127   9.710  19.725  0.00  0.00    +0.000 N 
ATOM      2  C   UNL     1       1.865   8.852  18.937  0.00  0.00    +0.000 C 
ATOM      3  O   UNL     1       2.404   9.172  17.878  0.00  0.00    +0.000 OA
ATOM      4  N   UNL     1       1.971   7.549  19.414  0.00  0.00    +0.000 N 
ATOM      5  C   UNL     1       1.483   7.067  20.715  0.00  0.00    +0.000 C 
ATOM      6  C   UNL     1       1.997   5.679  21.116  0.00  0.00    +0.000 C 
ATOM      7  C   UNL     1       1.780   4.712  19.987  0.00  0.00    +0.000 A 
ATOM      8  C   UNL     1       1.358   3.397  20.193  0.00  0.00    +0.000 A 
ATOM      9  C   UNL     1       1.157   2.554  19.102  0.00  0.00    +0.000 A 
ATOM     10  C   UNL     1       1.387   3.015  17.805  0.00  0.00    +0.000 A 
ATOM     11  C   UNL     1       1.835   4.319  17.597  0.00  0.00    +0.000 A 
ATOM     12  C   UNL     1       2.032   5.175  18.686  0.00  0.00    +0.000 A 
ATOM     13  C   UNL     1       2.569   6.573  18.499  0.00  0.00    +0.000 C 
ATOM     14  H   UNL     1       0.909   9.383  20.646  0.00  0.00    +0.000 HD
ENDROOT
BRANCH   1  19
ATOM     15  C   UNL     1      -0.401  15.127  18.547  0.00  0.00    +0.000 C 
ATOM     16  C   UNL     1       0.013  13.717  18.838  0.00  0.00    +0.000 A 
ATOM     17  C   UNL     1       1.161  13.449  19.576  0.00  0.00    +0.000 A 
ATOM     18  C   UNL     1       1.525  12.129  19.859  0.00  0.00    +0.000 A 
ATOM     19  C   UNL     1       0.753  11.042  19.424  0.00  0.00    +0.000 A 
ATOM     20  C   UNL     1      -0.398  11.302  18.650  0.00  0.00    +0.000 A 
ATOM     21  C   UNL     1      -1.323  10.250  18.097  0.00  0.00    +0.000 C 
ATOM     22  C   UNL     1      -0.751  12.642  18.374  0.00  0.00    +0.000 A 
ENDBRANCH   1  19
TORSDOF 1
ENDMDL
MODEL 2
REMARK VINA RESULT:      -6.9      2.507      7.307
REMARK  Name = 
REMARK  3 active torsions:
REMARK  status: ('A' for Active; 'I' for Inactive)
REMARK    1  A    between atoms: C_1  and  C_2
REMARK    2  A    between atoms: C_5  and  N_6
REMARK    3  A    between atoms: C_19  and  C_20
REMARK                            x       y       z     vdW  Elec       q    Type
REMARK                         _______ _______ _______ _____ _____    ______ ____
ROOT
ATOM      1  N   UNL     1       2.870   7.159  18.681  0.00  0.00    +0.000 N 
ATOM      2  C   UNL     1       2.057   8.201  18.288  0.00  0.00    +0.000 C 
ATOM      3  O   UNL     1       2.033   8.673  17.152  0.00  0.00    +0.000 OA
ATOM      4  N   UNL     1       1.232   8.720  19.283  0.00  0.00    +0.000 N 
ATOM      5  C   UNL     1       1.073   8.174  20.639  0.00  0.00    +0.000 C 
ATOM      6  C   UNL     1      -0.115   8.745  21.422  0.00  0.00    +0.000 C 
ATOM      7  C   UNL     1      -0.083  10.246  21.368  0.00  0.00    +0.000 A 
ATOM      8  C   UNL     1      -0.396  11.045  22.470  0.00  0.00    +0.000 A 
ATOM      9  C   UNL     1      -0.330  12.433  22.361  0.00  0.00    +0.000 A 
ATOM     10  C   UNL     1       0.036  13.028  21.153  0.00  0.00    +0.000 A 
ATOM     11  C   UNL     1       0.322  12.233  20.043  0.00  0.00    +0.000 A 
ATOM     12  C   UNL     1       0.266  10.839  20.145  0.00  0.00    +0.000 A 
ATOM     13  C   UNL     1       0.516   9.954  18.949  0.00  0.00    +0.000 C 
ATOM     14  H   UNL     1       2.657   6.745  19.567  0.00  0.00    +0.000 HD
ENDROOT
BRANCH   1  19
ATOM     15  C   UNL     1       6.995   4.649  15.558  0.00  0.00    +0.000 C 
ATOM     16  C   UNL     1       5.933   5.299  16.391  0.00  0.00    +0.000 A 
ATOM     17  C   UNL     1       6.100   6.590  16.879  0.00  0.00    +0.000 A 
ATOM     18  C   UNL     1       5.092   7.194  17.636  0.00  0.00    +0.000 A 
ATOM     19  C   UNL     1       3.888   6.533  17.921  0.00  0.00    +0.000 A 
ATOM     20  C   UNL     1       3.720   5.212  17.456  0.00  0.00    +0.000 A 
ATOM     21  C   UNL     1       2.498   4.363  17.686  0.00  0.00    +0.000 C 
ATOM     22  C   UNL     1       4.749   4.617  16.691  0.00  0.00    +0.000 A 
ENDBRANCH   1  19
TORSDOF 1
ENDMDL
MODEL 3
REMARK VINA RESULT:      -6.9      3.041      4.145
REMARK  Name = 
REMARK  3 active torsions:
REMARK  status: ('A' for Active; 'I' for Inactive)
REMARK    1  A    between atoms: C_1  and  C_2
REMARK    2  A    between atoms: C_5  and  N_6
REMARK    3  A    between atoms: C_19  and  C_20
REMARK                            x       y       z     vdW  Elec       q    Type
REMARK                         _______ _______ _______ _____ _____    ______ ____
ROOT
ATOM      1  N   UNL     1       1.455   8.782  19.745  0.00  0.00    +0.000 N 
ATOM      2  C   UNL     1       1.937   7.501  19.914  0.00  0.00    +0.000 C 
ATOM      3  O   UNL     1       1.610   6.752  20.833  0.00  0.00    +0.000 OA
ATOM      4  N   UNL     1       2.856   7.081  18.957  0.00  0.00    +0.000 N 
ATOM      5  C   UNL     1       3.239   7.825  17.747  0.00  0.00    +0.000 C 
ATOM      6  C   UNL     1       4.028   7.007  16.717  0.00  0.00    +0.000 C 
ATOM      7  C   UNL     1       5.175   6.311  17.394  0.00  0.00    +0.000 A 
ATOM      8  C   UNL     1       6.438   6.199  16.809  0.00  0.00    +0.000 A 
ATOM      9  C   UNL     1       7.466   5.556  17.497  0.00  0.00    +0.000 A 
ATOM     10  C   UNL     1       7.236   5.014  18.762  0.00  0.00    +0.000 A 
ATOM     11  C   UNL     1       5.968   5.101  19.337  0.00  0.00    +0.000 A 
ATOM     12  C   UNL     1       4.932   5.750  18.658  0.00  0.00    +0.000 A 
ATOM     13  C   UNL     1       3.536   5.812  19.228  0.00  0.00    +0.000 C 
ATOM     14  H   UNL     1       1.647   9.212  18.861  0.00  0.00    +0.000 HD
ENDROOT
BRANCH   1  19
ATOM     15  C   UNL     1      -1.972  11.678  23.343  0.00  0.00    +0.000 C 
ATOM     16  C   UNL     1      -1.061  10.937  22.412  0.00  0.00    +0.000 A 
ATOM     17  C   UNL     1      -0.173   9.981  22.894  0.00  0.00    +0.000 A 
ATOM     18  C   UNL     1       0.656   9.281  22.013  0.00  0.00    +0.000 A 
ATOM     19  C   UNL     1       0.617   9.506  20.629  0.00  0.00    +0.000 A 
ATOM     20  C   UNL     1      -0.260  10.493  20.132  0.00  0.00    +0.000 A 
ATOM     21  C   UNL     1      -0.411  10.863  18.681  0.00  0.00    +0.000 C 
ATOM     22  C   UNL     1      -1.091  11.191  21.037  0.00  0.00    +0.000 A 
ENDBRANCH   1  19
TORSDOF 1
ENDMDL
MODEL 4
REMARK VINA RESULT:      -6.9      1.992      2.501
REMARK  Name = 
REMARK  3 active torsions:
REMARK  status: ('A' for Active; 'I' for Inactive)
REMARK    1  A    between atoms: C_1  and  C_2
REMARK    2  A    between atoms: C_5  and  N_6
REMARK    3  A    between atoms: C_19  and  C_20
REMARK                            x       y       z     vdW  Elec       q    Type
REMARK                         _______ _______ _______ _____ _____    ______ ____
ROOT
ATOM      1  N   UNL     1       0.616   8.297  20.812  0.00  0.00    +0.000 N 
ATOM      2  C   UNL     1       1.643   7.952  19.958  0.00  0.00    +0.000 C 
ATOM      3  O   UNL     1       2.187   8.730  19.175  0.00  0.00    +0.000 OA
ATOM      4  N   UNL     1       2.049   6.622  20.024  0.00  0.00    +0.000 N 
ATOM      5  C   UNL     1       1.573   5.625  20.994  0.00  0.00    +0.000 C 
ATOM      6  C   UNL     1       2.401   4.335  21.043  0.00  0.00    +0.000 C 
ATOM      7  C   UNL     1       2.582   3.796  19.652  0.00  0.00    +0.000 A 
ATOM      8  C   UNL     1       2.517   2.432  19.359  0.00  0.00    +0.000 A 
ATOM      9  C   UNL     1       2.676   1.997  18.044  0.00  0.00    +0.000 A 
ATOM     10  C   UNL     1       2.912   2.917  17.022  0.00  0.00    +0.000 A 
ATOM     11  C   UNL     1       3.005   4.277  17.316  0.00  0.00    +0.000 A 
ATOM     12  C   UNL     1       2.839   4.724  18.630  0.00  0.00    +0.000 A 
ATOM     13  C   UNL     1       2.989   6.182  18.989  0.00  0.00    +0.000 C 
ATOM     14  H   UNL     1       0.397   7.633  21.527  0.00  0.00    +0.000 HD
ENDROOT
BRANCH   1  19
ATOM     15  C   UNL     1      -2.147  13.337  21.011  0.00  0.00    +0.000 C 
ATOM     16  C   UNL     1      -1.447  12.014  20.954  0.00  0.00    +0.000 A 
ATOM     17  C   UNL     1      -1.178  11.400  19.736  0.00  0.00    +0.000 A 
ATOM     18  C   UNL     1      -0.505  10.176  19.696  0.00  0.00    +0.000 A 
ATOM     19  C   UNL     1      -0.074   9.534  20.866  0.00  0.00    +0.000 A 
ATOM     20  C   UNL     1      -0.367  10.133  22.109  0.00  0.00    +0.000 A 
ATOM     21  C   UNL     1       0.013   9.567  23.451  0.00  0.00    +0.000 C 
ATOM     22  C   UNL     1      -1.048  11.371  22.130  0.00  0.00    +0.000 A 
ENDBRANCH   1  19
TORSDOF 1
ENDMDL
MODEL 5
REMARK VINA RESULT:      -6.8      1.782      7.897
REMARK  Name = 
REMARK  3 active torsions:
REMARK  status: ('A' for Active; 'I' for Inactive)
REMARK    1  A    between atoms: C_1  and  C_2
REMARK    2  A    between atoms: C_5  and  N_6
REMARK    3  A    between atoms: C_19  and  C_20
REMARK                            x       y       z     vdW  Elec       q    Type
REMARK                         _______ _______ _______ _____ _____    ______ ____
ROOT
ATOM      1  N   UNL     1       2.490   7.031  18.328  0.00  0.00    +0.000 N 
ATOM      2  C   UNL     1       2.020   7.690  19.445  0.00  0.00    +0.000 C 
ATOM      3  O   UNL     1       1.860   7.163  20.546  0.00  0.00    +0.000 OA
ATOM      4  N   UNL     1       1.716   9.035  19.257  0.00  0.00    +0.000 N 
ATOM      5  C   UNL     1       1.974   9.813  18.036  0.00  0.00    +0.000 C 
ATOM      6  C   UNL     1       1.828  11.330  18.202  0.00  0.00    +0.000 C 
ATOM      7  C   UNL     1       0.515  11.644  18.860  0.00  0.00    +0.000 A 
ATOM      8  C   UNL     1      -0.281  12.725  18.473  0.00  0.00    +0.000 A 
ATOM      9  C   UNL     1      -1.499  12.953  19.112  0.00  0.00    +0.000 A 
ATOM     10  C   UNL     1      -1.921  12.113  20.143  0.00  0.00    +0.000 A 
ATOM     11  C   UNL     1      -1.116  11.049  20.550  0.00  0.00    +0.000 A 
ATOM     12  C   UNL     1       0.104  10.808  19.911  0.00  0.00    +0.000 A 
ATOM     13  C   UNL     1       1.023   9.701  20.364  0.00  0.00    +0.000 C 
ATOM     14  H   UNL     1       2.757   7.609  17.556  0.00  0.00    +0.000 HD
ENDROOT
BRANCH   1  19
ATOM     15  C   UNL     1       3.544   1.397  17.848  0.00  0.00    +0.000 C 
ATOM     16  C   UNL     1       3.262   2.865  17.952  0.00  0.00    +0.000 A 
ATOM     17  C   UNL     1       1.963   3.332  18.120  0.00  0.00    +0.000 A 
ATOM     18  C   UNL     1       1.715   4.702  18.237  0.00  0.00    +0.000 A 
ATOM     19  C   UNL     1       2.753   5.644  18.199  0.00  0.00    +0.000 A 
ATOM     20  C   UNL     1       4.072   5.185  18.000  0.00  0.00    +0.000 A 
ATOM     21  C   UNL     1       5.291   6.064  17.923  0.00  0.00    +0.000 C 
ATOM     22  C   UNL     1       4.304   3.796  17.884  0.00  0.00    +0.000 A 
ENDBRANCH   1  19
TORSDOF 1
ENDMDL
MODEL 6
REMARK VINA RESULT:      -6.7      6.617      7.680
REMARK  Name = 
REMARK  3 active torsions:
REMARK  status: ('A' for Active; 'I' for Inactive)
REMARK    1  A    between atoms: C_1  and  C_2
REMARK    2  A    between atoms: C_5  and  N_6
REMARK    3  A    between atoms: C_19  and  C_20
REMARK                            x       y       z     vdW  Elec       q    Type
REMARK                         _______ _______ _______ _____ _____    ______ ____
ROOT
ATOM      1  N   UNL     1       9.167   9.391  18.987  0.00  0.00    +0.000 N 
ATOM      2  C   UNL     1       8.256   9.055  18.007  0.00  0.00    +0.000 C 
ATOM      3  O   UNL     1       7.887   9.816  17.112  0.00  0.00    +0.000 OA
ATOM      4  N   UNL     1       7.747   7.762  18.086  0.00  0.00    +0.000 N 
ATOM      5  C   UNL     1       8.190   6.719  19.023  0.00  0.00    +0.000 C 
ATOM      6  C   UNL     1       7.687   5.309  18.694  0.00  0.00    +0.000 C 
ATOM      7  C   UNL     1       6.201   5.340  18.473  0.00  0.00    +0.000 A 
ATOM      8  C   UNL     1       5.350   4.336  18.940  0.00  0.00    +0.000 A 
ATOM      9  C   UNL     1       3.977   4.432  18.718  0.00  0.00    +0.000 A 
ATOM     10  C   UNL     1       3.451   5.521  18.021  0.00  0.00    +0.000 A 
ATOM     11  C   UNL     1       4.302   6.511  17.530  0.00  0.00    +0.000 A 
ATOM     12  C   UNL     1       5.679   6.427  17.754  0.00  0.00    +0.000 A 
ATOM     13  C   UNL     1       6.631   7.452  17.188  0.00  0.00    +0.000 C 
ATOM     14  H   UNL     1       9.525   8.632  19.533  0.00  0.00    +0.000 HD
ENDROOT
BRANCH   1  19
ATOM     15  C   UNL     1      11.543  14.540  19.944  0.00  0.00    +0.000 C 
ATOM     16  C   UNL     1      10.908  13.208  19.682  0.00  0.00    +0.000 A 
ATOM     17  C   UNL     1      11.060  12.574  18.454  0.00  0.00    +0.000 A 
ATOM     18  C   UNL     1      10.481  11.322  18.230  0.00  0.00    +0.000 A 
ATOM     19  C   UNL     1       9.742  10.664  19.224  0.00  0.00    +0.000 A 
ATOM     20  C   UNL     1       9.556  11.311  20.463  0.00  0.00    +0.000 A 
ATOM     21  C   UNL     1       8.781  10.747  21.625  0.00  0.00    +0.000 C 
ATOM     22  C   UNL     1      10.149  12.576  20.673  0.00  0.00    +0.000 A 
ENDBRANCH   1  19
TORSDOF 1
ENDMDL
MODEL 7
REMARK VINA RESULT:      -6.7      6.673      7.747
REMARK  Name = 
REMARK  3 active torsions:
REMARK  status: ('A' for Active; 'I' for Inactive)
REMARK    1  A    between atoms: C_1  and  C_2
REMARK    2  A    between atoms: C_5  and  N_6
REMARK    3  A    between atoms: C_19  and  C_20
REMARK                            x       y       z     vdW  Elec       q    Type
REMARK                         _______ _______ _______ _____ _____    ______ ____
ROOT
ATOM      1  N   UNL     1       9.085   9.557  19.352  0.00  0.00    +0.000 N 
ATOM      2  C   UNL     1       8.282   9.287  18.263  0.00  0.00    +0.000 C 
ATOM      3  O   UNL     1       7.926  10.127  17.437  0.00  0.00    +0.000 OA
ATOM      4  N   UNL     1       7.872   7.963  18.141  0.00  0.00    +0.000 N 
ATOM      5  C   UNL     1       8.322   6.842  18.981  0.00  0.00    +0.000 C 
ATOM      6  C   UNL     1       7.957   5.454  18.443  0.00  0.00    +0.000 C 
ATOM      7  C   UNL     1       6.495   5.411  18.099  0.00  0.00    +0.000 A 
ATOM      8  C   UNL     1       5.692   4.300  18.366  0.00  0.00    +0.000 A 
ATOM      9  C   UNL     1       4.337   4.329  18.039  0.00  0.00    +0.000 A 
ATOM     10  C   UNL     1       3.783   5.458  17.435  0.00  0.00    +0.000 A 
ATOM     11  C   UNL     1       4.589   6.559  17.142  0.00  0.00    +0.000 A 
ATOM     12  C   UNL     1       5.948   6.541  17.473  0.00  0.00    +0.000 A 
ATOM     13  C   UNL     1       6.857   7.693  17.119  0.00  0.00    +0.000 C 
ATOM     14  H   UNL     1       9.458   8.762  19.831  0.00  0.00    +0.000 HD
ENDROOT
BRANCH   1  19
ATOM     15  C   UNL     1      10.878  14.728  21.118  0.00  0.00    +0.000 C 
ATOM     16  C   UNL     1      10.425  13.371  20.673  0.00  0.00    +0.000 A 
ATOM     17  C   UNL     1       9.530  12.632  21.438  0.00  0.00    +0.000 A 
ATOM     18  C   UNL     1       9.098  11.376  21.001  0.00  0.00    +0.000 A 
ATOM     19  C   UNL     1       9.538  10.827  19.788  0.00  0.00    +0.000 A 
ATOM     20  C   UNL     1      10.468  11.556  19.018  0.00  0.00    +0.000 A 
ATOM     21  C   UNL     1      11.046  11.101  17.704  0.00  0.00    +0.000 C 
ATOM     22  C   UNL     1      10.894  12.823  19.475  0.00  0.00    +0.000 A 
ENDBRANCH   1  19
TORSDOF 1
ENDMDL
MODEL 8
REMARK VINA RESULT:      -6.6      2.640      7.822
REMARK  Name = 
REMARK  3 active torsions:
REMARK  status: ('A' for Active; 'I' for Inactive)
REMARK    1  A    between atoms: C_1  and  C_2
REMARK    2  A    between atoms: C_5  and  N_6
REMARK    3  A    between atoms: C_19  and  C_20
REMARK                            x       y       z     vdW  Elec       q    Type
REMARK                         _______ _______ _______ _____ _____    ______ ____
ROOT
ATOM      1  N   UNL     1       1.412   8.026  19.893  0.00  0.00    +0.000 N 
ATOM      2  C   UNL     1       1.315   8.856  20.990  0.00  0.00    +0.000 C 
ATOM      3  O   UNL     1       1.877   8.653  22.066  0.00  0.00    +0.000 OA
ATOM      4  N   UNL     1       0.511   9.979  20.817  0.00  0.00    +0.000 N 
ATOM      5  C   UNL     1      -0.114  10.403  19.556  0.00  0.00    +0.000 C 
ATOM      6  C   UNL     1      -0.685  11.825  19.572  0.00  0.00    +0.000 C 
ATOM      7  C   UNL     1      -1.562  12.006  20.779  0.00  0.00    +0.000 A 
ATOM      8  C   UNL     1      -2.766  12.712  20.735  0.00  0.00    +0.000 A 
ATOM      9  C   UNL     1      -3.543  12.829  21.886  0.00  0.00    +0.000 A 
ATOM     10  C   UNL     1      -3.118  12.254  23.085  0.00  0.00    +0.000 A 
ATOM     11  C   UNL     1      -1.902  11.573  23.138  0.00  0.00    +0.000 A 
ATOM     12  C   UNL     1      -1.119  11.443  21.986  0.00  0.00    +0.000 A 
ATOM     13  C   UNL     1       0.226  10.761  22.024  0.00  0.00    +0.000 C 
ATOM     14  H   UNL     1       1.070   8.398  19.029  0.00  0.00    +0.000 HD
ENDROOT
BRANCH   1  19
ATOM     15  C   UNL     1       4.024   2.907  19.670  0.00  0.00    +0.000 C 
ATOM     16  C   UNL     1       3.324   4.231  19.719  0.00  0.00    +0.000 A 
ATOM     17  C   UNL     1       2.363   4.495  20.687  0.00  0.00    +0.000 A 
ATOM     18  C   UNL     1       1.733   5.742  20.736  0.00  0.00    +0.000 A 
ATOM     19  C   UNL     1       2.050   6.763  19.828  0.00  0.00    +0.000 A 
ATOM     20  C   UNL     1       3.003   6.497  18.823  0.00  0.00    +0.000 A 
ATOM     21  C   UNL     1       3.443   7.477  17.768  0.00  0.00    +0.000 C 
ATOM     22  C   UNL     1       3.630   5.230  18.789  0.00  0.00    +0.000 A 
ENDBRANCH   1  19
TORSDOF 1
ENDMDL
MODEL 9
REMARK VINA RESULT:      -6.5      4.352      6.195
REMARK  Name = 
REMARK  3 active torsions:
REMARK  status: ('A' for Active; 'I' for Inactive)
REMARK    1  A    between atoms: C_1  and  C_2
REMARK    2  A    between atoms: C_5  and  N_6
REMARK    3  A    between atoms: C_19  and  C_20
REMARK                            x       y       z     vdW  Elec       q    Type
REMARK                         _______ _______ _______ _____ _____    ______ ____
ROOT
ATOM      1  N   UNL     1       3.474   6.198  17.703  0.00  0.00    +0.000 N 
ATOM      2  C   UNL     1       4.805   6.304  17.357  0.00  0.00    +0.000 C 
ATOM      3  O   UNL     1       5.567   7.171  17.785  0.00  0.00    +0.000 OA
ATOM      4  N   UNL     1       5.263   5.346  16.457  0.00  0.00    +0.000 N 
ATOM      5  C   UNL     1       4.497   4.191  15.966  0.00  0.00    +0.000 C 
ATOM      6  C   UNL     1       5.333   3.135  15.233  0.00  0.00    +0.000 C 
ATOM      7  C   UNL     1       6.179   3.797  14.183  0.00  0.00    +0.000 A 
ATOM      8  C   UNL     1       6.387   3.236  12.921  0.00  0.00    +0.000 A 
ATOM      9  C   UNL     1       7.169   3.909  11.983  0.00  0.00    +0.000 A 
ATOM     10  C   UNL     1       7.753   5.135  12.304  0.00  0.00    +0.000 A 
ATOM     11  C   UNL     1       7.569   5.685  13.573  0.00  0.00    +0.000 A 
ATOM     12  C   UNL     1       6.781   5.020  14.518  0.00  0.00    +0.000 A 
ATOM     13  C   UNL     1       6.609   5.560  15.917  0.00  0.00    +0.000 C 
ATOM     14  H   UNL     1       3.018   5.346  17.443  0.00  0.00    +0.000 HD
ENDROOT
BRANCH   1  19
ATOM     15  C   UNL     1       0.445   9.899  20.898  0.00  0.00    +0.000 C 
ATOM     16  C   UNL     1       1.215   8.930  20.053  0.00  0.00    +0.000 A 
ATOM     17  C   UNL     1       1.602   9.261  18.760  0.00  0.00    +0.000 A 
ATOM     18  C   UNL     1       2.339   8.357  17.990  0.00  0.00    +0.000 A 
ATOM     19  C   UNL     1       2.719   7.103  18.489  0.00  0.00    +0.000 A 
ATOM     20  C   UNL     1       2.307   6.744  19.790  0.00  0.00    +0.000 A 
ATOM     21  C   UNL     1       2.620   5.435  20.465  0.00  0.00    +0.000 C 
ATOM     22  C   UNL     1       1.563   7.671  20.554  0.00  0.00    +0.000 A 
ENDBRANCH   1  19
TORSDOF 1
ENDMDL
