MODEL 1
REMARK VINA RESULT:      -7.4      0.000      0.000
REMARK  Name = 
REMARK  11 active torsions:
REMARK  status: ('A' for Active; 'I' for Inactive)
REMARK    1  A    between atoms: C_1  and  C_2
REMARK    2  A    between atoms: C_4  and  C_5
REMARK    3  A    between atoms: N_7  and  C_8
REMARK    4  A    between atoms: C_8  and  C_9
REMARK    5  A    between atoms: C_8  and  C_15
REMARK    6  A    between atoms: C_9  and  O_10
REMARK    7  A    between atoms: O_10  and  C_11
REMARK    8  A    between atoms: C_11  and  C_12
REMARK    9  A    between atoms: C_12  and  C_13
REMARK   10  A    between atoms: C_12  and  C_14
REMARK   11  A    between atoms: N_20  and  C_21
REMARK                            x       y       z     vdW  Elec       q    Type
REMARK                         _______ _______ _______ _____ _____    ______ ____
ROOT
ATOM      1  C   UNL     1       3.010   6.067  19.726  0.00  0.00    +0.000 C 
ENDROOT
BRANCH   1   2
ATOM      2  C   UNL     1       2.139   4.855  19.921  0.00  0.00    +0.000 A 
ATOM      3  C   UNL     1       1.423   4.083  19.024  0.00  0.00    +0.000 A 
ATOM      4  C   UNL     1       0.917   2.983  19.752  0.00  0.00    +0.000 A 
ATOM      5  C   UNL     1       1.339   3.158  21.050  0.00  0.00    +0.000 A 
ATOM      6  O   UNL     1       2.073   4.298  21.167  0.00  0.00    +0.000 OA
ENDBRANCH   1   2
BRANCH   1   9
ATOM      7  C   UNL     1       4.984   5.324  18.442  0.00  0.00    +0.000 C 
ATOM      8  O   UNL     1       5.503   4.899  19.464  0.00  0.00    +0.000 OA
ATOM      9  N   UNL     1       3.762   5.962  18.484  0.00  0.00    +0.000 N 
ATOM     10  H   UNL     1       3.299   6.221  17.627  0.00  0.00    +0.000 HD
BRANCH   7  14
ATOM     11  C   UNL     1       6.396   3.993  13.728  0.00  0.00    +0.000 C 
ATOM     12  C   UNL     1       6.231   4.644  15.049  0.00  0.00    +0.000 A 
ATOM     13  C   UNL     1       5.251   4.410  16.039  0.00  0.00    +0.000 A 
ATOM     14  C   UNL     1       5.592   5.207  17.126  0.00  0.00    +0.000 A 
ATOM     15  N   UNL     1       6.699   5.909  16.690  0.00  0.00    +0.000 N 
ATOM     16  C   UNL     1       7.488   6.914  17.364  0.00  0.00    +0.000 C 
ATOM     17  N   UNL     1       7.100   5.573  15.444  0.00  0.00    +0.000 NA
ENDBRANCH   7  14
ENDBRANCH   1   9
BRANCH   1  18
ATOM     18  C   UNL     1       2.154   7.351  19.772  0.00  0.00    +0.000 C 
BRANCH  18  19
ATOM     19  O   UNL     1       1.377   7.376  20.971  0.00  0.00    +0.000 OA
BRANCH  19  20
ATOM     20  C   UNL     1       1.340   8.663  21.577  0.00  0.00    +0.000 C 
BRANCH  20  21
ATOM     21  C   UNL     1      -0.118   9.137  21.624  0.00  0.00    +0.000 C 
ATOM     22  C   UNL     1      -0.480   9.680  23.010  0.00  0.00    +0.000 C 
ATOM     23  C   UNL     1      -0.374  10.194  20.554  0.00  0.00    +0.000 C 
ENDBRANCH  20  21
ENDBRANCH  19  20
ENDBRANCH  18  19
ENDBRANCH   1  18
TORSDOF 7
ENDMDL
MODEL 2
REMARK VINA RESULT:      -7.2      2.951      7.657
REMARK  Name = 
REMARK  11 active torsions:
REMARK  status: ('A' for Active; 'I' for Inactive)
REMARK    1  A    between atoms: C_1  and  C_2
REMARK    2  A    between atoms: C_4  and  C_5
REMARK    3  A    between atoms: N_7  and  C_8
REMARK    4  A    between atoms: C_8  and  C_9
REMARK    5  A    between atoms: C_8  and  C_15
REMARK    6  A    between atoms: C_9  and  O_10
REMARK    7  A    between atoms: O_10  and  C_11
REMARK    8  A    between atoms: C_11  and  C_12
REMARK    9  A    between atoms: C_12  and  C_13
REMARK   10  A    between atoms: C_12  and  C_14
REMARK   11  A    between atoms: N_20  and  C_21
REMARK                            x       y       z     vdW  Elec       q    Type
REMARK                         _______ _______ _______ _____ _____    ______ ____
ROOT
ATOM      1  C   UNL     1       6.968   4.591  17.070  0.00  0.00    +0.000 C 
ENDROOT
BRANCH   1   2
ATOM      2  C   UNL     1       7.322   5.971  17.556  0.00  0.00    +0.000 A 
ATOM      3  C   UNL     1       8.015   6.403  18.673  0.00  0.00    +0.000 A 
ATOM      4  C   UNL     1       8.175   7.799  18.532  0.00  0.00    +0.000 A 
ATOM      5  C   UNL     1       7.558   8.137  17.350  0.00  0.00    +0.000 A 
ATOM      6  O   UNL     1       7.027   7.036  16.752  0.00  0.00    +0.000 OA
ENDBRANCH   1   2
BRANCH   1   9
ATOM      7  C   UNL     1       5.166   4.066  18.675  0.00  0.00    +0.000 C 
ATOM      8  O   UNL     1       5.973   4.052  19.593  0.00  0.00    +0.000 OA
ATOM      9  N   UNL     1       5.579   4.281  17.377  0.00  0.00    +0.000 N 
ATOM     10  H   UNL     1       4.897   4.388  16.643  0.00  0.00    +0.000 HD
BRANCH   7  14
ATOM     11  C   UNL     1       0.400   2.268  18.880  0.00  0.00    +0.000 C 
ATOM     12  C   UNL     1       1.632   3.089  18.961  0.00  0.00    +0.000 A 
ATOM     13  C   UNL     1       2.975   2.698  18.765  0.00  0.00    +0.000 A 
ATOM     14  C   UNL     1       3.738   3.856  18.859  0.00  0.00    +0.000 A 
ATOM     15  N   UNL     1       2.818   4.838  19.171  0.00  0.00    +0.000 N 
ATOM     16  C   UNL     1       3.011   6.247  19.423  0.00  0.00    +0.000 C 
ATOM     17  N   UNL     1       1.544   4.391  19.227  0.00  0.00    +0.000 NA
ENDBRANCH   7  14
ENDBRANCH   1   9
BRANCH   1  18
ATOM     18  C   UNL     1       7.263   4.465  15.560  0.00  0.00    +0.000 C 
BRANCH  18  19
ATOM     19  O   UNL     1       6.302   3.603  14.946  0.00  0.00    +0.000 OA
BRANCH  19  20
ATOM     20  C   UNL     1       5.647   4.209  13.838  0.00  0.00    +0.000 C 
BRANCH  20  21
ATOM     21  C   UNL     1       5.990   3.411  12.574  0.00  0.00    +0.000 C 
ATOM     22  C   UNL     1       4.755   3.212  11.691  0.00  0.00    +0.000 C 
ATOM     23  C   UNL     1       7.101   4.101  11.789  0.00  0.00    +0.000 C 
ENDBRANCH  20  21
ENDBRANCH  19  20
ENDBRANCH  18  19
ENDBRANCH   1  18
TORSDOF 7
ENDMDL
MODEL 3
REMARK VINA RESULT:      -7.1      1.447      1.607
REMARK  Name = 
REMARK  11 active torsions:
REMARK  status: ('A' for Active; 'I' for Inactive)
REMARK    1  A    between atoms: C_1  and  C_2
REMARK    2  A    between atoms: C_4  and  C_5
REMARK    3  A    between atoms: N_7  and  C_8
REMARK    4  A    between atoms: C_8  and  C_9
REMARK    5  A    between atoms: C_8  and  C_15
REMARK    6  A    between atoms: C_9  and  O_10
REMARK    7  A    between atoms: O_10  and  C_11
REMARK    8  A    between atoms: C_11  and  C_12
REMARK    9  A    between atoms: C_12  and  C_13
REMARK   10  A    between atoms: C_12  and  C_14
REMARK   11  A    between atoms: N_20  and  C_21
REMARK                            x       y       z     vdW  Elec       q    Type
REMARK                         _______ _______ _______ _____ _____    ______ ____
ROOT
ATOM      1  C   UNL     1       3.019   6.244  19.478  0.00  0.00    +0.000 C 
ENDROOT
BRANCH   1   2
ATOM      2  C   UNL     1       2.147   5.034  19.679  0.00  0.00    +0.000 A 
ATOM      3  C   UNL     1       1.571   4.156  18.779  0.00  0.00    +0.000 A 
ATOM      4  C   UNL     1       0.987   3.121  19.544  0.00  0.00    +0.000 A 
ATOM      5  C   UNL     1       1.227   3.437  20.861  0.00  0.00    +0.000 A 
ATOM      6  O   UNL     1       1.922   4.603  20.957  0.00  0.00    +0.000 OA
ENDBRANCH   1   2
BRANCH   1   9
ATOM      7  C   UNL     1       4.994   5.396  18.263  0.00  0.00    +0.000 C 
ATOM      8  O   UNL     1       5.444   4.929  19.298  0.00  0.00    +0.000 OA
ATOM      9  N   UNL     1       3.813   6.108  18.266  0.00  0.00    +0.000 N 
ATOM     10  H   UNL     1       3.401   6.403  17.394  0.00  0.00    +0.000 HD
BRANCH   7  14
ATOM     11  C   UNL     1       6.544   4.002  13.611  0.00  0.00    +0.000 C 
ATOM     12  C   UNL     1       6.346   4.666  14.921  0.00  0.00    +0.000 A 
ATOM     13  C   UNL     1       5.327   4.460  15.876  0.00  0.00    +0.000 A 
ATOM     14  C   UNL     1       5.646   5.257  16.970  0.00  0.00    +0.000 A 
ATOM     15  N   UNL     1       6.783   5.932  16.570  0.00  0.00    +0.000 N 
ATOM     16  C   UNL     1       7.568   6.925  17.265  0.00  0.00    +0.000 C 
ATOM     17  N   UNL     1       7.221   5.578  15.341  0.00  0.00    +0.000 NA
ENDBRANCH   7  14
ENDBRANCH   1   9
BRANCH   1  18
ATOM     18  C   UNL     1       2.156   7.525  19.457  0.00  0.00    +0.000 C 
BRANCH  18  19
ATOM     19  O   UNL     1       1.933   7.940  18.108  0.00  0.00    +0.000 OA
BRANCH  19  20
ATOM     20  C   UNL     1       1.874   9.355  17.970  0.00  0.00    +0.000 C 
BRANCH  20  21
ATOM     21  C   UNL     1       0.700   9.877  18.809  0.00  0.00    +0.000 C 
ATOM     22  C   UNL     1       1.044  11.213  19.474  0.00  0.00    +0.000 C 
ATOM     23  C   UNL     1      -0.553  10.014  17.951  0.00  0.00    +0.000 C 
ENDBRANCH  20  21
ENDBRANCH  19  20
ENDBRANCH  18  19
ENDBRANCH   1  18
TORSDOF 7
ENDMDL
MODEL 4
REMARK VINA RESULT:      -7.1      3.762      7.763
REMARK  Name = 
REMARK  11 active torsions:
REMARK  status: ('A' for Active; 'I' for Inactive)
REMARK    1  A    between atoms: C_1  and  C_2
REMARK    2  A    between atoms: C_4  and  C_5
REMARK    3  A    between atoms: N_7  and  C_8
REMARK    4  A    between atoms: C_8  and  C_9
REMARK    5  A    between atoms: C_8  and  C_15
REMARK    6  A    between atoms: C_9  and  O_10
REMARK    7  A    between atoms: O_10  and  C_11
REMARK    8  A    between atoms: C_11  and  C_12
REMARK    9  A    between atoms: C_12  and  C_13
REMARK   10  A    between atoms: C_12  and  C_14
REMARK   11  A    between atoms: N_20  and  C_21
REMARK                            x       y       z     vdW  Elec       q    Type
REMARK                         _______ _______ _______ _____ _____    ______ ____
ROOT
ATOM      1  C   UNL     1       5.884   5.361  16.865  0.00  0.00    +0.000 C 
ENDROOT
BRANCH   1   2
ATOM      2  C   UNL     1       6.780   6.399  17.486  0.00  0.00    +0.000 A 
ATOM      3  C   UNL     1       7.686   6.326  18.529  0.00  0.00    +0.000 A 
ATOM      4  C   UNL     1       8.352   7.571  18.572  0.00  0.00    +0.000 A 
ATOM      5  C   UNL     1       7.802   8.333  17.567  0.00  0.00    +0.000 A 
ATOM      6  O   UNL     1       6.837   7.635  16.907  0.00  0.00    +0.000 OA
ENDBRANCH   1   2
BRANCH   1   9
ATOM      7  C   UNL     1       4.301   3.762  17.882  0.00  0.00    +0.000 C 
ATOM      8  O   UNL     1       4.759   2.857  17.200  0.00  0.00    +0.000 OA
ATOM      9  N   UNL     1       4.769   5.052  17.749  0.00  0.00    +0.000 N 
ATOM     10  H   UNL     1       4.454   5.769  18.383  0.00  0.00    +0.000 HD
BRANCH   7  14
ATOM     11  C   UNL     1       1.429   2.498  21.900  0.00  0.00    +0.000 C 
ATOM     12  C   UNL     1       1.959   3.029  20.621  0.00  0.00    +0.000 A 
ATOM     13  C   UNL     1       3.292   3.059  20.156  0.00  0.00    +0.000 A 
ATOM     14  C   UNL     1       3.245   3.570  18.863  0.00  0.00    +0.000 A 
ATOM     15  N   UNL     1       1.911   3.873  18.673  0.00  0.00    +0.000 N 
ATOM     16  C   UNL     1       1.243   4.460  17.534  0.00  0.00    +0.000 C 
ATOM     17  N   UNL     1       1.123   3.543  19.721  0.00  0.00    +0.000 NA
ENDBRANCH   7  14
ENDBRANCH   1   9
BRANCH   1  18
ATOM     18  C   UNL     1       5.401   5.836  15.478  0.00  0.00    +0.000 C 
BRANCH  18  19
ATOM     19  O   UNL     1       6.288   5.358  14.463  0.00  0.00    +0.000 OA
BRANCH  19  20
ATOM     20  C   UNL     1       6.270   3.941  14.339  0.00  0.00    +0.000 C 
BRANCH  20  21
ATOM     21  C   UNL     1       6.340   3.582  12.850  0.00  0.00    +0.000 C 
ATOM     22  C   UNL     1       4.947   3.576  12.214  0.00  0.00    +0.000 C 
ATOM     23  C   UNL     1       7.261   4.547  12.109  0.00  0.00    +0.000 C 
ENDBRANCH  20  21
ENDBRANCH  19  20
ENDBRANCH  18  19
ENDBRANCH   1  18
TORSDOF 7
ENDMDL
MODEL 5
REMARK VINA RESULT:      -7.1      0.718      1.164
REMARK  Name = 
REMARK  11 active torsions:
REMARK  status: ('A' for Active; 'I' for Inactive)
REMARK    1  A    between atoms: C_1  and  C_2
REMARK    2  A    between atoms: C_4  and  C_5
REMARK    3  A    between atoms: N_7  and  C_8
REMARK    4  A    between atoms: C_8  and  C_9
REMARK    5  A    between atoms: C_8  and  C_15
REMARK    6  A    between atoms: C_9  and  O_10
REMARK    7  A    between atoms: O_10  and  C_11
REMARK    8  A    between atoms: C_11  and  C_12
REMARK    9  A    between atoms: C_12  and  C_13
REMARK   10  A    between atoms: C_12  and  C_14
REMARK   11  A    between atoms: N_20  and  C_21
REMARK                            x       y       z     vdW  Elec       q    Type
REMARK                         _______ _______ _______ _____ _____    ______ ____
ROOT
ATOM      1  C   UNL     1       2.957   6.135  19.611  0.00  0.00    +0.000 C 
ENDROOT
BRANCH   1   2
ATOM      2  C   UNL     1       2.261   4.845  19.954  0.00  0.00    +0.000 A 
ATOM      3  C   UNL     1       2.089   4.185  21.156  0.00  0.00    +0.000 A 
ATOM      4  C   UNL     1       1.222   3.099  20.899  0.00  0.00    +0.000 A 
ATOM      5  C   UNL     1       0.932   3.153  19.556  0.00  0.00    +0.000 A 
ATOM      6  O   UNL     1       1.566   4.203  18.967  0.00  0.00    +0.000 OA
ENDBRANCH   1   2
BRANCH   1   9
ATOM      7  C   UNL     1       5.001   5.489  18.385  0.00  0.00    +0.000 C 
ATOM      8  O   UNL     1       5.561   5.221  19.437  0.00  0.00    +0.000 OA
ATOM      9  N   UNL     1       3.718   5.995  18.378  0.00  0.00    +0.000 N 
ATOM     10  H   UNL     1       3.231   6.121  17.505  0.00  0.00    +0.000 HD
BRANCH   7  14
ATOM     11  C   UNL     1       6.422   3.974  13.729  0.00  0.00    +0.000 C 
ATOM     12  C   UNL     1       6.263   4.670  15.028  0.00  0.00    +0.000 A 
ATOM     13  C   UNL     1       5.265   4.495  16.013  0.00  0.00    +0.000 A 
ATOM     14  C   UNL     1       5.619   5.314  17.079  0.00  0.00    +0.000 A 
ATOM     15  N   UNL     1       6.751   5.969  16.636  0.00  0.00    +0.000 N 
ATOM     16  C   UNL     1       7.563   6.971  17.288  0.00  0.00    +0.000 C 
ATOM     17  N   UNL     1       7.156   5.583  15.405  0.00  0.00    +0.000 NA
ENDBRANCH   7  14
ENDBRANCH   1   9
BRANCH   1  18
ATOM     18  C   UNL     1       1.933   7.287  19.525  0.00  0.00    +0.000 C 
BRANCH  18  19
ATOM     19  O   UNL     1       2.025   8.109  20.691  0.00  0.00    +0.000 OA
BRANCH  19  20
ATOM     20  C   UNL     1       0.796   8.197  21.402  0.00  0.00    +0.000 C 
BRANCH  20  21
ATOM     21  C   UNL     1       0.732   9.563  22.098  0.00  0.00    +0.000 C 
ATOM     22  C   UNL     1       0.565  10.695  21.081  0.00  0.00    +0.000 C 
ATOM     23  C   UNL     1      -0.400   9.591  23.120  0.00  0.00    +0.000 C 
ENDBRANCH  20  21
ENDBRANCH  19  20
ENDBRANCH  18  19
ENDBRANCH   1  18
TORSDOF 7
ENDMDL
MODEL 6
REMARK VINA RESULT:      -7.0      1.811      4.217
REMARK  Name = 
REMARK  11 active torsions:
REMARK  status: ('A' for Active; 'I' for Inactive)
REMARK    1  A    between atoms: C_1  and  C_2
REMARK    2  A    between atoms: C_4  and  C_5
REMARK    3  A    between atoms: N_7  and  C_8
REMARK    4  A    between atoms: C_8  and  C_9
REMARK    5  A    between atoms: C_8  and  C_15
REMARK    6  A    between atoms: C_9  and  O_10
REMARK    7  A    between atoms: O_10  and  C_11
REMARK    8  A    between atoms: C_11  and  C_12
REMARK    9  A    between atoms: C_12  and  C_13
REMARK   10  A    between atoms: C_12  and  C_14
REMARK   11  A    between atoms: N_20  and  C_21
REMARK                            x       y       z     vdW  Elec       q    Type
REMARK                         _______ _______ _______ _____ _____    ______ ____
ROOT
ATOM      1  C   UNL     1       2.903   6.012  18.633  0.00  0.00    +0.000 C 
ENDROOT
BRANCH   1   2
ATOM      2  C   UNL     1       2.327   7.403  18.626  0.00  0.00    +0.000 A 
ATOM      3  C   UNL     1       1.730   8.156  19.621  0.00  0.00    +0.000 A 
ATOM      4  C   UNL     1       1.525   9.446  19.082  0.00  0.00    +0.000 A 
ATOM      5  C   UNL     1       1.992   9.398  17.789  0.00  0.00    +0.000 A 
ATOM      6  O   UNL     1       2.472   8.158  17.496  0.00  0.00    +0.000 OA
ENDBRANCH   1   2
BRANCH   1   9
ATOM      7  C   UNL     1       4.341   4.780  17.048  0.00  0.00    +0.000 C 
ATOM      8  O   UNL     1       3.672   3.771  17.208  0.00  0.00    +0.000 OA
ATOM      9  N   UNL     1       4.059   5.932  17.752  0.00  0.00    +0.000 N 
ATOM     10  H   UNL     1       4.554   6.785  17.542  0.00  0.00    +0.000 HD
BRANCH   7  14
ATOM     11  C   UNL     1       7.470   4.917  13.026  0.00  0.00    +0.000 C 
ATOM     12  C   UNL     1       6.870   4.923  14.381  0.00  0.00    +0.000 A 
ATOM     13  C   UNL     1       5.507   4.972  14.749  0.00  0.00    +0.000 A 
ATOM     14  C   UNL     1       5.470   4.858  16.134  0.00  0.00    +0.000 A 
ATOM     15  N   UNL     1       6.801   4.821  16.502  0.00  0.00    +0.000 N 
ATOM     16  C   UNL     1       7.403   4.738  17.812  0.00  0.00    +0.000 C 
ATOM     17  N   UNL     1       7.655   4.850  15.454  0.00  0.00    +0.000 NA
ENDBRANCH   7  14
ENDBRANCH   1   9
BRANCH   1  18
ATOM     18  C   UNL     1       3.250   5.586  20.075  0.00  0.00    +0.000 C 
BRANCH  18  19
ATOM     19  O   UNL     1       2.114   4.971  20.688  0.00  0.00    +0.000 OA
BRANCH  19  20
ATOM     20  C   UNL     1       1.263   4.325  19.748  0.00  0.00    +0.000 C 
BRANCH  20  21
ATOM     21  C   UNL     1       1.042   2.878  20.207  0.00  0.00    +0.000 C 
ATOM     22  C   UNL     1       1.641   1.882  19.209  0.00  0.00    +0.000 C 
ATOM     23  C   UNL     1       1.631   2.661  21.597  0.00  0.00    +0.000 C 
ENDBRANCH  20  21
ENDBRANCH  19  20
ENDBRANCH  18  19
ENDBRANCH   1  18
TORSDOF 7
ENDMDL
MODEL 7
REMARK VINA RESULT:      -6.9      1.767      4.249
REMARK  Name = 
REMARK  11 active torsions:
REMARK  status: ('A' for Active; 'I' for Inactive)
REMARK    1  A    between atoms: C_1  and  C_2
REMARK    2  A    between atoms: C_4  and  C_5
REMARK    3  A    between atoms: N_7  and  C_8
REMARK    4  A    between atoms: C_8  and  C_9
REMARK    5  A    between atoms: C_8  and  C_15
REMARK    6  A    between atoms: C_9  and  O_10
REMARK    7  A    between atoms: O_10  and  C_11
REMARK    8  A    between atoms: C_11  and  C_12
REMARK    9  A    between atoms: C_12  and  C_13
REMARK   10  A    between atoms: C_12  and  C_14
REMARK   11  A    between atoms: N_20  and  C_21
REMARK                            x       y       z     vdW  Elec       q    Type
REMARK                         _______ _______ _______ _____ _____    ______ ____
ROOT
ATOM      1  C   UNL     1       2.795   6.223  18.537  0.00  0.00    +0.000 C 
ENDROOT
BRANCH   1   2
ATOM      2  C   UNL     1       2.329   7.654  18.552  0.00  0.00    +0.000 A 
ATOM      3  C   UNL     1       2.328   8.631  17.573  0.00  0.00    +0.000 A 
ATOM      4  C   UNL     1       1.628   9.736  18.108  0.00  0.00    +0.000 A 
ATOM      5  C   UNL     1       1.259   9.374  19.383  0.00  0.00    +0.000 A 
ATOM      6  O   UNL     1       1.689   8.114  19.668  0.00  0.00    +0.000 OA
ENDBRANCH   1   2
BRANCH   1   9
ATOM      7  C   UNL     1       4.219   4.938  16.981  0.00  0.00    +0.000 C 
ATOM      8  O   UNL     1       3.464   3.981  17.063  0.00  0.00    +0.000 OA
ATOM      9  N   UNL     1       3.989   6.082  17.716  0.00  0.00    +0.000 N 
ATOM     10  H   UNL     1       4.561   6.899  17.568  0.00  0.00    +0.000 HD
BRANCH   7  14
ATOM     11  C   UNL     1       7.574   4.919  13.142  0.00  0.00    +0.000 C 
ATOM     12  C   UNL     1       6.899   4.953  14.462  0.00  0.00    +0.000 A 
ATOM     13  C   UNL     1       5.522   5.074  14.753  0.00  0.00    +0.000 A 
ATOM     14  C   UNL     1       5.401   4.958  16.133  0.00  0.00    +0.000 A 
ATOM     15  N   UNL     1       6.705   4.849  16.574  0.00  0.00    +0.000 N 
ATOM     16  C   UNL     1       7.226   4.729  17.917  0.00  0.00    +0.000 C 
ATOM     17  N   UNL     1       7.617   4.835  15.577  0.00  0.00    +0.000 NA
ENDBRANCH   7  14
ENDBRANCH   1   9
BRANCH   1  18
ATOM     18  C   UNL     1       3.027   5.722  19.978  0.00  0.00    +0.000 C 
BRANCH  18  19
ATOM     19  O   UNL     1       1.909   4.942  20.409  0.00  0.00    +0.000 OA
BRANCH  19  20
ATOM     20  C   UNL     1       2.295   3.788  21.148  0.00  0.00    +0.000 C 
BRANCH  20  21
ATOM     21  C   UNL     1       1.939   2.543  20.327  0.00  0.00    +0.000 C 
ATOM     22  C   UNL     1       0.837   2.847  19.308  0.00  0.00    +0.000 C 
ATOM     23  C   UNL     1       3.177   1.991  19.626  0.00  0.00    +0.000 C 
ENDBRANCH  20  21
ENDBRANCH  19  20
ENDBRANCH  18  19
ENDBRANCH   1  18
TORSDOF 7
ENDMDL
MODEL 8
REMARK VINA RESULT:      -6.8      0.939      1.333
REMARK  Name = 
REMARK  11 active torsions:
REMARK  status: ('A' for Active; 'I' for Inactive)
REMARK    1  A    between atoms: C_1  and  C_2
REMARK    2  A    between atoms: C_4  and  C_5
REMARK    3  A    between atoms: N_7  and  C_8
REMARK    4  A    between atoms: C_8  and  C_9
REMARK    5  A    between atoms: C_8  and  C_15
REMARK    6  A    between atoms: C_9  and  O_10
REMARK    7  A    between atoms: O_10  and  C_11
REMARK    8  A    between atoms: C_11  and  C_12
REMARK    9  A    between atoms: C_12  and  C_13
REMARK   10  A    between atoms: C_12  and  C_14
REMARK   11  A    between atoms: N_20  and  C_21
REMARK                            x       y       z     vdW  Elec       q    Type
REMARK                         _______ _______ _______ _____ _____    ______ ____
ROOT
ATOM      1  C   UNL     1       2.791   6.360  19.534  0.00  0.00    +0.000 C 
ENDROOT
BRANCH   1   2
ATOM      2  C   UNL     1       2.087   5.080  19.897  0.00  0.00    +0.000 A 
ATOM      3  C   UNL     1       1.423   4.145  19.124  0.00  0.00    +0.000 A 
ATOM      4  C   UNL     1       1.096   3.071  19.982  0.00  0.00    +0.000 A 
ATOM      5  C   UNL     1       1.565   3.422  21.227  0.00  0.00    +0.000 A 
ATOM      6  O   UNL     1       2.160   4.646  21.190  0.00  0.00    +0.000 OA
ENDBRANCH   1   2
BRANCH   1   9
ATOM      7  C   UNL     1       4.863   5.626  18.409  0.00  0.00    +0.000 C 
ATOM      8  O   UNL     1       5.365   5.350  19.488  0.00  0.00    +0.000 OA
ATOM      9  N   UNL     1       3.601   6.178  18.338  0.00  0.00    +0.000 N 
ATOM     10  H   UNL     1       3.159   6.310  17.442  0.00  0.00    +0.000 HD
BRANCH   7  14
ATOM     11  C   UNL     1       6.429   4.013  13.833  0.00  0.00    +0.000 C 
ATOM     12  C   UNL     1       6.241   4.725  15.120  0.00  0.00    +0.000 A 
ATOM     13  C   UNL     1       5.192   4.603  16.057  0.00  0.00    +0.000 A 
ATOM     14  C   UNL     1       5.532   5.414  17.135  0.00  0.00    +0.000 A 
ATOM     15  N   UNL     1       6.713   6.013  16.741  0.00  0.00    +0.000 N 
ATOM     16  C   UNL     1       7.538   6.982  17.425  0.00  0.00    +0.000 C 
ATOM     17  N   UNL     1       7.156   5.600  15.533  0.00  0.00    +0.000 NA
ENDBRANCH   7  14
ENDBRANCH   1   9
BRANCH   1  18
ATOM     18  C   UNL     1       1.766   7.502  19.364  0.00  0.00    +0.000 C 
BRANCH  18  19
ATOM     19  O   UNL     1       1.804   8.364  20.503  0.00  0.00    +0.000 OA
BRANCH  19  20
ATOM     20  C   UNL     1       0.788   9.361  20.474  0.00  0.00    +0.000 C 
BRANCH  20  21
ATOM     21  C   UNL     1       0.638   9.860  19.031  0.00  0.00    +0.000 C 
ATOM     22  C   UNL     1      -0.828  10.144  18.692  0.00  0.00    +0.000 C 
ATOM     23  C   UNL     1       1.490  11.104  18.803  0.00  0.00    +0.000 C 
ENDBRANCH  20  21
ENDBRANCH  19  20
ENDBRANCH  18  19
ENDBRANCH   1  18
TORSDOF 7
ENDMDL
MODEL 9
REMARK VINA RESULT:      -6.8      1.439      1.823
REMARK  Name = 
REMARK  11 active torsions:
REMARK  status: ('A' for Active; 'I' for Inactive)
REMARK    1  A    between atoms: C_1  and  C_2
REMARK    2  A    between atoms: C_4  and  C_5
REMARK    3  A    between atoms: N_7  and  C_8
REMARK    4  A    between atoms: C_8  and  C_9
REMARK    5  A    between atoms: C_8  and  C_15
REMARK    6  A    between atoms: C_9  and  O_10
REMARK    7  A    between atoms: O_10  and  C_11
REMARK    8  A    between atoms: C_11  and  C_12
REMARK    9  A    between atoms: C_12  and  C_13
REMARK   10  A    between atoms: C_12  and  C_14
REMARK   11  A    between atoms: N_20  and  C_21
REMARK                            x       y       z     vdW  Elec       q    Type
REMARK                         _______ _______ _______ _____ _____    ______ ____
ROOT
ATOM      1  C   UNL     1       2.968   5.774  19.911  0.00  0.00    +0.000 C 
ENDROOT
BRANCH   1   2
ATOM      2  C   UNL     1       2.472   4.402  20.282  0.00  0.00    +0.000 A 
ATOM      3  C   UNL     1       2.186   3.829  21.507  0.00  0.00    +0.000 A 
ATOM      4  C   UNL     1       1.609   2.567  21.237  0.00  0.00    +0.000 A 
ATOM      5  C   UNL     1       1.594   2.440  19.867  0.00  0.00    +0.000 A 
ATOM      6  O   UNL     1       2.126   3.545  19.275  0.00  0.00    +0.000 OA
ENDBRANCH   1   2
BRANCH   1   9
ATOM      7  C   UNL     1       5.058   5.446  18.637  0.00  0.00    +0.000 C 
ATOM      8  O   UNL     1       5.683   5.304  19.677  0.00  0.00    +0.000 OA
ATOM      9  N   UNL     1       3.709   5.729  18.658  0.00  0.00    +0.000 N 
ATOM     10  H   UNL     1       3.185   5.747  17.797  0.00  0.00    +0.000 HD
BRANCH   7  14
ATOM     11  C   UNL     1       6.448   4.165  13.902  0.00  0.00    +0.000 C 
ATOM     12  C   UNL     1       6.291   4.800  15.232  0.00  0.00    +0.000 A 
ATOM     13  C   UNL     1       5.311   4.562  16.221  0.00  0.00    +0.000 A 
ATOM     14  C   UNL     1       5.662   5.341  17.318  0.00  0.00    +0.000 A 
ATOM     15  N   UNL     1       6.775   6.038  16.889  0.00  0.00    +0.000 N 
ATOM     16  C   UNL     1       7.574   7.027  17.575  0.00  0.00    +0.000 C 
ATOM     17  N   UNL     1       7.171   5.715  15.638  0.00  0.00    +0.000 NA
ENDBRANCH   7  14
ENDBRANCH   1   9
BRANCH   1  18
ATOM     18  C   UNL     1       1.788   6.767  19.844  0.00  0.00    +0.000 C 
BRANCH  18  19
ATOM     19  O   UNL     1       2.207   7.980  19.213  0.00  0.00    +0.000 OA
BRANCH  19  20
ATOM     20  C   UNL     1       1.434   9.105  19.614  0.00  0.00    +0.000 C 
BRANCH  20  21
ATOM     21  C   UNL     1       1.148   9.965  18.376  0.00  0.00    +0.000 C 
ATOM     22  C   UNL     1      -0.328   9.889  17.977  0.00  0.00    +0.000 C 
ATOM     23  C   UNL     1       1.561  11.413  18.623  0.00  0.00    +0.000 C 
ENDBRANCH  20  21
ENDBRANCH  19  20
ENDBRANCH  18  19
ENDBRANCH   1  18
TORSDOF 7
ENDMDL
