MODEL 1
REMARK VINA RESULT:      -8.1      0.000      0.000
REMARK  Name = 
REMARK  9 active torsions:
REMARK  status: ('A' for Active; 'I' for Inactive)
REMARK    1  A    between atoms: C_1  and  O_2
REMARK    2  A    between atoms: O_2  and  C_3
REMARK    3  A    between atoms: C_6  and  C_7
REMARK    4  A    between atoms: C_7  and  C_8
REMARK    5  A    between atoms: C_7  and  O_9
REMARK    6  A    between atoms: C_7  and  C_10
REMARK    7  A    between atoms: C_12  and  C_13
REMARK    8  A    between atoms: C_17  and  C_18
REMARK    9  A    between atoms: C_18  and  O_20
REMARK                            x       y       z     vdW  Elec       q    Type
REMARK                         _______ _______ _______ _____ _____    ______ ____
ROOT
ATOM      1  C   UNL     1       4.760   4.537  17.724  0.00  0.00    +0.000 A 
ATOM      2  N   UNL     1       4.854   4.430  16.409  0.00  0.00    +0.000 NA
ATOM      3  C   UNL     1       6.155   4.657  15.989  0.00  0.00    +0.000 A 
ATOM      4  C   UNL     1       7.037   4.991  16.994  0.00  0.00    +0.000 A 
ATOM      5  S   UNL     1       6.226   5.014  18.503  0.00  0.00    +0.000 S 
ENDROOT
BRANCH   3   6
ATOM      6  C   UNL     1       6.504   4.506  14.581  0.00  0.00    +0.000 A 
ATOM      7  C   UNL     1       7.546   5.231  13.990  0.00  0.00    +0.000 A 
ATOM      8  C   UNL     1       7.833   5.073  12.631  0.00  0.00    +0.000 A 
ATOM      9  C   UNL     1       7.074   4.199  11.854  0.00  0.00    +0.000 A 
ATOM     10  C   UNL     1       6.027   3.469  12.427  0.00  0.00    +0.000 A 
ATOM     11  C   UNL     1       5.758   3.611  13.794  0.00  0.00    +0.000 A 
BRANCH  10  12
ATOM     12  C   UNL     1       5.269   2.531  11.560  0.00  0.00    +0.000 C 
ATOM     13  O   UNL     1       4.194   2.824  11.062  0.00  0.00    +0.000 OA
BRANCH  12  14
ATOM     14  O   UNL     1       5.839   1.319  11.407  0.00  0.00    +0.000 OA
ATOM     15  H   UNL     1       6.031   0.833  12.229  0.00  0.00    +0.000 HD
ENDBRANCH  12  14
ENDBRANCH  10  12
ENDBRANCH   3   6
BRANCH   1  16
ATOM     16  C   UNL     1       3.485   4.221  18.501  0.00  0.00    +0.000 C 
ATOM     17  C   UNL     1       3.794   3.234  19.638  0.00  0.00    +0.000 C 
BRANCH  16  21
ATOM     18  C   UNL     1       1.700   7.969  19.861  0.00  0.00    +0.000 A 
ATOM     19  C   UNL     1       1.652   6.836  20.671  0.00  0.00    +0.000 A 
ATOM     20  C   UNL     1       2.220   5.632  20.246  0.00  0.00    +0.000 A 
ATOM     21  C   UNL     1       2.825   5.523  18.982  0.00  0.00    +0.000 A 
ATOM     22  C   UNL     1       2.872   6.680  18.181  0.00  0.00    +0.000 A 
ATOM     23  C   UNL     1       2.308   7.887  18.612  0.00  0.00    +0.000 A 
BRANCH  18  25
ATOM     24  C   UNL     1       0.793  10.109  19.445  0.00  0.00    +0.000 C 
ATOM     25  O   UNL     1       1.097   9.080  20.380  0.00  0.00    +0.000 OA
ENDBRANCH  18  25
ENDBRANCH  16  21
BRANCH  16  26
ATOM     26  O   UNL     1       2.559   3.523  17.646  0.00  0.00    +0.000 OA
ATOM     27  H   UNL     1       2.747   3.810  16.742  0.00  0.00    +0.000 HD
ENDBRANCH  16  26
ENDBRANCH   1  16
TORSDOF 7
ENDMDL
MODEL 2
REMARK VINA RESULT:      -8.1      0.629      1.152
REMARK  Name = 
REMARK  9 active torsions:
REMARK  status: ('A' for Active; 'I' for Inactive)
REMARK    1  A    between atoms: C_1  and  O_2
REMARK    2  A    between atoms: O_2  and  C_3
REMARK    3  A    between atoms: C_6  and  C_7
REMARK    4  A    between atoms: C_7  and  C_8
REMARK    5  A    between atoms: C_7  and  O_9
REMARK    6  A    between atoms: C_7  and  C_10
REMARK    7  A    between atoms: C_12  and  C_13
REMARK    8  A    between atoms: C_17  and  C_18
REMARK    9  A    between atoms: C_18  and  O_20
REMARK                            x       y       z     vdW  Elec       q    Type
REMARK                         _______ _______ _______ _____ _____    ______ ____
ROOT
ATOM      1  C   UNL     1       4.530   5.011  17.724  0.00  0.00    +0.000 A 
ATOM      2  N   UNL     1       4.685   4.855  16.420  0.00  0.00    +0.000 NA
ATOM      3  C   UNL     1       6.026   4.912  16.074  0.00  0.00    +0.000 A 
ATOM      4  C   UNL     1       6.883   5.167  17.123  0.00  0.00    +0.000 A 
ATOM      5  S   UNL     1       5.996   5.331  18.579  0.00  0.00    +0.000 S 
ENDROOT
BRANCH   3   6
ATOM      6  C   UNL     1       6.435   4.680  14.694  0.00  0.00    +0.000 A 
ATOM      7  C   UNL     1       7.530   5.337  14.120  0.00  0.00    +0.000 A 
ATOM      8  C   UNL     1       7.874   5.102  12.785  0.00  0.00    +0.000 A 
ATOM      9  C   UNL     1       7.120   4.218  12.015  0.00  0.00    +0.000 A 
ATOM     10  C   UNL     1       6.020   3.556  12.571  0.00  0.00    +0.000 A 
ATOM     11  C   UNL     1       5.693   3.774  13.915  0.00  0.00    +0.000 A 
BRANCH  10  12
ATOM     12  C   UNL     1       5.269   2.603  11.713  0.00  0.00    +0.000 C 
ATOM     13  O   UNL     1       4.182   2.876  11.230  0.00  0.00    +0.000 OA
BRANCH  12  14
ATOM     14  O   UNL     1       5.859   1.402  11.552  0.00  0.00    +0.000 OA
ATOM     15  H   UNL     1       6.711   1.407  11.080  0.00  0.00    +0.000 HD
ENDBRANCH  12  14
ENDBRANCH  10  12
ENDBRANCH   3   6
BRANCH   1  16
ATOM     16  C   UNL     1       3.183   4.873  18.429  0.00  0.00    +0.000 C 
ATOM     17  C   UNL     1       3.315   3.925  19.631  0.00  0.00    +0.000 C 
BRANCH  16  21
ATOM     18  C   UNL     1       1.544   8.775  19.509  0.00  0.00    +0.000 A 
ATOM     19  C   UNL     1       1.978   8.534  18.207  0.00  0.00    +0.000 A 
ATOM     20  C   UNL     1       2.504   7.289  17.851  0.00  0.00    +0.000 A 
ATOM     21  C   UNL     1       2.638   6.261  18.799  0.00  0.00    +0.000 A 
ATOM     22  C   UNL     1       2.186   6.520  20.107  0.00  0.00    +0.000 A 
ATOM     23  C   UNL     1       1.653   7.765  20.461  0.00  0.00    +0.000 A 
BRANCH  18  25
ATOM     24  C   UNL     1      -0.238  10.103  20.306  0.00  0.00    +0.000 C 
ATOM     25  O   UNL     1       1.065  10.034  19.739  0.00  0.00    +0.000 OA
ENDBRANCH  18  25
ENDBRANCH  16  21
BRANCH  16  26
ATOM     26  O   UNL     1       2.242   4.227  17.550  0.00  0.00    +0.000 OA
ATOM     27  H   UNL     1       1.587   3.795  18.116  0.00  0.00    +0.000 HD
ENDBRANCH  16  26
ENDBRANCH   1  16
TORSDOF 7
ENDMDL
MODEL 3
REMARK VINA RESULT:      -8.1      2.521      8.007
REMARK  Name = 
REMARK  9 active torsions:
REMARK  status: ('A' for Active; 'I' for Inactive)
REMARK    1  A    between atoms: C_1  and  O_2
REMARK    2  A    between atoms: O_2  and  C_3
REMARK    3  A    between atoms: C_6  and  C_7
REMARK    4  A    between atoms: C_7  and  C_8
REMARK    5  A    between atoms: C_7  and  O_9
REMARK    6  A    between atoms: C_7  and  C_10
REMARK    7  A    between atoms: C_12  and  C_13
REMARK    8  A    between atoms: C_17  and  C_18
REMARK    9  A    between atoms: C_18  and  O_20
REMARK                            x       y       z     vdW  Elec       q    Type
REMARK                         _______ _______ _______ _____ _____    ______ ____
ROOT
ATOM      1  C   UNL     1       3.324   4.191  19.370  0.00  0.00    +0.000 A 
ATOM      2  N   UNL     1       3.099   5.386  18.851  0.00  0.00    +0.000 NA
ATOM      3  C   UNL     1       2.285   6.137  19.684  0.00  0.00    +0.000 A 
ATOM      4  C   UNL     1       1.851   5.480  20.815  0.00  0.00    +0.000 A 
ATOM      5  S   UNL     1       2.480   3.887  20.846  0.00  0.00    +0.000 S 
ENDROOT
BRANCH   3   6
ATOM      6  C   UNL     1       1.975   7.522  19.347  0.00  0.00    +0.000 A 
ATOM      7  C   UNL     1       2.213   8.049  18.072  0.00  0.00    +0.000 A 
ATOM      8  C   UNL     1       1.923   9.389  17.797  0.00  0.00    +0.000 A 
ATOM      9  C   UNL     1       1.403  10.210  18.797  0.00  0.00    +0.000 A 
ATOM     10  C   UNL     1       1.162   9.701  20.078  0.00  0.00    +0.000 A 
ATOM     11  C   UNL     1       1.431   8.352  20.342  0.00  0.00    +0.000 A 
BRANCH  10  12
ATOM     12  C   UNL     1       0.582  10.612  21.097  0.00  0.00    +0.000 C 
ATOM     13  O   UNL     1       1.063  11.705  21.346  0.00  0.00    +0.000 OA
BRANCH  12  14
ATOM     14  O   UNL     1      -0.486  10.117  21.755  0.00  0.00    +0.000 OA
ATOM     15  H   UNL     1      -0.470   9.158  21.928  0.00  0.00    +0.000 HD
ENDBRANCH  12  14
ENDBRANCH  10  12
ENDBRANCH   3   6
BRANCH   1  16
ATOM     16  C   UNL     1       4.284   3.177  18.751  0.00  0.00    +0.000 C 
ATOM     17  C   UNL     1       3.497   1.973  18.210  0.00  0.00    +0.000 C 
BRANCH  16  21
ATOM     18  C   UNL     1       6.799   5.031  15.699  0.00  0.00    +0.000 A 
ATOM     19  C   UNL     1       7.133   5.147  17.047  0.00  0.00    +0.000 A 
ATOM     20  C   UNL     1       6.335   4.558  18.032  0.00  0.00    +0.000 A 
ATOM     21  C   UNL     1       5.163   3.862  17.692  0.00  0.00    +0.000 A 
ATOM     22  C   UNL     1       4.846   3.747  16.326  0.00  0.00    +0.000 A 
ATOM     23  C   UNL     1       5.650   4.332  15.340  0.00  0.00    +0.000 A 
BRANCH  18  25
ATOM     24  C   UNL     1       7.623   5.188  13.491  0.00  0.00    +0.000 C 
ATOM     25  O   UNL     1       7.647   5.662  14.833  0.00  0.00    +0.000 OA
ENDBRANCH  18  25
ENDBRANCH  16  21
BRANCH  16  26
ATOM     26  O   UNL     1       5.136   2.631  19.776  0.00  0.00    +0.000 OA
ATOM     27  H   UNL     1       5.451   1.777  19.448  0.00  0.00    +0.000 HD
ENDBRANCH  16  26
ENDBRANCH   1  16
TORSDOF 7
ENDMDL
MODEL 4
REMARK VINA RESULT:      -8.0      2.523      7.984
REMARK  Name = 
REMARK  9 active torsions:
REMARK  status: ('A' for Active; 'I' for Inactive)
REMARK    1  A    between atoms: C_1  and  O_2
REMARK    2  A    between atoms: O_2  and  C_3
REMARK    3  A    between atoms: C_6  and  C_7
REMARK    4  A    between atoms: C_7  and  C_8
REMARK    5  A    between atoms: C_7  and  O_9
REMARK    6  A    between atoms: C_7  and  C_10
REMARK    7  A    between atoms: C_12  and  C_13
REMARK    8  A    between atoms: C_17  and  C_18
REMARK    9  A    between atoms: C_18  and  O_20
REMARK                            x       y       z     vdW  Elec       q    Type
REMARK                         _______ _______ _______ _____ _____    ______ ____
ROOT
ATOM      1  C   UNL     1       3.280   4.151  19.387  0.00  0.00    +0.000 A 
ATOM      2  N   UNL     1       3.053   5.339  18.851  0.00  0.00    +0.000 NA
ATOM      3  C   UNL     1       2.285   6.121  19.699  0.00  0.00    +0.000 A 
ATOM      4  C   UNL     1       1.886   5.496  20.860  0.00  0.00    +0.000 A 
ATOM      5  S   UNL     1       2.490   3.894  20.901  0.00  0.00    +0.000 S 
ENDROOT
BRANCH   3   6
ATOM      6  C   UNL     1       1.985   7.503  19.344  0.00  0.00    +0.000 A 
ATOM      7  C   UNL     1       2.275   8.028  18.078  0.00  0.00    +0.000 A 
ATOM      8  C   UNL     1       1.991   9.366  17.786  0.00  0.00    +0.000 A 
ATOM      9  C   UNL     1       1.426  10.188  18.760  0.00  0.00    +0.000 A 
ATOM     10  C   UNL     1       1.132   9.681  20.031  0.00  0.00    +0.000 A 
ATOM     11  C   UNL     1       1.395   8.335  20.312  0.00  0.00    +0.000 A 
BRANCH  10  12
ATOM     12  C   UNL     1       0.504  10.594  21.021  0.00  0.00    +0.000 C 
ATOM     13  O   UNL     1      -0.578  10.358  21.532  0.00  0.00    +0.000 OA
BRANCH  12  14
ATOM     14  O   UNL     1       1.200  11.721  21.271  0.00  0.00    +0.000 OA
ATOM     15  H   UNL     1       2.083  11.597  21.663  0.00  0.00    +0.000 HD
ENDBRANCH  12  14
ENDBRANCH  10  12
ENDBRANCH   3   6
BRANCH   1  16
ATOM     16  C   UNL     1       4.198   3.109  18.754  0.00  0.00    +0.000 C 
ATOM     17  C   UNL     1       3.360   1.965  18.159  0.00  0.00    +0.000 C 
BRANCH  16  21
ATOM     18  C   UNL     1       6.831   5.105  15.897  0.00  0.00    +0.000 A 
ATOM     19  C   UNL     1       5.754   4.345  15.444  0.00  0.00    +0.000 A 
ATOM     20  C   UNL     1       4.906   3.702  16.349  0.00  0.00    +0.000 A 
ATOM     21  C   UNL     1       5.132   3.779  17.734  0.00  0.00    +0.000 A 
ATOM     22  C   UNL     1       6.219   4.558  18.173  0.00  0.00    +0.000 A 
ATOM     23  C   UNL     1       7.064   5.207  17.265  0.00  0.00    +0.000 A 
BRANCH  18  25
ATOM     24  C   UNL     1       7.454   5.103  13.619  0.00  0.00    +0.000 C 
ATOM     25  O   UNL     1       7.596   5.671  14.916  0.00  0.00    +0.000 OA
ENDBRANCH  18  25
ENDBRANCH  16  21
BRANCH  16  26
ATOM     26  O   UNL     1       5.000   2.487  19.776  0.00  0.00    +0.000 OA
ATOM     27  H   UNL     1       4.393   2.225  20.482  0.00  0.00    +0.000 HD
ENDBRANCH  16  26
ENDBRANCH   1  16
TORSDOF 7
ENDMDL
MODEL 5
REMARK VINA RESULT:      -8.0      0.529      1.267
REMARK  Name = 
REMARK  9 active torsions:
REMARK  status: ('A' for Active; 'I' for Inactive)
REMARK    1  A    between atoms: C_1  and  O_2
REMARK    2  A    between atoms: O_2  and  C_3
REMARK    3  A    between atoms: C_6  and  C_7
REMARK    4  A    between atoms: C_7  and  C_8
REMARK    5  A    between atoms: C_7  and  O_9
REMARK    6  A    between atoms: C_7  and  C_10
REMARK    7  A    between atoms: C_12  and  C_13
REMARK    8  A    between atoms: C_17  and  C_18
REMARK    9  A    between atoms: C_18  and  O_20
REMARK                            x       y       z     vdW  Elec       q    Type
REMARK                         _______ _______ _______ _____ _____    ______ ____
ROOT
ATOM      1  C   UNL     1       4.840   4.446  17.715  0.00  0.00    +0.000 A 
ATOM      2  N   UNL     1       4.921   4.376  16.397  0.00  0.00    +0.000 NA
ATOM      3  C   UNL     1       6.223   4.589  15.973  0.00  0.00    +0.000 A 
ATOM      4  C   UNL     1       7.119   4.876  16.979  0.00  0.00    +0.000 A 
ATOM      5  S   UNL     1       6.321   4.872  18.495  0.00  0.00    +0.000 S 
ENDROOT
BRANCH   3   6
ATOM      6  C   UNL     1       6.557   4.473  14.558  0.00  0.00    +0.000 A 
ATOM      7  C   UNL     1       7.544   5.265  13.958  0.00  0.00    +0.000 A 
ATOM      8  C   UNL     1       7.818   5.138  12.593  0.00  0.00    +0.000 A 
ATOM      9  C   UNL     1       7.101   4.227  11.819  0.00  0.00    +0.000 A 
ATOM     10  C   UNL     1       6.109   3.430  12.401  0.00  0.00    +0.000 A 
ATOM     11  C   UNL     1       5.854   3.542  13.774  0.00  0.00    +0.000 A 
BRANCH  10  12
ATOM     12  C   UNL     1       5.395   2.455  11.536  0.00  0.00    +0.000 C 
ATOM     13  O   UNL     1       5.892   1.393  11.200  0.00  0.00    +0.000 OA
BRANCH  12  14
ATOM     14  O   UNL     1       4.180   2.859  11.114  0.00  0.00    +0.000 OA
ATOM     15  H   UNL     1       3.491   2.921  11.800  0.00  0.00    +0.000 HD
ENDBRANCH  12  14
ENDBRANCH  10  12
ENDBRANCH   3   6
BRANCH   1  16
ATOM     16  C   UNL     1       3.565   4.132  18.494  0.00  0.00    +0.000 C 
ATOM     17  C   UNL     1       3.860   3.094  19.588  0.00  0.00    +0.000 C 
BRANCH  16  21
ATOM     18  C   UNL     1       1.708   7.776  20.028  0.00  0.00    +0.000 A 
ATOM     19  C   UNL     1       2.354   7.786  18.793  0.00  0.00    +0.000 A 
ATOM     20  C   UNL     1       2.951   6.626  18.293  0.00  0.00    +0.000 A 
ATOM     21  C   UNL     1       2.944   5.431  19.032  0.00  0.00    +0.000 A 
ATOM     22  C   UNL     1       2.279   5.437  20.273  0.00  0.00    +0.000 A 
ATOM     23  C   UNL     1       1.675   6.599  20.770  0.00  0.00    +0.000 A 
BRANCH  18  25
ATOM     24  C   UNL     1       0.637   9.012  21.732  0.00  0.00    +0.000 C 
ATOM     25  O   UNL     1       1.177   8.974  20.416  0.00  0.00    +0.000 OA
ENDBRANCH  18  25
ENDBRANCH  16  21
BRANCH  16  26
ATOM     26  O   UNL     1       2.613   3.492  17.623  0.00  0.00    +0.000 OA
ATOM     27  H   UNL     1       2.393   4.134  16.934  0.00  0.00    +0.000 HD
ENDBRANCH  16  26
ENDBRANCH   1  16
TORSDOF 7
ENDMDL
MODEL 6
REMARK VINA RESULT:      -7.9      5.018      7.457
REMARK  Name = 
REMARK  9 active torsions:
REMARK  status: ('A' for Active; 'I' for Inactive)
REMARK    1  A    between atoms: C_1  and  O_2
REMARK    2  A    between atoms: O_2  and  C_3
REMARK    3  A    between atoms: C_6  and  C_7
REMARK    4  A    between atoms: C_7  and  C_8
REMARK    5  A    between atoms: C_7  and  O_9
REMARK    6  A    between atoms: C_7  and  C_10
REMARK    7  A    between atoms: C_12  and  C_13
REMARK    8  A    between atoms: C_17  and  C_18
REMARK    9  A    between atoms: C_18  and  O_20
REMARK                            x       y       z     vdW  Elec       q    Type
REMARK                         _______ _______ _______ _____ _____    ______ ____
ROOT
ATOM      1  C   UNL     1       6.748   6.582  17.174  0.00  0.00    +0.000 A 
ATOM      2  N   UNL     1       6.971   7.885  17.170  0.00  0.00    +0.000 NA
ATOM      3  C   UNL     1       7.926   8.223  18.116  0.00  0.00    +0.000 A 
ATOM      4  C   UNL     1       8.385   7.169  18.876  0.00  0.00    +0.000 A 
ATOM      5  S   UNL     1       7.614   5.718  18.393  0.00  0.00    +0.000 S 
ENDROOT
BRANCH   3   6
ATOM      6  C   UNL     1       8.389   9.602  18.226  0.00  0.00    +0.000 A 
ATOM      7  C   UNL     1       7.954  10.606  17.353  0.00  0.00    +0.000 A 
ATOM      8  C   UNL     1       8.440  11.911  17.479  0.00  0.00    +0.000 A 
ATOM      9  C   UNL     1       9.370  12.216  18.472  0.00  0.00    +0.000 A 
ATOM     10  C   UNL     1       9.819  11.224  19.351  0.00  0.00    +0.000 A 
ATOM     11  C   UNL     1       9.311   9.924  19.237  0.00  0.00    +0.000 A 
BRANCH  10  12
ATOM     12  C   UNL     1      10.789  11.611  20.408  0.00  0.00    +0.000 C 
ATOM     13  O   UNL     1      11.995  11.577  20.231  0.00  0.00    +0.000 OA
BRANCH  12  14
ATOM     14  O   UNL     1      10.232  11.953  21.587  0.00  0.00    +0.000 OA
ATOM     15  H   UNL     1      10.461  11.386  22.345  0.00  0.00    +0.000 HD
ENDBRANCH  12  14
ENDBRANCH  10  12
ENDBRANCH   3   6
BRANCH   1  16
ATOM     16  C   UNL     1       5.842   5.885  16.162  0.00  0.00    +0.000 C 
ATOM     17  C   UNL     1       6.639   4.821  15.390  0.00  0.00    +0.000 C 
BRANCH  16  21
ATOM     18  C   UNL     1       2.265   4.266  18.075  0.00  0.00    +0.000 A 
ATOM     19  C   UNL     1       2.572   5.620  18.196  0.00  0.00    +0.000 A 
ATOM     20  C   UNL     1       3.714   6.149  17.588  0.00  0.00    +0.000 A 
ATOM     21  C   UNL     1       4.596   5.326  16.867  0.00  0.00    +0.000 A 
ATOM     22  C   UNL     1       4.266   3.964  16.748  0.00  0.00    +0.000 A 
ATOM     23  C   UNL     1       3.117   3.437  17.352  0.00  0.00    +0.000 A 
BRANCH  18  25
ATOM     24  C   UNL     1       1.138   4.045  20.138  0.00  0.00    +0.000 C 
ATOM     25  O   UNL     1       1.131   3.867  18.726  0.00  0.00    +0.000 OA
ENDBRANCH  18  25
ENDBRANCH  16  21
BRANCH  16  26
ATOM     26  O   UNL     1       5.421   6.830  15.160  0.00  0.00    +0.000 OA
ATOM     27  H   UNL     1       5.787   6.523  14.319  0.00  0.00    +0.000 HD
ENDBRANCH  16  26
ENDBRANCH   1  16
TORSDOF 7
ENDMDL
MODEL 7
REMARK VINA RESULT:      -7.9      3.910      8.395
REMARK  Name = 
REMARK  9 active torsions:
REMARK  status: ('A' for Active; 'I' for Inactive)
REMARK    1  A    between atoms: C_1  and  O_2
REMARK    2  A    between atoms: O_2  and  C_3
REMARK    3  A    between atoms: C_6  and  C_7
REMARK    4  A    between atoms: C_7  and  C_8
REMARK    5  A    between atoms: C_7  and  O_9
REMARK    6  A    between atoms: C_7  and  C_10
REMARK    7  A    between atoms: C_12  and  C_13
REMARK    8  A    between atoms: C_17  and  C_18
REMARK    9  A    between atoms: C_18  and  O_20
REMARK                            x       y       z     vdW  Elec       q    Type
REMARK                         _______ _______ _______ _____ _____    ______ ____
ROOT
ATOM      1  C   UNL     1       3.476   4.718  19.378  0.00  0.00    +0.000 A 
ATOM      2  N   UNL     1       3.103   5.979  19.243  0.00  0.00    +0.000 NA
ATOM      3  C   UNL     1       2.084   6.287  20.131  0.00  0.00    +0.000 A 
ATOM      4  C   UNL     1       1.651   5.230  20.903  0.00  0.00    +0.000 A 
ATOM      5  S   UNL     1       2.542   3.819  20.519  0.00  0.00    +0.000 S 
ENDROOT
BRANCH   3   6
ATOM      6  C   UNL     1       1.576   7.651  20.215  0.00  0.00    +0.000 A 
ATOM      7  C   UNL     1       1.635   8.536  19.131  0.00  0.00    +0.000 A 
ATOM      8  C   UNL     1       1.157   9.843  19.260  0.00  0.00    +0.000 A 
ATOM      9  C   UNL     1       0.626  10.275  20.475  0.00  0.00    +0.000 A 
ATOM     10  C   UNL     1       0.563   9.406  21.569  0.00  0.00    +0.000 A 
ATOM     11  C   UNL     1       1.020   8.090  21.429  0.00  0.00    +0.000 A 
BRANCH  10  12
ATOM     12  C   UNL     1      -0.038   9.911  22.831  0.00  0.00    +0.000 C 
ATOM     13  O   UNL     1       0.398   9.607  23.929  0.00  0.00    +0.000 OA
BRANCH  12  14
ATOM     14  O   UNL     1      -1.127  10.687  22.667  0.00  0.00    +0.000 OA
ATOM     15  H   UNL     1      -1.383  11.228  23.436  0.00  0.00    +0.000 HD
ENDBRANCH  12  14
ENDBRANCH  10  12
ENDBRANCH   3   6
BRANCH   1  16
ATOM     16  C   UNL     1       4.660   4.111  18.628  0.00  0.00    +0.000 C 
ATOM     17  C   UNL     1       4.157   3.294  17.427  0.00  0.00    +0.000 C 
BRANCH  16  21
ATOM     18  C   UNL     1       7.497   7.280  17.634  0.00  0.00    +0.000 A 
ATOM     19  C   UNL     1       6.325   7.132  16.895  0.00  0.00    +0.000 A 
ATOM     20  C   UNL     1       5.411   6.122  17.204  0.00  0.00    +0.000 A 
ATOM     21  C   UNL     1       5.662   5.212  18.245  0.00  0.00    +0.000 A 
ATOM     22  C   UNL     1       6.846   5.382  18.986  0.00  0.00    +0.000 A 
ATOM     23  C   UNL     1       7.758   6.399  18.679  0.00  0.00    +0.000 A 
BRANCH  18  25
ATOM     24  C   UNL     1       8.387   9.418  18.094  0.00  0.00    +0.000 C 
ATOM     25  O   UNL     1       8.318   8.293  17.225  0.00  0.00    +0.000 OA
ENDBRANCH  18  25
ENDBRANCH  16  21
BRANCH  16  26
ATOM     26  O   UNL     1       5.327   3.154  19.473  0.00  0.00    +0.000 OA
ATOM     27  H   UNL     1       4.747   3.004  20.233  0.00  0.00    +0.000 HD
ENDBRANCH  16  26
ENDBRANCH   1  16
TORSDOF 7
ENDMDL
MODEL 8
REMARK VINA RESULT:      -7.7      1.782      8.338
REMARK  Name = 
REMARK  9 active torsions:
REMARK  status: ('A' for Active; 'I' for Inactive)
REMARK    1  A    between atoms: C_1  and  O_2
REMARK    2  A    between atoms: O_2  and  C_3
REMARK    3  A    between atoms: C_6  and  C_7
REMARK    4  A    between atoms: C_7  and  C_8
REMARK    5  A    between atoms: C_7  and  O_9
REMARK    6  A    between atoms: C_7  and  C_10
REMARK    7  A    between atoms: C_12  and  C_13
REMARK    8  A    between atoms: C_17  and  C_18
REMARK    9  A    between atoms: C_18  and  O_20
REMARK                            x       y       z     vdW  Elec       q    Type
REMARK                         _______ _______ _______ _____ _____    ______ ____
ROOT
ATOM      1  C   UNL     1       5.324   5.657  17.821  0.00  0.00    +0.000 A 
ATOM      2  N   UNL     1       4.520   6.706  17.781  0.00  0.00    +0.000 NA
ATOM      3  C   UNL     1       3.454   6.542  18.651  0.00  0.00    +0.000 A 
ATOM      4  C   UNL     1       3.428   5.332  19.311  0.00  0.00    +0.000 A 
ATOM      5  S   UNL     1       4.772   4.379  18.843  0.00  0.00    +0.000 S 
ENDROOT
BRANCH   3   6
ATOM      6  C   UNL     1       2.486   7.617  18.831  0.00  0.00    +0.000 A 
ATOM      7  C   UNL     1       2.131   8.483  17.789  0.00  0.00    +0.000 A 
ATOM      8  C   UNL     1       1.215   9.516  18.011  0.00  0.00    +0.000 A 
ATOM      9  C   UNL     1       0.658   9.695  19.276  0.00  0.00    +0.000 A 
ATOM     10  C   UNL     1       1.004   8.842  20.330  0.00  0.00    +0.000 A 
ATOM     11  C   UNL     1       1.902   7.793  20.098  0.00  0.00    +0.000 A 
BRANCH  10  12
ATOM     12  C   UNL     1       0.358   9.061  21.650  0.00  0.00    +0.000 C 
ATOM     13  O   UNL     1       0.767   9.889  22.447  0.00  0.00    +0.000 OA
BRANCH  12  14
ATOM     14  O   UNL     1      -0.680   8.242  21.914  0.00  0.00    +0.000 OA
ATOM     15  H   UNL     1      -1.540   8.515  21.548  0.00  0.00    +0.000 HD
ENDBRANCH  12  14
ENDBRANCH  10  12
ENDBRANCH   3   6
BRANCH   1  16
ATOM     16  C   UNL     1       6.651   5.591  17.069  0.00  0.00    +0.000 C 
ATOM     17  C   UNL     1       7.710   4.888  17.935  0.00  0.00    +0.000 C 
BRANCH  16  21
ATOM     18  C   UNL     1       6.073   3.813  13.122  0.00  0.00    +0.000 A 
ATOM     19  C   UNL     1       5.124   3.618  14.124  0.00  0.00    +0.000 A 
ATOM     20  C   UNL     1       5.299   4.182  15.390  0.00  0.00    +0.000 A 
ATOM     21  C   UNL     1       6.447   4.933  15.696  0.00  0.00    +0.000 A 
ATOM     22  C   UNL     1       7.391   5.126  14.670  0.00  0.00    +0.000 A 
ATOM     23  C   UNL     1       7.211   4.566  13.399  0.00  0.00    +0.000 A 
BRANCH  18  25
ATOM     24  C   UNL     1       4.436   3.231  11.523  0.00  0.00    +0.000 C 
ATOM     25  O   UNL     1       5.798   3.198  11.932  0.00  0.00    +0.000 OA
ENDBRANCH  18  25
ENDBRANCH  16  21
BRANCH  16  26
ATOM     26  O   UNL     1       7.161   6.924  16.871  0.00  0.00    +0.000 OA
ATOM     27  H   UNL     1       8.012   6.965  17.330  0.00  0.00    +0.000 HD
ENDBRANCH  16  26
ENDBRANCH   1  16
TORSDOF 7
ENDMDL
MODEL 9
REMARK VINA RESULT:      -7.6      3.692      7.613
REMARK  Name = 
REMARK  9 active torsions:
REMARK  status: ('A' for Active; 'I' for Inactive)
REMARK    1  A    between atoms: C_1  and  O_2
REMARK    2  A    between atoms: O_2  and  C_3
REMARK    3  A    between atoms: C_6  and  C_7
REMARK    4  A    between atoms: C_7  and  C_8
REMARK    5  A    between atoms: C_7  and  O_9
REMARK    6  A    between atoms: C_7  and  C_10
REMARK    7  A    between atoms: C_12  and  C_13
REMARK    8  A    between atoms: C_17  and  C_18
REMARK    9  A    between atoms: C_18  and  O_20
REMARK                            x       y       z     vdW  Elec       q    Type
REMARK                         _______ _______ _______ _____ _____    ______ ____
ROOT
ATOM      1  C   UNL     1       3.356   4.168  19.471  0.00  0.00    +0.000 A 
ATOM      2  N   UNL     1       2.981   5.430  19.353  0.00  0.00    +0.000 NA
ATOM      3  C   UNL     1       2.040   5.756  20.318  0.00  0.00    +0.000 A 
ATOM      4  C   UNL     1       1.665   4.711  21.134  0.00  0.00    +0.000 A 
ATOM      5  S   UNL     1       2.512   3.289  20.695  0.00  0.00    +0.000 S 
ENDROOT
BRANCH   3   6
ATOM      6  C   UNL     1       1.549   7.124  20.426  0.00  0.00    +0.000 A 
ATOM      7  C   UNL     1       0.857   7.581  21.555  0.00  0.00    +0.000 A 
ATOM      8  C   UNL     1       0.384   8.895  21.609  0.00  0.00    +0.000 A 
ATOM      9  C   UNL     1       0.590   9.756  20.532  0.00  0.00    +0.000 A 
ATOM     10  C   UNL     1       1.277   9.316  19.394  0.00  0.00    +0.000 A 
ATOM     11  C   UNL     1       1.771   8.007  19.355  0.00  0.00    +0.000 A 
BRANCH  10  12
ATOM     12  C   UNL     1       1.493  10.284  18.288  0.00  0.00    +0.000 C 
ATOM     13  O   UNL     1       2.372  10.138  17.455  0.00  0.00    +0.000 OA
BRANCH  12  14
ATOM     14  O   UNL     1       0.676  11.356  18.308  0.00  0.00    +0.000 OA
ATOM     15  H   UNL     1       0.958  12.094  18.878  0.00  0.00    +0.000 HD
ENDBRANCH  12  14
ENDBRANCH  10  12
ENDBRANCH   3   6
BRANCH   1  16
ATOM     16  C   UNL     1       4.470   3.544  18.634  0.00  0.00    +0.000 C 
ATOM     17  C   UNL     1       3.865   2.739  17.473  0.00  0.00    +0.000 C 
BRANCH  16  21
ATOM     18  C   UNL     1       7.244   6.690  17.416  0.00  0.00    +0.000 A 
ATOM     19  C   UNL     1       6.287   6.216  16.522  0.00  0.00    +0.000 A 
ATOM     20  C   UNL     1       5.394   5.210  16.901  0.00  0.00    +0.000 A 
ATOM     21  C   UNL     1       5.458   4.630  18.179  0.00  0.00    +0.000 A 
ATOM     22  C   UNL     1       6.426   5.126  19.072  0.00  0.00    +0.000 A 
ATOM     23  C   UNL     1       7.315   6.139  18.693  0.00  0.00    +0.000 A 
BRANCH  18  25
ATOM     24  C   UNL     1       8.183   8.836  17.722  0.00  0.00    +0.000 C 
ATOM     25  O   UNL     1       8.069   7.663  16.924  0.00  0.00    +0.000 OA
ENDBRANCH  18  25
ENDBRANCH  16  21
BRANCH  16  26
ATOM     26  O   UNL     1       5.182   2.574  19.425  0.00  0.00    +0.000 OA
ATOM     27  H   UNL     1       5.994   3.005  19.727  0.00  0.00    +0.000 HD
ENDBRANCH  16  26
ENDBRANCH   1  16
TORSDOF 7
ENDMDL
