MODEL 1
REMARK VINA RESULT:      -8.3      0.000      0.000
REMARK  Name = 
REMARK  5 active torsions:
REMARK  status: ('A' for Active; 'I' for Inactive)
REMARK    1  A    between atoms: C_5  and  O_6
REMARK    2  A    between atoms: O_6  and  C_7
REMARK    3  A    between atoms: C_7  and  C_8
REMARK    4  A    between atoms: C_8  and  C_9
REMARK    5  A    between atoms: C_9  and  N_10
REMARK                            x       y       z     vdW  Elec       q    Type
REMARK                         _______ _______ _______ _____ _____    ______ ____
ROOT
ATOM      1  N   UNL     1       3.707   6.898  18.034  0.00  0.00    +0.000 N 
ATOM      2  C   UNL     1       4.730   6.367  17.267  0.00  0.00    +0.000 A 
ATOM      3  C   UNL     1       4.425   5.025  17.123  0.00  0.00    +0.000 A 
ATOM      4  C   UNL     1       3.086   4.862  17.537  0.00  0.00    +0.000 A 
ATOM      5  C   UNL     1       2.197   3.781  17.539  0.00  0.00    +0.000 A 
ATOM      6  C   UNL     1       1.600   3.465  18.746  0.00  0.00    +0.000 A 
ATOM      7 CL   UNL     1       0.584   2.074  18.845  0.00  0.00    +0.000 Cl
ATOM      8  C   UNL     1       1.887   4.208  19.901  0.00  0.00    +0.000 A 
ATOM      9  C   UNL     1       2.561   5.429  19.828  0.00  0.00    +0.000 A 
ATOM     10  C   UNL     1       3.033   5.804  18.563  0.00  0.00    +0.000 A 
ATOM     11  C   UNL     1       5.479   4.008  16.950  0.00  0.00    +0.000 C 
ATOM     12  C   UNL     1       6.869   4.671  17.110  0.00  0.00    +0.000 C 
ATOM     13  N   UNL     1       7.033   6.000  16.482  0.00  0.00    +0.000 NA
ATOM     14  C   UNL     1       6.008   6.998  16.850  0.00  0.00    +0.000 C 
ATOM     15  H   UNL     1       6.993   5.872  15.470  0.00  0.00    +0.000 HD
ENDROOT
BRANCH   1  16
ATOM     16  C   UNL     1       3.086   8.184  17.724  0.00  0.00    +0.000 C 
BRANCH  16  17
ATOM     17  C   UNL     1       1.842   8.604  18.509  0.00  0.00    +0.000 C 
BRANCH  17  18
ATOM     18  C   UNL     1       1.371  10.015  18.218  0.00  0.00    +0.000 C 
BRANCH  18  19
ATOM     19  O   UNL     1       0.299  10.315  19.122  0.00  0.00    +0.000 OA
BRANCH  19  24
ATOM     20 CL   UNL     1      -5.047  11.589  16.999  0.00  0.00    +0.000 Cl
ATOM     21  C   UNL     1      -3.485  11.194  17.601  0.00  0.00    +0.000 A 
ATOM     22  C   UNL     1      -2.999  11.812  18.745  0.00  0.00    +0.000 A 
ATOM     23  C   UNL     1      -1.733  11.484  19.222  0.00  0.00    +0.000 A 
ATOM     24  C   UNL     1      -0.938  10.541  18.575  0.00  0.00    +0.000 A 
ATOM     25  C   UNL     1      -1.423   9.930  17.415  0.00  0.00    +0.000 A 
ATOM     26  C   UNL     1      -2.698  10.262  16.926  0.00  0.00    +0.000 A 
ENDBRANCH  19  24
ENDBRANCH  18  19
ENDBRANCH  17  18
ENDBRANCH  16  17
ENDBRANCH   1  16
TORSDOF 5
ENDMDL
MODEL 2
REMARK VINA RESULT:      -8.2      2.135      2.612
REMARK  Name = 
REMARK  5 active torsions:
REMARK  status: ('A' for Active; 'I' for Inactive)
REMARK    1  A    between atoms: C_5  and  O_6
REMARK    2  A    between atoms: O_6  and  C_7
REMARK    3  A    between atoms: C_7  and  C_8
REMARK    4  A    between atoms: C_8  and  C_9
REMARK    5  A    between atoms: C_9  and  N_10
REMARK                            x       y       z     vdW  Elec       q    Type
REMARK                         _______ _______ _______ _____ _____    ______ ____
ROOT
ATOM      1  N   UNL     1       3.643   7.014  18.128  0.00  0.00    +0.000 N 
ATOM      2  C   UNL     1       4.632   6.456  17.334  0.00  0.00    +0.000 A 
ATOM      3  C   UNL     1       4.278   5.127  17.182  0.00  0.00    +0.000 A 
ATOM      4  C   UNL     1       2.943   5.005  17.622  0.00  0.00    +0.000 A 
ATOM      5  C   UNL     1       2.017   3.955  17.630  0.00  0.00    +0.000 A 
ATOM      6  C   UNL     1       1.435   3.646  18.845  0.00  0.00    +0.000 A 
ATOM      7 CL   UNL     1       0.374   2.290  18.951  0.00  0.00    +0.000 Cl
ATOM      8  C   UNL     1       1.770   4.366  20.003  0.00  0.00    +0.000 A 
ATOM      9  C   UNL     1       2.485   5.563  19.928  0.00  0.00    +0.000 A 
ATOM     10  C   UNL     1       2.943   5.937  18.658  0.00  0.00    +0.000 A 
ATOM     11  C   UNL     1       5.293   4.077  16.976  0.00  0.00    +0.000 C 
ATOM     12  C   UNL     1       6.708   4.690  17.114  0.00  0.00    +0.000 C 
ATOM     13  N   UNL     1       6.904   6.020  16.497  0.00  0.00    +0.000 NA
ATOM     14  C   UNL     1       5.922   7.049  16.897  0.00  0.00    +0.000 C 
ATOM     15  H   UNL     1       6.840   5.905  15.485  0.00  0.00    +0.000 HD
ENDROOT
BRANCH   1  16
ATOM     16  C   UNL     1       3.060   8.323  17.844  0.00  0.00    +0.000 C 
BRANCH  16  17
ATOM     17  C   UNL     1       1.538   8.443  17.760  0.00  0.00    +0.000 C 
BRANCH  17  18
ATOM     18  C   UNL     1       0.963   9.606  18.546  0.00  0.00    +0.000 C 
BRANCH  18  19
ATOM     19  O   UNL     1       1.271   9.395  19.931  0.00  0.00    +0.000 OA
BRANCH  19  24
ATOM     20 CL   UNL     1      -2.509  12.014  23.613  0.00  0.00    +0.000 Cl
ATOM     21  C   UNL     1      -1.394  11.235  22.560  0.00  0.00    +0.000 A 
ATOM     22  C   UNL     1      -1.216  11.696  21.263  0.00  0.00    +0.000 A 
ATOM     23  C   UNL     1      -0.312  11.056  20.420  0.00  0.00    +0.000 A 
ATOM     24  C   UNL     1       0.427   9.958  20.853  0.00  0.00    +0.000 A 
ATOM     25  C   UNL     1       0.237   9.485  22.155  0.00  0.00    +0.000 A 
ATOM     26  C   UNL     1      -0.680  10.124  23.008  0.00  0.00    +0.000 A 
ENDBRANCH  19  24
ENDBRANCH  18  19
ENDBRANCH  17  18
ENDBRANCH  16  17
ENDBRANCH   1  16
TORSDOF 5
ENDMDL
MODEL 3
REMARK VINA RESULT:      -8.1      2.065      2.506
REMARK  Name = 
REMARK  5 active torsions:
REMARK  status: ('A' for Active; 'I' for Inactive)
REMARK    1  A    between atoms: C_5  and  O_6
REMARK    2  A    between atoms: O_6  and  C_7
REMARK    3  A    between atoms: C_7  and  C_8
REMARK    4  A    between atoms: C_8  and  C_9
REMARK    5  A    between atoms: C_9  and  N_10
REMARK                            x       y       z     vdW  Elec       q    Type
REMARK                         _______ _______ _______ _____ _____    ______ ____
ROOT
ATOM      1  N   UNL     1       3.772   6.963  18.010  0.00  0.00    +0.000 N 
ATOM      2  C   UNL     1       4.790   6.398  17.261  0.00  0.00    +0.000 A 
ATOM      3  C   UNL     1       4.459   5.060  17.136  0.00  0.00    +0.000 A 
ATOM      4  C   UNL     1       3.113   4.932  17.541  0.00  0.00    +0.000 A 
ATOM      5  C   UNL     1       2.202   3.869  17.553  0.00  0.00    +0.000 A 
ATOM      6  C   UNL     1       1.589   3.586  18.759  0.00  0.00    +0.000 A 
ATOM      7 CL   UNL     1       0.544   2.218  18.873  0.00  0.00    +0.000 Cl
ATOM      8  C   UNL     1       1.882   4.341  19.905  0.00  0.00    +0.000 A 
ATOM      9  C   UNL     1       2.582   5.546  19.817  0.00  0.00    +0.000 A 
ATOM     10  C   UNL     1       3.072   5.892  18.551  0.00  0.00    +0.000 A 
ATOM     11  C   UNL     1       5.493   4.019  16.988  0.00  0.00    +0.000 C 
ATOM     12  C   UNL     1       6.895   4.656  17.149  0.00  0.00    +0.000 C 
ATOM     13  N   UNL     1       7.091   5.971  16.501  0.00  0.00    +0.000 NA
ATOM     14  C   UNL     1       6.085   6.996  16.844  0.00  0.00    +0.000 C 
ATOM     15  H   UNL     1       7.058   5.827  15.491  0.00  0.00    +0.000 HD
ENDROOT
BRANCH   1  16
ATOM     16  C   UNL     1       3.180   8.256  17.674  0.00  0.00    +0.000 C 
BRANCH  16  17
ATOM     17  C   UNL     1       1.688   8.466  17.934  0.00  0.00    +0.000 C 
BRANCH  17  18
ATOM     18  C   UNL     1       1.375   9.640  18.842  0.00  0.00    +0.000 C 
BRANCH  18  19
ATOM     19  O   UNL     1       0.815   9.119  20.055  0.00  0.00    +0.000 OA
BRANCH  19  24
ATOM     20 CL   UNL     1      -2.506  12.565  23.491  0.00  0.00    +0.000 Cl
ATOM     21  C   UNL     1      -1.549  11.571  22.464  0.00  0.00    +0.000 A 
ATOM     22  C   UNL     1      -0.829  10.508  22.992  0.00  0.00    +0.000 A 
ATOM     23  C   UNL     1      -0.058   9.710  22.151  0.00  0.00    +0.000 A 
ATOM     24  C   UNL     1       0.006   9.955  20.781  0.00  0.00    +0.000 A 
ATOM     25  C   UNL     1      -0.708  11.034  20.253  0.00  0.00    +0.000 A 
ATOM     26  C   UNL     1      -1.483  11.845  21.099  0.00  0.00    +0.000 A 
ENDBRANCH  19  24
ENDBRANCH  18  19
ENDBRANCH  17  18
ENDBRANCH  16  17
ENDBRANCH   1  16
TORSDOF 5
ENDMDL
MODEL 4
REMARK VINA RESULT:      -8.1      2.225      3.826
REMARK  Name = 
REMARK  5 active torsions:
REMARK  status: ('A' for Active; 'I' for Inactive)
REMARK    1  A    between atoms: C_5  and  O_6
REMARK    2  A    between atoms: O_6  and  C_7
REMARK    3  A    between atoms: C_7  and  C_8
REMARK    4  A    between atoms: C_8  and  C_9
REMARK    5  A    between atoms: C_9  and  N_10
REMARK                            x       y       z     vdW  Elec       q    Type
REMARK                         _______ _______ _______ _____ _____    ______ ____
ROOT
ATOM      1  N   UNL     1       2.512   6.091  19.204  0.00  0.00    +0.000 N 
ATOM      2  C   UNL     1       2.160   4.933  19.878  0.00  0.00    +0.000 A 
ATOM      3  C   UNL     1       3.260   4.099  19.780  0.00  0.00    +0.000 A 
ATOM      4  C   UNL     1       4.337   4.892  19.328  0.00  0.00    +0.000 A 
ATOM      5  C   UNL     1       5.700   4.650  19.125  0.00  0.00    +0.000 A 
ATOM      6  C   UNL     1       6.209   4.950  17.875  0.00  0.00    +0.000 A 
ATOM      7 CL   UNL     1       7.853   4.569  17.520  0.00  0.00    +0.000 Cl
ATOM      8  C   UNL     1       5.378   5.472  16.872  0.00  0.00    +0.000 A 
ATOM      9  C   UNL     1       4.099   5.949  17.167  0.00  0.00    +0.000 A 
ATOM     10  C   UNL     1       3.655   5.767  18.484  0.00  0.00    +0.000 A 
ATOM     11  C   UNL     1       3.119   2.631  19.783  0.00  0.00    +0.000 C 
ATOM     12  C   UNL     1       1.618   2.256  19.759  0.00  0.00    +0.000 C 
ATOM     13  N   UNL     1       0.728   3.072  20.613  0.00  0.00    +0.000 NA
ATOM     14  C   UNL     1       0.834   4.532  20.415  0.00  0.00    +0.000 C 
ATOM     15  H   UNL     1       0.963   2.873  21.587  0.00  0.00    +0.000 HD
ENDROOT
BRANCH   1  16
ATOM     16  C   UNL     1       2.212   7.421  19.729  0.00  0.00    +0.000 C 
BRANCH  16  17
ATOM     17  C   UNL     1       1.903   8.545  18.738  0.00  0.00    +0.000 C 
BRANCH  17  18
ATOM     18  C   UNL     1       0.932   9.585  19.262  0.00  0.00    +0.000 C 
BRANCH  18  19
ATOM     19  O   UNL     1       0.429  10.321  18.139  0.00  0.00    +0.000 OA
BRANCH  19  24
ATOM     20 CL   UNL     1      -5.398  11.139  17.833  0.00  0.00    +0.000 Cl
ATOM     21  C   UNL     1      -3.694  10.924  17.937  0.00  0.00    +0.000 A 
ATOM     22  C   UNL     1      -3.057   9.979  17.145  0.00  0.00    +0.000 A 
ATOM     23  C   UNL     1      -1.678   9.815  17.239  0.00  0.00    +0.000 A 
ATOM     24  C   UNL     1      -0.916  10.585  18.115  0.00  0.00    +0.000 A 
ATOM     25  C   UNL     1      -1.561  11.527  18.922  0.00  0.00    +0.000 A 
ATOM     26  C   UNL     1      -2.954  11.692  18.835  0.00  0.00    +0.000 A 
ENDBRANCH  19  24
ENDBRANCH  18  19
ENDBRANCH  17  18
ENDBRANCH  16  17
ENDBRANCH   1  16
TORSDOF 5
ENDMDL
MODEL 5
REMARK VINA RESULT:      -7.9      0.652      1.148
REMARK  Name = 
REMARK  5 active torsions:
REMARK  status: ('A' for Active; 'I' for Inactive)
REMARK    1  A    between atoms: C_5  and  O_6
REMARK    2  A    between atoms: O_6  and  C_7
REMARK    3  A    between atoms: C_7  and  C_8
REMARK    4  A    between atoms: C_8  and  C_9
REMARK    5  A    between atoms: C_9  and  N_10
REMARK                            x       y       z     vdW  Elec       q    Type
REMARK                         _______ _______ _______ _____ _____    ______ ____
ROOT
ATOM      1  N   UNL     1       3.211   6.987  18.410  0.00  0.00    +0.000 N 
ATOM      2  C   UNL     1       4.189   6.590  17.513  0.00  0.00    +0.000 A 
ATOM      3  C   UNL     1       3.944   5.250  17.268  0.00  0.00    +0.000 A 
ATOM      4  C   UNL     1       2.657   4.969  17.776  0.00  0.00    +0.000 A 
ATOM      5  C   UNL     1       1.830   3.841  17.750  0.00  0.00    +0.000 A 
ATOM      6  C   UNL     1       1.361   3.382  18.966  0.00  0.00    +0.000 A 
ATOM      7 CL   UNL     1       0.432   1.929  19.018  0.00  0.00    +0.000 Cl
ATOM      8  C   UNL     1       1.710   4.034  20.159  0.00  0.00    +0.000 A 
ATOM      9  C   UNL     1       2.310   5.295  20.146  0.00  0.00    +0.000 A 
ATOM     10  C   UNL     1       2.646   5.811  18.887  0.00  0.00    +0.000 A 
ATOM     11  C   UNL     1       5.030   4.319  16.912  0.00  0.00    +0.000 C 
ATOM     12  C   UNL     1       6.392   5.048  17.017  0.00  0.00    +0.000 C 
ATOM     13  N   UNL     1       6.429   6.435  16.506  0.00  0.00    +0.000 NA
ATOM     14  C   UNL     1       5.390   7.333  17.052  0.00  0.00    +0.000 C 
ATOM     15  H   UNL     1       6.306   6.397  15.493  0.00  0.00    +0.000 HD
ENDROOT
BRANCH   1  16
ATOM     16  C   UNL     1       2.498   8.255  18.277  0.00  0.00    +0.000 C 
BRANCH  16  17
ATOM     17  C   UNL     1       1.551   8.683  19.399  0.00  0.00    +0.000 C 
BRANCH  17  18
ATOM     18  C   UNL     1       0.997  10.085  19.243  0.00  0.00    +0.000 C 
BRANCH  18  19
ATOM     19  O   UNL     1       0.322  10.152  17.979  0.00  0.00    +0.000 OA
BRANCH  19  24
ATOM     20 CL   UNL     1      -5.465  11.257  17.869  0.00  0.00    +0.000 Cl
ATOM     21  C   UNL     1      -3.771  10.959  17.915  0.00  0.00    +0.000 A 
ATOM     22  C   UNL     1      -3.218   9.942  17.150  0.00  0.00    +0.000 A 
ATOM     23  C   UNL     1      -1.846   9.710  17.196  0.00  0.00    +0.000 A 
ATOM     24  C   UNL     1      -1.009  10.485  17.996  0.00  0.00    +0.000 A 
ATOM     25  C   UNL     1      -1.569  11.500  18.777  0.00  0.00    +0.000 A 
ATOM     26  C   UNL     1      -2.954  11.733  18.738  0.00  0.00    +0.000 A 
ENDBRANCH  19  24
ENDBRANCH  18  19
ENDBRANCH  17  18
ENDBRANCH  16  17
ENDBRANCH   1  16
TORSDOF 5
ENDMDL
MODEL 6
REMARK VINA RESULT:      -7.8      3.014      4.454
REMARK  Name = 
REMARK  5 active torsions:
REMARK  status: ('A' for Active; 'I' for Inactive)
REMARK    1  A    between atoms: C_5  and  O_6
REMARK    2  A    between atoms: O_6  and  C_7
REMARK    3  A    between atoms: C_7  and  C_8
REMARK    4  A    between atoms: C_8  and  C_9
REMARK    5  A    between atoms: C_9  and  N_10
REMARK                            x       y       z     vdW  Elec       q    Type
REMARK                         _______ _______ _______ _____ _____    ______ ____
ROOT
ATOM      1  N   UNL     1       2.533   5.987  19.154  0.00  0.00    +0.000 N 
ATOM      2  C   UNL     1       2.190   4.828  19.830  0.00  0.00    +0.000 A 
ATOM      3  C   UNL     1       3.294   3.999  19.727  0.00  0.00    +0.000 A 
ATOM      4  C   UNL     1       4.365   4.798  19.270  0.00  0.00    +0.000 A 
ATOM      5  C   UNL     1       5.728   4.563  19.060  0.00  0.00    +0.000 A 
ATOM      6  C   UNL     1       6.229   4.865  17.808  0.00  0.00    +0.000 A 
ATOM      7 CL   UNL     1       7.874   4.492  17.445  0.00  0.00    +0.000 Cl
ATOM      8  C   UNL     1       5.391   5.383  16.808  0.00  0.00    +0.000 A 
ATOM      9  C   UNL     1       4.111   5.853  17.110  0.00  0.00    +0.000 A 
ATOM     10  C   UNL     1       3.674   5.669  18.429  0.00  0.00    +0.000 A 
ATOM     11  C   UNL     1       3.160   2.531  19.731  0.00  0.00    +0.000 C 
ATOM     12  C   UNL     1       1.660   2.148  19.714  0.00  0.00    +0.000 C 
ATOM     13  N   UNL     1       0.771   2.960  20.572  0.00  0.00    +0.000 NA
ATOM     14  C   UNL     1       0.869   4.421  20.373  0.00  0.00    +0.000 C 
ATOM     15  H   UNL     1       1.012   2.762  21.545  0.00  0.00    +0.000 HD
ENDROOT
BRANCH   1  16
ATOM     16  C   UNL     1       2.228   7.316  19.680  0.00  0.00    +0.000 C 
BRANCH  16  17
ATOM     17  C   UNL     1       2.066   8.473  18.693  0.00  0.00    +0.000 C 
BRANCH  17  18
ATOM     18  C   UNL     1       1.009   9.485  19.091  0.00  0.00    +0.000 C 
BRANCH  18  19
ATOM     19  O   UNL     1       0.693   9.267  20.473  0.00  0.00    +0.000 OA
BRANCH  19  24
ATOM     20 CL   UNL     1      -2.830  12.994  23.374  0.00  0.00    +0.000 Cl
ATOM     21  C   UNL     1      -1.811  11.916  22.502  0.00  0.00    +0.000 A 
ATOM     22  C   UNL     1      -1.165  10.879  23.158  0.00  0.00    +0.000 A 
ATOM     23  C   UNL     1      -0.342  10.013  22.442  0.00  0.00    +0.000 A 
ATOM     24  C   UNL     1      -0.156  10.164  21.070  0.00  0.00    +0.000 A 
ATOM     25  C   UNL     1      -0.796  11.218  20.412  0.00  0.00    +0.000 A 
ATOM     26  C   UNL     1      -1.623  12.098  21.133  0.00  0.00    +0.000 A 
ENDBRANCH  19  24
ENDBRANCH  18  19
ENDBRANCH  17  18
ENDBRANCH  16  17
ENDBRANCH   1  16
TORSDOF 5
ENDMDL
MODEL 7
REMARK VINA RESULT:      -7.8      3.938      7.611
REMARK  Name = 
REMARK  5 active torsions:
REMARK  status: ('A' for Active; 'I' for Inactive)
REMARK    1  A    between atoms: C_5  and  O_6
REMARK    2  A    between atoms: O_6  and  C_7
REMARK    3  A    between atoms: C_7  and  C_8
REMARK    4  A    between atoms: C_8  and  C_9
REMARK    5  A    between atoms: C_9  and  N_10
REMARK                            x       y       z     vdW  Elec       q    Type
REMARK                         _______ _______ _______ _____ _____    ______ ____
ROOT
ATOM      1  N   UNL     1       4.411   5.035  19.331  0.00  0.00    +0.000 N 
ATOM      2  C   UNL     1       3.847   4.014  18.583  0.00  0.00    +0.000 A 
ATOM      3  C   UNL     1       2.807   4.599  17.884  0.00  0.00    +0.000 A 
ATOM      4  C   UNL     1       2.974   5.997  17.992  0.00  0.00    +0.000 A 
ATOM      5  C   UNL     1       2.312   7.098  17.438  0.00  0.00    +0.000 A 
ATOM      6  C   UNL     1       1.840   8.052  18.320  0.00  0.00    +0.000 A 
ATOM      7 CL   UNL     1       0.914   9.375  17.714  0.00  0.00    +0.000 Cl
ATOM      8  C   UNL     1       2.029   7.903  19.703  0.00  0.00    +0.000 A 
ATOM      9  C   UNL     1       2.909   6.947  20.214  0.00  0.00    +0.000 A 
ATOM     10  C   UNL     1       3.495   6.078  19.283  0.00  0.00    +0.000 A 
ATOM     11  C   UNL     1       1.611   3.830  17.492  0.00  0.00    +0.000 C 
ATOM     12  C   UNL     1       1.684   2.411  18.107  0.00  0.00    +0.000 C 
ATOM     13  N   UNL     1       3.010   1.756  18.079  0.00  0.00    +0.000 NA
ATOM     14  C   UNL     1       4.116   2.554  18.645  0.00  0.00    +0.000 C 
ATOM     15  H   UNL     1       3.237   1.557  17.103  0.00  0.00    +0.000 HD
ENDROOT
BRANCH   1  16
ATOM     16  C   UNL     1       5.857   5.205  19.455  0.00  0.00    +0.000 C 
BRANCH  16  17
ATOM     17  C   UNL     1       6.610   5.902  18.321  0.00  0.00    +0.000 C 
BRANCH  17  18
ATOM     18  C   UNL     1       7.307   4.953  17.365  0.00  0.00    +0.000 C 
BRANCH  18  19
ATOM     19  O   UNL     1       7.446   5.625  16.105  0.00  0.00    +0.000 OA
BRANCH  19  24
ATOM     20 CL   UNL     1       4.995   2.831  11.533  0.00  0.00    +0.000 Cl
ATOM     21  C   UNL     1       5.735   3.650  12.853  0.00  0.00    +0.000 A 
ATOM     22  C   UNL     1       5.144   3.631  14.108  0.00  0.00    +0.000 A 
ATOM     23  C   UNL     1       5.752   4.298  15.168  0.00  0.00    +0.000 A 
ATOM     24  C   UNL     1       6.951   4.986  14.996  0.00  0.00    +0.000 A 
ATOM     25  C   UNL     1       7.537   5.017  13.728  0.00  0.00    +0.000 A 
ATOM     26  C   UNL     1       6.924   4.350  12.654  0.00  0.00    +0.000 A 
ENDBRANCH  19  24
ENDBRANCH  18  19
ENDBRANCH  17  18
ENDBRANCH  16  17
ENDBRANCH   1  16
TORSDOF 5
ENDMDL
MODEL 8
REMARK VINA RESULT:      -7.8      4.066      7.325
REMARK  Name = 
REMARK  5 active torsions:
REMARK  status: ('A' for Active; 'I' for Inactive)
REMARK    1  A    between atoms: C_5  and  O_6
REMARK    2  A    between atoms: O_6  and  C_7
REMARK    3  A    between atoms: C_7  and  C_8
REMARK    4  A    between atoms: C_8  and  C_9
REMARK    5  A    between atoms: C_9  and  N_10
REMARK                            x       y       z     vdW  Elec       q    Type
REMARK                         _______ _______ _______ _____ _____    ______ ____
ROOT
ATOM      1  N   UNL     1       2.662   5.716  17.897  0.00  0.00    +0.000 N 
ATOM      2  C   UNL     1       2.565   6.940  18.538  0.00  0.00    +0.000 A 
ATOM      3  C   UNL     1       2.227   6.646  19.847  0.00  0.00    +0.000 A 
ATOM      4  C   UNL     1       2.436   5.261  20.024  0.00  0.00    +0.000 A 
ATOM      5  C   UNL     1       2.361   4.403  21.127  0.00  0.00    +0.000 A 
ATOM      6  C   UNL     1       1.552   3.289  20.997  0.00  0.00    +0.000 A 
ATOM      7 CL   UNL     1       1.323   2.252  22.356  0.00  0.00    +0.000 Cl
ATOM      8  C   UNL     1       0.850   3.050  19.806  0.00  0.00    +0.000 A 
ATOM      9  C   UNL     1       1.138   3.763  18.641  0.00  0.00    +0.000 A 
ATOM     10  C   UNL     1       2.075   4.799  18.760  0.00  0.00    +0.000 A 
ATOM     11  C   UNL     1       1.441   7.584  20.671  0.00  0.00    +0.000 C 
ATOM     12  C   UNL     1       0.982   8.778  19.799  0.00  0.00    +0.000 C 
ATOM     13  N   UNL     1       1.979   9.310  18.845  0.00  0.00    +0.000 NA
ATOM     14  C   UNL     1       2.591   8.305  17.952  0.00  0.00    +0.000 C 
ATOM     15  H   UNL     1       2.729   9.742  19.388  0.00  0.00    +0.000 HD
ENDROOT
BRANCH   1  16
ATOM     16  C   UNL     1       3.746   5.405  16.968  0.00  0.00    +0.000 C 
BRANCH  16  17
ATOM     17  C   UNL     1       4.501   4.086  17.142  0.00  0.00    +0.000 C 
BRANCH  17  18
ATOM     18  C   UNL     1       5.816   4.020  16.390  0.00  0.00    +0.000 C 
BRANCH  18  19
ATOM     19  O   UNL     1       6.876   4.086  17.355  0.00  0.00    +0.000 OA
BRANCH  19  24
ATOM     20 CL   UNL     1       8.689   9.573  18.503  0.00  0.00    +0.000 Cl
ATOM     21  C   UNL     1       8.174   7.961  18.191  0.00  0.00    +0.000 A 
ATOM     22  C   UNL     1       7.602   7.633  16.970  0.00  0.00    +0.000 A 
ATOM     23  C   UNL     1       7.189   6.325  16.730  0.00  0.00    +0.000 A 
ATOM     24  C   UNL     1       7.340   5.331  17.693  0.00  0.00    +0.000 A 
ATOM     25  C   UNL     1       7.902   5.666  18.928  0.00  0.00    +0.000 A 
ATOM     26  C   UNL     1       8.316   6.986  19.177  0.00  0.00    +0.000 A 
ENDBRANCH  19  24
ENDBRANCH  18  19
ENDBRANCH  17  18
ENDBRANCH  16  17
ENDBRANCH   1  16
TORSDOF 5
ENDMDL
MODEL 9
REMARK VINA RESULT:      -7.8      1.151      1.681
REMARK  Name = 
REMARK  5 active torsions:
REMARK  status: ('A' for Active; 'I' for Inactive)
REMARK    1  A    between atoms: C_5  and  O_6
REMARK    2  A    between atoms: O_6  and  C_7
REMARK    3  A    between atoms: C_7  and  C_8
REMARK    4  A    between atoms: C_8  and  C_9
REMARK    5  A    between atoms: C_9  and  N_10
REMARK                            x       y       z     vdW  Elec       q    Type
REMARK                         _______ _______ _______ _____ _____    ______ ____
ROOT
ATOM      1  N   UNL     1       3.870   6.864  18.021  0.00  0.00    +0.000 N 
ATOM      2  C   UNL     1       4.837   6.308  17.199  0.00  0.00    +0.000 A 
ATOM      3  C   UNL     1       4.469   4.984  17.039  0.00  0.00    +0.000 A 
ATOM      4  C   UNL     1       3.141   4.868  17.506  0.00  0.00    +0.000 A 
ATOM      5  C   UNL     1       2.208   3.826  17.522  0.00  0.00    +0.000 A 
ATOM      6  C   UNL     1       1.649   3.507  18.746  0.00  0.00    +0.000 A 
ATOM      7 CL   UNL     1       0.579   2.158  18.858  0.00  0.00    +0.000 Cl
ATOM      8  C   UNL     1       2.015   4.209  19.904  0.00  0.00    +0.000 A 
ATOM      9  C   UNL     1       2.738   5.402  19.829  0.00  0.00    +0.000 A 
ATOM     10  C   UNL     1       3.173   5.787  18.553  0.00  0.00    +0.000 A 
ATOM     11  C   UNL     1       5.469   3.927  16.799  0.00  0.00    +0.000 C 
ATOM     12  C   UNL     1       6.892   4.527  16.914  0.00  0.00    +0.000 C 
ATOM     13  N   UNL     1       7.087   5.862  16.309  0.00  0.00    +0.000 NA
ATOM     14  C   UNL     1       6.123   6.894  16.742  0.00  0.00    +0.000 C 
ATOM     15  H   UNL     1       7.000   5.760  15.296  0.00  0.00    +0.000 HD
ENDROOT
BRANCH   1  16
ATOM     16  C   UNL     1       3.293   8.182  17.765  0.00  0.00    +0.000 C 
BRANCH  16  17
ATOM     17  C   UNL     1       1.771   8.331  17.795  0.00  0.00    +0.000 C 
BRANCH  17  18
ATOM     18  C   UNL     1       1.291   9.720  18.169  0.00  0.00    +0.000 C 
BRANCH  18  19
ATOM     19  O   UNL     1       0.730   9.650  19.488  0.00  0.00    +0.000 OA
BRANCH  19  24
ATOM     20 CL   UNL     1      -3.716  13.385  20.485  0.00  0.00    +0.000 Cl
ATOM     21  C   UNL     1      -2.405  12.303  20.218  0.00  0.00    +0.000 A 
ATOM     22  C   UNL     1      -2.248  11.683  18.987  0.00  0.00    +0.000 A 
ATOM     23  C   UNL     1      -1.184  10.809  18.783  0.00  0.00    +0.000 A 
ATOM     24  C   UNL     1      -0.264  10.544  19.794  0.00  0.00    +0.000 A 
ATOM     25  C   UNL     1      -0.431  11.157  21.039  0.00  0.00    +0.000 A 
ATOM     26  C   UNL     1      -1.507  12.036  21.251  0.00  0.00    +0.000 A 
ENDBRANCH  19  24
ENDBRANCH  18  19
ENDBRANCH  17  18
ENDBRANCH  16  17
ENDBRANCH   1  16
TORSDOF 5
ENDMDL
