MODEL 1
REMARK VINA RESULT:      -7.1      0.000      0.000
REMARK  Name = 
REMARK  7 active torsions:
REMARK  status: ('A' for Active; 'I' for Inactive)
REMARK    1  A    between atoms: C_1  and  S_2
REMARK    2  A    between atoms: S_2  and  C_5
REMARK    3  A    between atoms: N_7  and  C_8
REMARK    4  A    between atoms: C_8  and  C_9
REMARK    5  A    between atoms: N_18  and  C_19
REMARK    6  A    between atoms: C_19  and  C_20
REMARK    7  A    between atoms: C_20  and  O_21
REMARK                            x       y       z     vdW  Elec       q    Type
REMARK                         _______ _______ _______ _____ _____    ______ ____
ROOT
ATOM      1  C   UNL     1       2.873   4.823  17.808  0.00  0.00    +0.000 C 
ENDROOT
BRANCH   1   2
ATOM      2  C   UNL     1       2.460   6.074  18.502  0.00  0.00    +0.000 A 
ATOM      3  N   UNL     1       2.363   7.249  17.910  0.00  0.00    +0.000 NA
ATOM      4  C   UNL     1       1.868   8.111  18.851  0.00  0.00    +0.000 A 
ATOM      5  C   UNL     1       1.524   9.463  18.718  0.00  0.00    +0.000 A 
ATOM      6  C   UNL     1       1.001  10.123  19.833  0.00  0.00    +0.000 A 
ATOM      7 CL   UNL     1       0.542  11.777  19.694  0.00  0.00    +0.000 Cl
ATOM      8  C   UNL     1       0.840   9.468  21.055  0.00  0.00    +0.000 A 
ATOM      9  C   UNL     1       1.198   8.122  21.205  0.00  0.00    +0.000 A 
ATOM     10  C   UNL     1       1.704   7.466  20.074  0.00  0.00    +0.000 A 
ATOM     11  N   UNL     1       2.127   6.174  19.840  0.00  0.00    +0.000 N 
BRANCH  11  12
ATOM     12  C   UNL     1       2.144   5.112  20.834  0.00  0.00    +0.000 C 
BRANCH  12  13
ATOM     13  C   UNL     1       1.064   4.056  20.606  0.00  0.00    +0.000 C 
BRANCH  13  14
ATOM     14  O   UNL     1       1.270   2.904  21.414  0.00  0.00    +0.000 OA
ATOM     15  H   UNL     1       2.002   3.092  22.029  0.00  0.00    +0.000 HD
ENDBRANCH  13  14
ENDBRANCH  12  13
ENDBRANCH  11  12
ENDBRANCH   1   2
BRANCH   1  18
ATOM     16  C   UNL     1       6.358   5.101  18.087  0.00  0.00    +0.000 A 
ATOM     17  N   UNL     1       5.129   5.104  18.638  0.00  0.00    +0.000 NA
ATOM     18  N   UNL     1       4.316   4.809  17.597  0.00  0.00    +0.000 N 
ATOM     19  C   UNL     1       4.983   4.622  16.410  0.00  0.00    +0.000 A 
ATOM     20  C   UNL     1       4.544   4.302  15.131  0.00  0.00    +0.000 A 
ATOM     21  N   UNL     1       5.453   4.221  14.130  0.00  0.00    +0.000 NA
ATOM     22  C   UNL     1       6.760   4.425  14.405  0.00  0.00    +0.000 A 
ATOM     23  C   UNL     1       7.268   4.723  15.660  0.00  0.00    +0.000 A 
ATOM     24  C   UNL     1       6.332   4.825  16.697  0.00  0.00    +0.000 A 
BRANCH  16  26
ATOM     25  C   UNL     1       8.241   7.092  18.523  0.00  0.00    +0.000 C 
ATOM     26  S   UNL     1       7.802   5.436  18.995  0.00  0.00    +0.000 S 
ATOM     27  O   UNL     1       8.790   4.509  18.476  0.00  0.00    +0.000 OA
ATOM     28  O   UNL     1       7.385   5.429  20.382  0.00  0.00    +0.000 OA
ENDBRANCH  16  26
ENDBRANCH   1  18
TORSDOF 6
ENDMDL
MODEL 2
REMARK VINA RESULT:      -7.1      4.592      8.288
REMARK  Name = 
REMARK  7 active torsions:
REMARK  status: ('A' for Active; 'I' for Inactive)
REMARK    1  A    between atoms: C_1  and  S_2
REMARK    2  A    between atoms: S_2  and  C_5
REMARK    3  A    between atoms: N_7  and  C_8
REMARK    4  A    between atoms: C_8  and  C_9
REMARK    5  A    between atoms: N_18  and  C_19
REMARK    6  A    between atoms: C_19  and  C_20
REMARK    7  A    between atoms: C_20  and  O_21
REMARK                            x       y       z     vdW  Elec       q    Type
REMARK                         _______ _______ _______ _____ _____    ______ ____
ROOT
ATOM      1  C   UNL     1       2.160   9.267  18.039  0.00  0.00    +0.000 C 
ENDROOT
BRANCH   1   2
ATOM      2  C   UNL     1       2.367   7.908  18.614  0.00  0.00    +0.000 A 
ATOM      3  N   UNL     1       1.775   7.472  19.710  0.00  0.00    +0.000 NA
ATOM      4  C   UNL     1       2.147   6.162  19.848  0.00  0.00    +0.000 A 
ATOM      5  C   UNL     1       1.748   5.227  20.812  0.00  0.00    +0.000 A 
ATOM      6  C   UNL     1       2.250   3.927  20.717  0.00  0.00    +0.000 A 
ATOM      7 CL   UNL     1       1.755   2.746  21.869  0.00  0.00    +0.000 Cl
ATOM      8  C   UNL     1       3.140   3.564  19.704  0.00  0.00    +0.000 A 
ATOM      9  C   UNL     1       3.561   4.495  18.747  0.00  0.00    +0.000 A 
ATOM     10  C   UNL     1       3.035   5.791  18.842  0.00  0.00    +0.000 A 
ATOM     11  N   UNL     1       3.195   6.935  18.087  0.00  0.00    +0.000 N 
BRANCH  11  12
ATOM     12  C   UNL     1       4.043   7.042  16.910  0.00  0.00    +0.000 C 
BRANCH  12  13
ATOM     13  C   UNL     1       5.534   7.006  17.236  0.00  0.00    +0.000 C 
BRANCH  13  14
ATOM     14  O   UNL     1       6.310   6.570  16.126  0.00  0.00    +0.000 OA
ATOM     15  H   UNL     1       7.218   6.406  16.439  0.00  0.00    +0.000 HD
ENDBRANCH  13  14
ENDBRANCH  12  13
ENDBRANCH  11  12
ENDBRANCH   1   2
BRANCH   1  18
ATOM     16  C   UNL     1      -1.209  10.240  18.100  0.00  0.00    +0.000 A 
ATOM     17  N   UNL     1      -0.186   9.574  17.530  0.00  0.00    +0.000 NA
ATOM     18  N   UNL     1       0.838   9.774  18.392  0.00  0.00    +0.000 N 
ATOM     19  C   UNL     1       0.504  10.542  19.481  0.00  0.00    +0.000 A 
ATOM     20  C   UNL     1       1.233  10.970  20.582  0.00  0.00    +0.000 A 
ATOM     21  N   UNL     1       0.629  11.769  21.495  0.00  0.00    +0.000 NA
ATOM     22  C   UNL     1      -0.669  12.104  21.326  0.00  0.00    +0.000 A 
ATOM     23  C   UNL     1      -1.460  11.692  20.265  0.00  0.00    +0.000 A 
ATOM     24  C   UNL     1      -0.838  10.879  19.308  0.00  0.00    +0.000 A 
BRANCH  16  26
ATOM     25  C   UNL     1      -2.523   9.994  15.668  0.00  0.00    +0.000 C 
ATOM     26  S   UNL     1      -2.795  10.320  17.393  0.00  0.00    +0.000 S 
ATOM     27  O   UNL     1      -3.209  11.701  17.563  0.00  0.00    +0.000 OA
ATOM     28  O   UNL     1      -3.526   9.215  17.979  0.00  0.00    +0.000 OA
ENDBRANCH  16  26
ENDBRANCH   1  18
TORSDOF 6
ENDMDL
MODEL 3
REMARK VINA RESULT:      -6.8      5.073      8.655
REMARK  Name = 
REMARK  7 active torsions:
REMARK  status: ('A' for Active; 'I' for Inactive)
REMARK    1  A    between atoms: C_1  and  S_2
REMARK    2  A    between atoms: S_2  and  C_5
REMARK    3  A    between atoms: N_7  and  C_8
REMARK    4  A    between atoms: C_8  and  C_9
REMARK    5  A    between atoms: N_18  and  C_19
REMARK    6  A    between atoms: C_19  and  C_20
REMARK    7  A    between atoms: C_20  and  O_21
REMARK                            x       y       z     vdW  Elec       q    Type
REMARK                         _______ _______ _______ _____ _____    ______ ____
ROOT
ATOM      1  C   UNL     1       1.555  10.359  18.675  0.00  0.00    +0.000 C 
ENDROOT
BRANCH   1   2
ATOM      2  C   UNL     1       1.839   8.907  18.848  0.00  0.00    +0.000 A 
ATOM      3  N   UNL     1       2.308   8.127  17.892  0.00  0.00    +0.000 NA
ATOM      4  C   UNL     1       2.522   6.905  18.468  0.00  0.00    +0.000 A 
ATOM      5  C   UNL     1       3.068   5.744  17.903  0.00  0.00    +0.000 A 
ATOM      6  C   UNL     1       3.214   4.620  18.718  0.00  0.00    +0.000 A 
ATOM      7 CL   UNL     1       3.909   3.187  18.061  0.00  0.00    +0.000 Cl
ATOM      8  C   UNL     1       2.813   4.635  20.056  0.00  0.00    +0.000 A 
ATOM      9  C   UNL     1       2.248   5.782  20.626  0.00  0.00    +0.000 A 
ATOM     10  C   UNL     1       2.124   6.910  19.802  0.00  0.00    +0.000 A 
ATOM     11  N   UNL     1       1.652   8.189  20.014  0.00  0.00    +0.000 N 
BRANCH  11  12
ATOM     12  C   UNL     1       1.119   8.680  21.275  0.00  0.00    +0.000 C 
BRANCH  12  13
ATOM     13  C   UNL     1      -0.363   8.366  21.467  0.00  0.00    +0.000 C 
BRANCH  13  14
ATOM     14  O   UNL     1      -0.792   8.622  22.799  0.00  0.00    +0.000 OA
ATOM     15  H   UNL     1      -1.765   8.676  22.798  0.00  0.00    +0.000 HD
ENDBRANCH  13  14
ENDBRANCH  12  13
ENDBRANCH  11  12
ENDBRANCH   1   2
BRANCH   1  18
ATOM     16  C   UNL     1      -1.880  10.493  17.977  0.00  0.00    +0.000 A 
ATOM     17  N   UNL     1      -0.653   9.981  17.758  0.00  0.00    +0.000 NA
ATOM     18  N   UNL     1       0.117  10.602  18.683  0.00  0.00    +0.000 N 
ATOM     19  C   UNL     1      -0.575  11.488  19.474  0.00  0.00    +0.000 A 
ATOM     20  C   UNL     1      -0.181  12.306  20.525  0.00  0.00    +0.000 A 
ATOM     21  N   UNL     1      -1.101  13.118  21.100  0.00  0.00    +0.000 NA
ATOM     22  C   UNL     1      -2.378  13.090  20.658  0.00  0.00    +0.000 A 
ATOM     23  C   UNL     1      -2.842  12.281  19.632  0.00  0.00    +0.000 A 
ATOM     24  C   UNL     1      -1.893  11.450  19.022  0.00  0.00    +0.000 A 
BRANCH  16  26
ATOM     25  C   UNL     1      -4.153  11.563  16.799  0.00  0.00    +0.000 C 
ATOM     26  S   UNL     1      -3.274  10.039  17.043  0.00  0.00    +0.000 S 
ATOM     27  O   UNL     1      -4.042   9.174  17.920  0.00  0.00    +0.000 OA
ATOM     28  O   UNL     1      -2.745   9.582  15.774  0.00  0.00    +0.000 OA
ENDBRANCH  16  26
ENDBRANCH   1  18
TORSDOF 6
ENDMDL
MODEL 4
REMARK VINA RESULT:      -6.8      5.095      8.749
REMARK  Name = 
REMARK  7 active torsions:
REMARK  status: ('A' for Active; 'I' for Inactive)
REMARK    1  A    between atoms: C_1  and  S_2
REMARK    2  A    between atoms: S_2  and  C_5
REMARK    3  A    between atoms: N_7  and  C_8
REMARK    4  A    between atoms: C_8  and  C_9
REMARK    5  A    between atoms: N_18  and  C_19
REMARK    6  A    between atoms: C_19  and  C_20
REMARK    7  A    between atoms: C_20  and  O_21
REMARK                            x       y       z     vdW  Elec       q    Type
REMARK                         _______ _______ _______ _____ _____    ______ ____
ROOT
ATOM      1  C   UNL     1       1.552  10.505  18.742  0.00  0.00    +0.000 C 
ENDROOT
BRANCH   1   2
ATOM      2  C   UNL     1       1.816   9.046  18.885  0.00  0.00    +0.000 A 
ATOM      3  N   UNL     1       2.465   8.322  17.992  0.00  0.00    +0.000 NA
ATOM      4  C   UNL     1       2.582   7.069  18.530  0.00  0.00    +0.000 A 
ATOM      5  C   UNL     1       3.239   5.944  18.014  0.00  0.00    +0.000 A 
ATOM      6  C   UNL     1       3.243   4.775  18.779  0.00  0.00    +0.000 A 
ATOM      7 CL   UNL     1       4.066   3.383  18.186  0.00  0.00    +0.000 Cl
ATOM      8  C   UNL     1       2.599   4.714  20.016  0.00  0.00    +0.000 A 
ATOM      9  C   UNL     1       1.923   5.826  20.533  0.00  0.00    +0.000 A 
ATOM     10  C   UNL     1       1.942   6.998  19.764  0.00  0.00    +0.000 A 
ATOM     11  N   UNL     1       1.423   8.263  19.954  0.00  0.00    +0.000 N 
BRANCH  11  12
ATOM     12  C   UNL     1       0.658   8.681  21.118  0.00  0.00    +0.000 C 
BRANCH  12  13
ATOM     13  C   UNL     1       1.525   9.258  22.234  0.00  0.00    +0.000 C 
BRANCH  13  14
ATOM     14  O   UNL     1       0.743   9.725  23.327  0.00  0.00    +0.000 OA
ATOM     15  H   UNL     1      -0.138   9.965  22.987  0.00  0.00    +0.000 HD
ENDBRANCH  13  14
ENDBRANCH  12  13
ENDBRANCH  11  12
ENDBRANCH   1   2
BRANCH   1  18
ATOM     16  C   UNL     1      -1.895  10.742  18.139  0.00  0.00    +0.000 A 
ATOM     17  N   UNL     1      -0.684  10.223  17.859  0.00  0.00    +0.000 NA
ATOM     18  N   UNL     1       0.119  10.772  18.801  0.00  0.00    +0.000 N 
ATOM     19  C   UNL     1      -0.536  11.619  19.662  0.00  0.00    +0.000 A 
ATOM     20  C   UNL     1      -0.102  12.364  20.751  0.00  0.00    +0.000 A 
ATOM     21  N   UNL     1      -0.993  13.154  21.398  0.00  0.00    +0.000 NA
ATOM     22  C   UNL     1      -2.280  13.175  20.987  0.00  0.00    +0.000 A 
ATOM     23  C   UNL     1      -2.784  12.440  19.925  0.00  0.00    +0.000 A 
ATOM     24  C   UNL     1      -1.866  11.632  19.241  0.00  0.00    +0.000 A 
BRANCH  16  26
ATOM     25  C   UNL     1      -2.697   9.930  15.610  0.00  0.00    +0.000 C 
ATOM     26  S   UNL     1      -3.319  10.371  17.215  0.00  0.00    +0.000 S 
ATOM     27  O   UNL     1      -4.041  11.626  17.124  0.00  0.00    +0.000 OA
ATOM     28  O   UNL     1      -3.884   9.196  17.848  0.00  0.00    +0.000 OA
ENDBRANCH  16  26
ENDBRANCH   1  18
TORSDOF 6
ENDMDL
MODEL 5
REMARK VINA RESULT:      -6.7      3.282      4.954
REMARK  Name = 
REMARK  7 active torsions:
REMARK  status: ('A' for Active; 'I' for Inactive)
REMARK    1  A    between atoms: C_1  and  S_2
REMARK    2  A    between atoms: S_2  and  C_5
REMARK    3  A    between atoms: N_7  and  C_8
REMARK    4  A    between atoms: C_8  and  C_9
REMARK    5  A    between atoms: N_18  and  C_19
REMARK    6  A    between atoms: C_19  and  C_20
REMARK    7  A    between atoms: C_20  and  O_21
REMARK                            x       y       z     vdW  Elec       q    Type
REMARK                         _______ _______ _______ _____ _____    ______ ____
ROOT
ATOM      1  C   UNL     1       2.067   8.338  20.273  0.00  0.00    +0.000 C 
ENDROOT
BRANCH   1   2
ATOM      2  C   UNL     1       0.981   9.124  19.623  0.00  0.00    +0.000 A 
ATOM      3  N   UNL     1       0.577   8.939  18.381  0.00  0.00    +0.000 NA
ATOM      4  C   UNL     1      -0.488   9.779  18.198  0.00  0.00    +0.000 A 
ATOM      5  C   UNL     1      -1.314   9.927  17.075  0.00  0.00    +0.000 A 
ATOM      6  C   UNL     1      -2.367  10.841  17.148  0.00  0.00    +0.000 A 
ATOM      7 CL   UNL     1      -3.418  11.025  15.796  0.00  0.00    +0.000 Cl
ATOM      8  C   UNL     1      -2.589  11.604  18.296  0.00  0.00    +0.000 A 
ATOM      9  C   UNL     1      -1.758  11.479  19.417  0.00  0.00    +0.000 A 
ATOM     10  C   UNL     1      -0.716  10.545  19.337  0.00  0.00    +0.000 A 
ATOM     11  N   UNL     1       0.261  10.139  20.224  0.00  0.00    +0.000 N 
BRANCH  11  12
ATOM     12  C   UNL     1       0.431  10.663  21.570  0.00  0.00    +0.000 C 
BRANCH  12  13
ATOM     13  C   UNL     1      -0.412   9.933  22.612  0.00  0.00    +0.000 C 
BRANCH  13  14
ATOM     14  O   UNL     1       0.318   9.685  23.808  0.00  0.00    +0.000 OA
ATOM     15  H   UNL     1      -0.214   9.092  24.369  0.00  0.00    +0.000 HD
ENDBRANCH  13  14
ENDBRANCH  12  13
ENDBRANCH  11  12
ENDBRANCH   1   2
BRANCH   1  18
ATOM     16  C   UNL     1       2.030   4.958  19.336  0.00  0.00    +0.000 A 
ATOM     17  N   UNL     1       1.587   5.972  20.104  0.00  0.00    +0.000 NA
ATOM     18  N   UNL     1       2.234   7.051  19.606  0.00  0.00    +0.000 N 
ATOM     19  C   UNL     1       3.071   6.759  18.556  0.00  0.00    +0.000 A 
ATOM     20  C   UNL     1       3.894   7.552  17.768  0.00  0.00    +0.000 A 
ATOM     21  N   UNL     1       4.648   6.961  16.810  0.00  0.00    +0.000 NA
ATOM     22  C   UNL     1       4.559   5.625  16.627  0.00  0.00    +0.000 A 
ATOM     23  C   UNL     1       3.741   4.779  17.360  0.00  0.00    +0.000 A 
ATOM     24  C   UNL     1       2.970   5.381  18.364  0.00  0.00    +0.000 A 
BRANCH  16  26
ATOM     25  C   UNL     1       3.029   2.402  19.747  0.00  0.00    +0.000 C 
ATOM     26  S   UNL     1       1.515   3.312  19.554  0.00  0.00    +0.000 S 
ATOM     27  O   UNL     1       0.892   2.948  18.295  0.00  0.00    +0.000 OA
ATOM     28  O   UNL     1       0.791   3.306  20.808  0.00  0.00    +0.000 OA
ENDBRANCH  16  26
ENDBRANCH   1  18
TORSDOF 6
ENDMDL
MODEL 6
REMARK VINA RESULT:      -6.7      5.579      9.352
REMARK  Name = 
REMARK  7 active torsions:
REMARK  status: ('A' for Active; 'I' for Inactive)
REMARK    1  A    between atoms: C_1  and  S_2
REMARK    2  A    between atoms: S_2  and  C_5
REMARK    3  A    between atoms: N_7  and  C_8
REMARK    4  A    between atoms: C_8  and  C_9
REMARK    5  A    between atoms: N_18  and  C_19
REMARK    6  A    between atoms: C_19  and  C_20
REMARK    7  A    between atoms: C_20  and  O_21
REMARK                            x       y       z     vdW  Elec       q    Type
REMARK                         _______ _______ _______ _____ _____    ______ ____
ROOT
ATOM      1  C   UNL     1       0.753  11.661  19.085  0.00  0.00    +0.000 C 
ENDROOT
BRANCH   1   2
ATOM      2  C   UNL     1       1.267  10.269  18.961  0.00  0.00    +0.000 A 
ATOM      3  N   UNL     1       1.964   9.829  17.931  0.00  0.00    +0.000 NA
ATOM      4  C   UNL     1       2.327   8.545  18.237  0.00  0.00    +0.000 A 
ATOM      5  C   UNL     1       3.124   7.654  17.507  0.00  0.00    +0.000 A 
ATOM      6  C   UNL     1       3.378   6.394  18.056  0.00  0.00    +0.000 A 
ATOM      7 CL   UNL     1       4.379   5.287  17.197  0.00  0.00    +0.000 Cl
ATOM      8  C   UNL     1       2.841   6.018  19.288  0.00  0.00    +0.000 A 
ATOM      9  C   UNL     1       2.026   6.893  20.018  0.00  0.00    +0.000 A 
ATOM     10  C   UNL     1       1.795   8.160  19.465  0.00  0.00    +0.000 A 
ATOM     11  N   UNL     1       1.086   9.264  19.892  0.00  0.00    +0.000 N 
BRANCH  11  12
ATOM     12  C   UNL     1       0.344   9.343  21.141  0.00  0.00    +0.000 C 
BRANCH  12  13
ATOM     13  C   UNL     1       1.243   9.372  22.375  0.00  0.00    +0.000 C 
BRANCH  13  14
ATOM     14  O   UNL     1       0.517   9.698  23.554  0.00  0.00    +0.000 OA
ATOM     15  H   UNL     1      -0.041   8.933  23.786  0.00  0.00    +0.000 HD
ENDBRANCH  13  14
ENDBRANCH  12  13
ENDBRANCH  11  12
ENDBRANCH   1   2
BRANCH   1  18
ATOM     16  C   UNL     1      -2.631  11.378  18.208  0.00  0.00    +0.000 A 
ATOM     17  N   UNL     1      -1.331  11.108  17.985  0.00  0.00    +0.000 NA
ATOM     18  N   UNL     1      -0.705  11.673  19.044  0.00  0.00    +0.000 N 
ATOM     19  C   UNL     1      -1.560  12.290  19.926  0.00  0.00    +0.000 A 
ATOM     20  C   UNL     1      -1.342  12.967  21.119  0.00  0.00    +0.000 A 
ATOM     21  N   UNL     1      -2.402  13.514  21.762  0.00  0.00    +0.000 NA
ATOM     22  C   UNL     1      -3.641  13.364  21.243  0.00  0.00    +0.000 A 
ATOM     23  C   UNL     1      -3.930  12.682  20.072  0.00  0.00    +0.000 A 
ATOM     24  C   UNL     1      -2.838  12.127  19.393  0.00  0.00    +0.000 A 
BRANCH  16  26
ATOM     25  C   UNL     1      -3.062  10.535  15.600  0.00  0.00    +0.000 C 
ATOM     26  S   UNL     1      -3.899  10.879  17.128  0.00  0.00    +0.000 S 
ATOM     27  O   UNL     1      -4.734  12.055  16.967  0.00  0.00    +0.000 OA
ATOM     28  O   UNL     1      -4.404   9.640  17.686  0.00  0.00    +0.000 OA
ENDBRANCH  16  26
ENDBRANCH   1  18
TORSDOF 6
ENDMDL
MODEL 7
REMARK VINA RESULT:      -6.5      6.048      9.461
REMARK  Name = 
REMARK  7 active torsions:
REMARK  status: ('A' for Active; 'I' for Inactive)
REMARK    1  A    between atoms: C_1  and  S_2
REMARK    2  A    between atoms: S_2  and  C_5
REMARK    3  A    between atoms: N_7  and  C_8
REMARK    4  A    between atoms: C_8  and  C_9
REMARK    5  A    between atoms: N_18  and  C_19
REMARK    6  A    between atoms: C_19  and  C_20
REMARK    7  A    between atoms: C_20  and  O_21
REMARK                            x       y       z     vdW  Elec       q    Type
REMARK                         _______ _______ _______ _____ _____    ______ ____
ROOT
ATOM      1  C   UNL     1       0.708  12.317  19.661  0.00  0.00    +0.000 C 
ENDROOT
BRANCH   1   2
ATOM      2  C   UNL     1       1.035  10.867  19.567  0.00  0.00    +0.000 A 
ATOM      3  N   UNL     1       1.367  10.256  18.446  0.00  0.00    +0.000 NA
ATOM      4  C   UNL     1       1.682   8.970  18.791  0.00  0.00    +0.000 A 
ATOM      5  C   UNL     1       2.153   7.927  17.982  0.00  0.00    +0.000 A 
ATOM      6  C   UNL     1       2.435   6.700  18.586  0.00  0.00    +0.000 A 
ATOM      7 CL   UNL     1       3.044   5.407  17.624  0.00  0.00    +0.000 Cl
ATOM      8  C   UNL     1       2.237   6.501  19.954  0.00  0.00    +0.000 A 
ATOM      9  C   UNL     1       1.748   7.530  20.769  0.00  0.00    +0.000 A 
ATOM     10  C   UNL     1       1.487   8.762  20.154  0.00  0.00    +0.000 A 
ATOM     11  N   UNL     1       1.034   9.977  20.625  0.00  0.00    +0.000 N 
BRANCH  11  12
ATOM     12  C   UNL     1       0.689  10.256  22.010  0.00  0.00    +0.000 C 
BRANCH  12  13
ATOM     13  C   UNL     1      -0.683   9.715  22.410  0.00  0.00    +0.000 C 
BRANCH  13  14
ATOM     14  O   UNL     1      -1.396  10.632  23.231  0.00  0.00    +0.000 OA
ATOM     15  H   UNL     1      -1.173  10.441  24.160  0.00  0.00    +0.000 HD
ENDBRANCH  13  14
ENDBRANCH  12  13
ENDBRANCH  11  12
ENDBRANCH   1   2
BRANCH   1  18
ATOM     16  C   UNL     1      -2.448  12.951  21.053  0.00  0.00    +0.000 A 
ATOM     17  N   UNL     1      -1.103  13.003  21.112  0.00  0.00    +0.000 NA
ATOM     18  N   UNL     1      -0.716  12.504  19.915  0.00  0.00    +0.000 N 
ATOM     19  C   UNL     1      -1.763  12.138  19.103  0.00  0.00    +0.000 A 
ATOM     20  C   UNL     1      -1.809  11.604  17.822  0.00  0.00    +0.000 A 
ATOM     21  N   UNL     1      -3.016  11.303  17.284  0.00  0.00    +0.000 NA
ATOM     22  C   UNL     1      -4.138  11.553  17.993  0.00  0.00    +0.000 A 
ATOM     23  C   UNL     1      -4.164  12.105  19.264  0.00  0.00    +0.000 A 
ATOM     24  C   UNL     1      -2.920  12.405  19.834  0.00  0.00    +0.000 A 
BRANCH  16  26
ATOM     25  C   UNL     1      -2.341  14.075  23.588  0.00  0.00    +0.000 C 
ATOM     26  S   UNL     1      -3.472  13.472  22.357  0.00  0.00    +0.000 S 
ATOM     27  O   UNL     1      -4.107  12.259  22.839  0.00  0.00    +0.000 OA
ATOM     28  O   UNL     1      -4.231  14.584  21.820  0.00  0.00    +0.000 OA
ENDBRANCH  16  26
ENDBRANCH   1  18
TORSDOF 6
ENDMDL
MODEL 8
REMARK VINA RESULT:      -6.5      3.974      7.492
REMARK  Name = 
REMARK  7 active torsions:
REMARK  status: ('A' for Active; 'I' for Inactive)
REMARK    1  A    between atoms: C_1  and  S_2
REMARK    2  A    between atoms: S_2  and  C_5
REMARK    3  A    between atoms: N_7  and  C_8
REMARK    4  A    between atoms: C_8  and  C_9
REMARK    5  A    between atoms: N_18  and  C_19
REMARK    6  A    between atoms: C_19  and  C_20
REMARK    7  A    between atoms: C_20  and  O_21
REMARK                            x       y       z     vdW  Elec       q    Type
REMARK                         _______ _______ _______ _____ _____    ______ ____
ROOT
ATOM      1  C   UNL     1       1.412   7.018  21.216  0.00  0.00    +0.000 C 
ENDROOT
BRANCH   1   2
ATOM      2  C   UNL     1       2.076   6.369  20.052  0.00  0.00    +0.000 A 
ATOM      3  N   UNL     1       2.959   6.969  19.277  0.00  0.00    +0.000 NA
ATOM      4  C   UNL     1       3.400   6.020  18.395  0.00  0.00    +0.000 A 
ATOM      5  C   UNL     1       4.383   6.125  17.401  0.00  0.00    +0.000 A 
ATOM      6  C   UNL     1       4.678   4.989  16.644  0.00  0.00    +0.000 A 
ATOM      7 CL   UNL     1       5.902   5.077  15.435  0.00  0.00    +0.000 Cl
ATOM      8  C   UNL     1       4.004   3.783  16.850  0.00  0.00    +0.000 A 
ATOM      9  C   UNL     1       3.007   3.672  17.827  0.00  0.00    +0.000 A 
ATOM     10  C   UNL     1       2.733   4.814  18.592  0.00  0.00    +0.000 A 
ATOM     11  N   UNL     1       1.862   5.070  19.631  0.00  0.00    +0.000 N 
BRANCH  11  12
ATOM     12  C   UNL     1       0.939   4.101  20.200  0.00  0.00    +0.000 C 
BRANCH  12  13
ATOM     13  C   UNL     1       1.640   2.969  20.949  0.00  0.00    +0.000 C 
BRANCH  13  14
ATOM     14  O   UNL     1       2.204   3.414  22.177  0.00  0.00    +0.000 OA
ATOM     15  H   UNL     1       1.663   4.156  22.506  0.00  0.00    +0.000 HD
ENDBRANCH  13  14
ENDBRANCH  12  13
ENDBRANCH  11  12
ENDBRANCH   1   2
BRANCH   1  18
ATOM     16  C   UNL     1       0.953  10.171  19.749  0.00  0.00    +0.000 A 
ATOM     17  N   UNL     1       1.404   8.902  19.697  0.00  0.00    +0.000 NA
ATOM     18  N   UNL     1       1.004   8.377  20.879  0.00  0.00    +0.000 N 
ATOM     19  C   UNL     1       0.319   9.264  21.675  0.00  0.00    +0.000 A 
ATOM     20  C   UNL     1      -0.261   9.138  22.931  0.00  0.00    +0.000 A 
ATOM     21  N   UNL     1      -0.846  10.223  23.491  0.00  0.00    +0.000 NA
ATOM     22  C   UNL     1      -0.875  11.388  22.807  0.00  0.00    +0.000 A 
ATOM     23  C   UNL     1      -0.337  11.577  21.543  0.00  0.00    +0.000 A 
ATOM     24  C   UNL     1       0.284  10.463  20.963  0.00  0.00    +0.000 A 
BRANCH  16  26
ATOM     25  C   UNL     1       2.112  12.638  19.231  0.00  0.00    +0.000 C 
ATOM     26  S   UNL     1       1.205  11.316  18.466  0.00  0.00    +0.000 S 
ATOM     27  O   UNL     1      -0.125  11.782  18.117  0.00  0.00    +0.000 OA
ATOM     28  O   UNL     1       2.061  10.636  17.516  0.00  0.00    +0.000 OA
ENDBRANCH  16  26
ENDBRANCH   1  18
TORSDOF 6
ENDMDL
MODEL 9
REMARK VINA RESULT:      -6.4      5.067      8.374
REMARK  Name = 
REMARK  7 active torsions:
REMARK  status: ('A' for Active; 'I' for Inactive)
REMARK    1  A    between atoms: C_1  and  S_2
REMARK    2  A    between atoms: S_2  and  C_5
REMARK    3  A    between atoms: N_7  and  C_8
REMARK    4  A    between atoms: C_8  and  C_9
REMARK    5  A    between atoms: N_18  and  C_19
REMARK    6  A    between atoms: C_19  and  C_20
REMARK    7  A    between atoms: C_20  and  O_21
REMARK                            x       y       z     vdW  Elec       q    Type
REMARK                         _______ _______ _______ _____ _____    ______ ____
ROOT
ATOM      1  C   UNL     1       2.123   9.687  18.464  0.00  0.00    +0.000 C 
ENDROOT
BRANCH   1   2
ATOM      2  C   UNL     1       2.121   8.222  18.736  0.00  0.00    +0.000 A 
ATOM      3  N   UNL     1       2.372   7.302  17.825  0.00  0.00    +0.000 NA
ATOM      4  C   UNL     1       2.370   6.102  18.484  0.00  0.00    +0.000 A 
ATOM      5  C   UNL     1       2.642   4.820  17.987  0.00  0.00    +0.000 A 
ATOM      6  C   UNL     1       2.605   3.747  18.880  0.00  0.00    +0.000 A 
ATOM      7 CL   UNL     1       2.963   2.162  18.307  0.00  0.00    +0.000 Cl
ATOM      8  C   UNL     1       2.288   3.932  20.227  0.00  0.00    +0.000 A 
ATOM      9  C   UNL     1       1.995   5.206  20.730  0.00  0.00    +0.000 A 
ATOM     10  C   UNL     1       2.054   6.277  19.828  0.00  0.00    +0.000 A 
ATOM     11  N   UNL     1       1.859   7.637  19.960  0.00  0.00    +0.000 N 
BRANCH  11  12
ATOM     12  C   UNL     1       1.504   8.309  21.200  0.00  0.00    +0.000 C 
BRANCH  12  13
ATOM     13  C   UNL     1       0.010   8.256  21.509  0.00  0.00    +0.000 C 
BRANCH  13  14
ATOM     14  O   UNL     1      -0.365   9.220  22.486  0.00  0.00    +0.000 OA
ATOM     15  H   UNL     1      -0.828   9.947  22.030  0.00  0.00    +0.000 HD
ENDBRANCH  13  14
ENDBRANCH  12  13
ENDBRANCH  11  12
ENDBRANCH   1   2
BRANCH   1  18
ATOM     16  C   UNL     1      -1.242  10.654  18.268  0.00  0.00    +0.000 A 
ATOM     17  N   UNL     1      -0.209   9.895  17.854  0.00  0.00    +0.000 NA
ATOM     18  N   UNL     1       0.797  10.250  18.687  0.00  0.00    +0.000 N 
ATOM     19  C   UNL     1       0.440  11.204  19.610  0.00  0.00    +0.000 A 
ATOM     20  C   UNL     1       1.147  11.826  20.632  0.00  0.00    +0.000 A 
ATOM     21  N   UNL     1       0.525  12.778  21.369  0.00  0.00    +0.000 NA
ATOM     22  C   UNL     1      -0.768  13.076  21.112  0.00  0.00    +0.000 A 
ATOM     23  C   UNL     1      -1.537  12.477  20.126  0.00  0.00    +0.000 A 
ATOM     24  C   UNL     1      -0.896  11.503  19.348  0.00  0.00    +0.000 A 
BRANCH  16  26
ATOM     25  C   UNL     1      -3.788  11.737  18.479  0.00  0.00    +0.000 C 
ATOM     26  S   UNL     1      -2.811  10.603  17.522  0.00  0.00    +0.000 S 
ATOM     27  O   UNL     1      -3.286   9.250  17.746  0.00  0.00    +0.000 OA
ATOM     28  O   UNL     1      -2.614  11.145  16.193  0.00  0.00    +0.000 OA
ENDBRANCH  16  26
ENDBRANCH   1  18
TORSDOF 6
ENDMDL
