MODEL 1
REMARK VINA RESULT:      -8.4      0.000      0.000
REMARK  Name = 
REMARK  7 active torsions:
REMARK  status: ('A' for Active; 'I' for Inactive)
REMARK    1  A    between atoms: C_1  and  C_2
REMARK    2  A    between atoms: C_5  and  C_6
REMARK    3  A    between atoms: C_6  and  C_7
REMARK    4  A    between atoms: C_6  and  C_8
REMARK    5  A    between atoms: C_9  and  C_10
REMARK    6  A    between atoms: N_12  and  C_13
REMARK    7  A    between atoms: C_13  and  C_14
REMARK                            x       y       z     vdW  Elec       q    Type
REMARK                         _______ _______ _______ _____ _____    ______ ____
ROOT
ATOM      1  C   UNL     1       4.357   5.094  16.785  0.00  0.00    +0.000 C 
ATOM      2  O   UNL     1       3.788   6.024  17.351  0.00  0.00    +0.000 OA
ATOM      3  N   UNL     1       3.804   3.832  16.747  0.00  0.00    +0.000 N 
ATOM      4  H   UNL     1       4.345   3.049  16.430  0.00  0.00    +0.000 HD
ENDROOT
BRANCH   1  10
ATOM      5  C   UNL     1       5.502   4.014  13.787  0.00  0.00    +0.000 C 
ATOM      6  C   UNL     1       6.146   4.815  14.857  0.00  0.00    +0.000 A 
ATOM      7  N   UNL     1       7.405   5.216  14.654  0.00  0.00    +0.000 NA
ATOM      8  O   UNL     1       7.756   5.938  15.765  0.00  0.00    +0.000 OA
ATOM      9  C   UNL     1       6.713   5.991  16.635  0.00  0.00    +0.000 A 
ATOM     10  C   UNL     1       5.644   5.266  16.120  0.00  0.00    +0.000 A 
BRANCH   9  11
ATOM     11  C   UNL     1       6.968   6.765  17.894  0.00  0.00    +0.000 C 
ATOM     12  C   UNL     1       7.714   5.900  18.910  0.00  0.00    +0.000 C 
ATOM     13  C   UNL     1       7.756   8.054  17.626  0.00  0.00    +0.000 C 
ENDBRANCH   9  11
ENDBRANCH   1  10
BRANCH   3  14
ATOM     14  C   UNL     1       2.524   3.534  17.351  0.00  0.00    +0.000 C 
BRANCH  14  15
ATOM     15  C   UNL     1       2.677   3.100  18.785  0.00  0.00    +0.000 A 
ATOM     16  C   UNL     1       3.896   2.576  19.237  0.00  0.00    +0.000 A 
ATOM     17  C   UNL     1       4.039   2.169  20.561  0.00  0.00    +0.000 A 
ATOM     18  F   UNL     1       5.215   1.682  20.976  0.00  0.00    +0.000 F 
ATOM     19  C   UNL     1       2.986   2.266  21.459  0.00  0.00    +0.000 A 
ATOM     20  C   UNL     1       1.775   2.774  21.011  0.00  0.00    +0.000 A 
ATOM     21  F   UNL     1       0.747   2.872  21.863  0.00  0.00    +0.000 F 
ATOM     22  C   UNL     1       1.609   3.188  19.690  0.00  0.00    +0.000 A 
ENDBRANCH  14  15
ENDBRANCH   3  14
TORSDOF 4
ENDMDL
MODEL 2
REMARK VINA RESULT:      -8.3      1.784      2.292
REMARK  Name = 
REMARK  7 active torsions:
REMARK  status: ('A' for Active; 'I' for Inactive)
REMARK    1  A    between atoms: C_1  and  C_2
REMARK    2  A    between atoms: C_5  and  C_6
REMARK    3  A    between atoms: C_6  and  C_7
REMARK    4  A    between atoms: C_6  and  C_8
REMARK    5  A    between atoms: C_9  and  C_10
REMARK    6  A    between atoms: N_12  and  C_13
REMARK    7  A    between atoms: C_13  and  C_14
REMARK                            x       y       z     vdW  Elec       q    Type
REMARK                         _______ _______ _______ _____ _____    ______ ____
ROOT
ATOM      1  C   UNL     1       5.062   4.018  16.918  0.00  0.00    +0.000 C 
ATOM      2  O   UNL     1       5.324   3.382  17.936  0.00  0.00    +0.000 OA
ATOM      3  N   UNL     1       3.770   4.118  16.448  0.00  0.00    +0.000 N 
ATOM      4  H   UNL     1       3.588   4.496  15.537  0.00  0.00    +0.000 HD
ENDROOT
BRANCH   1  10
ATOM      5  C   UNL     1       6.086   3.665  13.710  0.00  0.00    +0.000 C 
ATOM      6  C   UNL     1       6.541   4.567  14.796  0.00  0.00    +0.000 A 
ATOM      7  N   UNL     1       7.530   5.423  14.513  0.00  0.00    +0.000 NA
ATOM      8  O   UNL     1       7.749   6.140  15.660  0.00  0.00    +0.000 OA
ATOM      9  C   UNL     1       6.890   5.737  16.633  0.00  0.00    +0.000 A 
ATOM     10  C   UNL     1       6.094   4.705  16.148  0.00  0.00    +0.000 A 
BRANCH   9  11
ATOM     11  C   UNL     1       7.023   6.455  17.943  0.00  0.00    +0.000 C 
ATOM     12  C   UNL     1       7.797   5.599  18.945  0.00  0.00    +0.000 C 
ATOM     13  C   UNL     1       7.708   7.818  17.783  0.00  0.00    +0.000 C 
ENDBRANCH   9  11
ENDBRANCH   1  10
BRANCH   3  14
ATOM     14  C   UNL     1       2.654   3.500  17.129  0.00  0.00    +0.000 C 
BRANCH  14  15
ATOM     15  C   UNL     1       2.349   4.191  18.431  0.00  0.00    +0.000 A 
ATOM     16  C   UNL     1       1.885   3.452  19.529  0.00  0.00    +0.000 A 
ATOM     17  C   UNL     1       1.597   4.088  20.734  0.00  0.00    +0.000 A 
ATOM     18  F   UNL     1       1.166   3.364  21.774  0.00  0.00    +0.000 F 
ATOM     19  C   UNL     1       1.756   5.460  20.877  0.00  0.00    +0.000 A 
ATOM     20  C   UNL     1       2.206   6.193  19.789  0.00  0.00    +0.000 A 
ATOM     21  F   UNL     1       2.362   7.518  19.907  0.00  0.00    +0.000 F 
ATOM     22  C   UNL     1       2.499   5.578  18.573  0.00  0.00    +0.000 A 
ENDBRANCH  14  15
ENDBRANCH   3  14
TORSDOF 4
ENDMDL
MODEL 3
REMARK VINA RESULT:      -8.3      1.794      2.241
REMARK  Name = 
REMARK  7 active torsions:
REMARK  status: ('A' for Active; 'I' for Inactive)
REMARK    1  A    between atoms: C_1  and  C_2
REMARK    2  A    between atoms: C_5  and  C_6
REMARK    3  A    between atoms: C_6  and  C_7
REMARK    4  A    between atoms: C_6  and  C_8
REMARK    5  A    between atoms: C_9  and  C_10
REMARK    6  A    between atoms: N_12  and  C_13
REMARK    7  A    between atoms: C_13  and  C_14
REMARK                            x       y       z     vdW  Elec       q    Type
REMARK                         _______ _______ _______ _____ _____    ______ ____
ROOT
ATOM      1  C   UNL     1       5.052   4.017  16.909  0.00  0.00    +0.000 C 
ATOM      2  O   UNL     1       5.312   3.367  17.917  0.00  0.00    +0.000 OA
ATOM      3  N   UNL     1       3.758   4.132  16.444  0.00  0.00    +0.000 N 
ATOM      4  H   UNL     1       3.576   4.523  15.539  0.00  0.00    +0.000 HD
ENDROOT
BRANCH   1  10
ATOM      5  C   UNL     1       6.071   3.686  13.697  0.00  0.00    +0.000 C 
ATOM      6  C   UNL     1       6.532   4.577  14.790  0.00  0.00    +0.000 A 
ATOM      7  N   UNL     1       7.524   5.430  14.513  0.00  0.00    +0.000 NA
ATOM      8  O   UNL     1       7.747   6.137  15.666  0.00  0.00    +0.000 OA
ATOM      9  C   UNL     1       6.887   5.729  16.637  0.00  0.00    +0.000 A 
ATOM     10  C   UNL     1       6.086   4.705  16.144  0.00  0.00    +0.000 A 
BRANCH   9  11
ATOM     11  C   UNL     1       7.024   6.437  17.952  0.00  0.00    +0.000 C 
ATOM     12  C   UNL     1       7.803   5.572  18.944  0.00  0.00    +0.000 C 
ATOM     13  C   UNL     1       7.707   7.802  17.801  0.00  0.00    +0.000 C 
ENDBRANCH   9  11
ENDBRANCH   1  10
BRANCH   3  14
ATOM     14  C   UNL     1       2.640   3.514  17.122  0.00  0.00    +0.000 C 
BRANCH  14  15
ATOM     15  C   UNL     1       2.345   4.191  18.434  0.00  0.00    +0.000 A 
ATOM     16  C   UNL     1       2.465   5.584  18.551  0.00  0.00    +0.000 A 
ATOM     17  C   UNL     1       2.199   6.213  19.765  0.00  0.00    +0.000 A 
ATOM     18  F   UNL     1       2.307   7.544  19.853  0.00  0.00    +0.000 F 
ATOM     19  C   UNL     1       1.816   5.483  20.882  0.00  0.00    +0.000 A 
ATOM     20  C   UNL     1       1.708   4.105  20.771  0.00  0.00    +0.000 A 
ATOM     21  F   UNL     1       1.344   3.385  21.839  0.00  0.00    +0.000 F 
ATOM     22  C   UNL     1       1.970   3.454  19.566  0.00  0.00    +0.000 A 
ENDBRANCH  14  15
ENDBRANCH   3  14
TORSDOF 4
ENDMDL
MODEL 4
REMARK VINA RESULT:      -8.1      3.430      4.072
REMARK  Name = 
REMARK  7 active torsions:
REMARK  status: ('A' for Active; 'I' for Inactive)
REMARK    1  A    between atoms: C_1  and  C_2
REMARK    2  A    between atoms: C_5  and  C_6
REMARK    3  A    between atoms: C_6  and  C_7
REMARK    4  A    between atoms: C_6  and  C_8
REMARK    5  A    between atoms: C_9  and  C_10
REMARK    6  A    between atoms: N_12  and  C_13
REMARK    7  A    between atoms: C_13  and  C_14
REMARK                            x       y       z     vdW  Elec       q    Type
REMARK                         _______ _______ _______ _____ _____    ______ ____
ROOT
ATOM      1  C   UNL     1       4.668   4.740  16.921  0.00  0.00    +0.000 C 
ATOM      2  O   UNL     1       4.361   3.570  17.134  0.00  0.00    +0.000 OA
ATOM      3  N   UNL     1       3.900   5.781  17.398  0.00  0.00    +0.000 N 
ATOM      4  H   UNL     1       4.064   6.720  17.084  0.00  0.00    +0.000 HD
ENDROOT
BRANCH   1  10
ATOM      5  C   UNL     1       5.696   3.873  13.813  0.00  0.00    +0.000 C 
ATOM      6  C   UNL     1       6.310   4.742  14.847  0.00  0.00    +0.000 A 
ATOM      7  N   UNL     1       7.479   5.320  14.552  0.00  0.00    +0.000 NA
ATOM      8  O   UNL     1       7.818   6.069  15.649  0.00  0.00    +0.000 OA
ATOM      9  C   UNL     1       6.854   5.962  16.602  0.00  0.00    +0.000 A 
ATOM     10  C   UNL     1       5.858   5.100  16.157  0.00  0.00    +0.000 A 
BRANCH   9  11
ATOM     11  C   UNL     1       7.104   6.747  17.855  0.00  0.00    +0.000 C 
ATOM     12  C   UNL     1       7.864   5.898  18.874  0.00  0.00    +0.000 C 
ATOM     13  C   UNL     1       7.875   8.044  17.576  0.00  0.00    +0.000 C 
ENDBRANCH   9  11
ENDBRANCH   1  10
BRANCH   3  14
ATOM     14  C   UNL     1       2.707   5.559  18.184  0.00  0.00    +0.000 C 
BRANCH  14  15
ATOM     15  C   UNL     1       2.196   6.841  18.787  0.00  0.00    +0.000 A 
ATOM     16  C   UNL     1       2.025   7.978  17.985  0.00  0.00    +0.000 A 
ATOM     17  C   UNL     1       1.558   9.167  18.540  0.00  0.00    +0.000 A 
ATOM     18  F   UNL     1       1.392  10.238  17.755  0.00  0.00    +0.000 F 
ATOM     19  C   UNL     1       1.255   9.257  19.891  0.00  0.00    +0.000 A 
ATOM     20  C   UNL     1       1.433   8.136  20.688  0.00  0.00    +0.000 A 
ATOM     21  F   UNL     1       1.149   8.206  21.995  0.00  0.00    +0.000 F 
ATOM     22  C   UNL     1       1.900   6.935  20.155  0.00  0.00    +0.000 A 
ENDBRANCH  14  15
ENDBRANCH   3  14
TORSDOF 4
ENDMDL
MODEL 5
REMARK VINA RESULT:      -8.1      3.483      4.190
REMARK  Name = 
REMARK  7 active torsions:
REMARK  status: ('A' for Active; 'I' for Inactive)
REMARK    1  A    between atoms: C_1  and  C_2
REMARK    2  A    between atoms: C_5  and  C_6
REMARK    3  A    between atoms: C_6  and  C_7
REMARK    4  A    between atoms: C_6  and  C_8
REMARK    5  A    between atoms: C_9  and  C_10
REMARK    6  A    between atoms: N_12  and  C_13
REMARK    7  A    between atoms: C_13  and  C_14
REMARK                            x       y       z     vdW  Elec       q    Type
REMARK                         _______ _______ _______ _____ _____    ______ ____
ROOT
ATOM      1  C   UNL     1       4.582   4.852  16.973  0.00  0.00    +0.000 C 
ATOM      2  O   UNL     1       3.989   3.785  16.838  0.00  0.00    +0.000 OA
ATOM      3  N   UNL     1       4.147   5.806  17.868  0.00  0.00    +0.000 N 
ATOM      4  H   UNL     1       4.536   6.730  17.856  0.00  0.00    +0.000 HD
ENDROOT
BRANCH   1  10
ATOM      5  C   UNL     1       5.563   3.953  13.859  0.00  0.00    +0.000 C 
ATOM      6  C   UNL     1       6.210   4.802  14.889  0.00  0.00    +0.000 A 
ATOM      7  N   UNL     1       7.395   5.342  14.586  0.00  0.00    +0.000 NA
ATOM      8  O   UNL     1       7.764   6.080  15.681  0.00  0.00    +0.000 OA
ATOM      9  C   UNL     1       6.804   6.005  16.640  0.00  0.00    +0.000 A 
ATOM     10  C   UNL     1       5.778   5.174  16.202  0.00  0.00    +0.000 A 
BRANCH   9  11
ATOM     11  C   UNL     1       7.086   6.781  17.891  0.00  0.00    +0.000 C 
ATOM     12  C   UNL     1       7.850   5.918  18.894  0.00  0.00    +0.000 C 
ATOM     13  C   UNL     1       7.871   8.067  17.604  0.00  0.00    +0.000 C 
ENDBRANCH   9  11
ENDBRANCH   1  10
BRANCH   3  14
ATOM     14  C   UNL     1       2.986   5.601  18.706  0.00  0.00    +0.000 C 
BRANCH  14  15
ATOM     15  C   UNL     1       2.346   6.908  19.093  0.00  0.00    +0.000 A 
ATOM     16  C   UNL     1       1.869   7.101  20.397  0.00  0.00    +0.000 A 
ATOM     17  C   UNL     1       1.272   8.306  20.757  0.00  0.00    +0.000 A 
ATOM     18  F   UNL     1       0.833   8.475  22.010  0.00  0.00    +0.000 F 
ATOM     19  C   UNL     1       1.130   9.338  19.840  0.00  0.00    +0.000 A 
ATOM     20  C   UNL     1       1.591   9.145  18.546  0.00  0.00    +0.000 A 
ATOM     21  F   UNL     1       1.459  10.129  17.647  0.00  0.00    +0.000 F 
ATOM     22  C   UNL     1       2.192   7.947  18.163  0.00  0.00    +0.000 A 
ENDBRANCH  14  15
ENDBRANCH   3  14
TORSDOF 4
ENDMDL
MODEL 6
REMARK VINA RESULT:      -8.0      1.615      2.103
REMARK  Name = 
REMARK  7 active torsions:
REMARK  status: ('A' for Active; 'I' for Inactive)
REMARK    1  A    between atoms: C_1  and  C_2
REMARK    2  A    between atoms: C_5  and  C_6
REMARK    3  A    between atoms: C_6  and  C_7
REMARK    4  A    between atoms: C_6  and  C_8
REMARK    5  A    between atoms: C_9  and  C_10
REMARK    6  A    between atoms: N_12  and  C_13
REMARK    7  A    between atoms: C_13  and  C_14
REMARK                            x       y       z     vdW  Elec       q    Type
REMARK                         _______ _______ _______ _____ _____    ______ ____
ROOT
ATOM      1  C   UNL     1       4.783   3.968  16.338  0.00  0.00    +0.000 C 
ATOM      2  O   UNL     1       3.653   4.098  15.876  0.00  0.00    +0.000 OA
ATOM      3  N   UNL     1       5.018   3.184  17.448  0.00  0.00    +0.000 N 
ATOM      4  H   UNL     1       5.906   3.213  17.913  0.00  0.00    +0.000 HD
ENDROOT
BRANCH   1  10
ATOM      5  C   UNL     1       6.224   3.677  13.288  0.00  0.00    +0.000 C 
ATOM      6  C   UNL     1       6.565   4.516  14.463  0.00  0.00    +0.000 A 
ATOM      7  N   UNL     1       7.621   5.329  14.353  0.00  0.00    +0.000 NA
ATOM      8  O   UNL     1       7.712   5.993  15.549  0.00  0.00    +0.000 OA
ATOM      9  C   UNL     1       6.709   5.600  16.378  0.00  0.00    +0.000 A 
ATOM     10  C   UNL     1       5.942   4.628  15.746  0.00  0.00    +0.000 A 
BRANCH   9  11
ATOM     11  C   UNL     1       6.692   6.265  17.722  0.00  0.00    +0.000 C 
ATOM     12  C   UNL     1       7.299   5.343  18.780  0.00  0.00    +0.000 C 
ATOM     13  C   UNL     1       7.436   7.606  17.709  0.00  0.00    +0.000 C 
ENDBRANCH   9  11
ENDBRANCH   1  10
BRANCH   3  14
ATOM     14  C   UNL     1       3.959   2.461  18.117  0.00  0.00    +0.000 C 
BRANCH  14  15
ATOM     15  C   UNL     1       3.266   3.318  19.143  0.00  0.00    +0.000 A 
ATOM     16  C   UNL     1       2.510   2.723  20.163  0.00  0.00    +0.000 A 
ATOM     17  C   UNL     1       1.863   3.512  21.111  0.00  0.00    +0.000 A 
ATOM     18  F   UNL     1       1.156   2.925  22.084  0.00  0.00    +0.000 F 
ATOM     19  C   UNL     1       1.945   4.897  21.067  0.00  0.00    +0.000 A 
ATOM     20  C   UNL     1       2.684   5.487  20.052  0.00  0.00    +0.000 A 
ATOM     21  F   UNL     1       2.771   6.822  19.992  0.00  0.00    +0.000 F 
ATOM     22  C   UNL     1       3.339   4.717  19.092  0.00  0.00    +0.000 A 
ENDBRANCH  14  15
ENDBRANCH   3  14
TORSDOF 4
ENDMDL
MODEL 7
REMARK VINA RESULT:      -8.0      1.661      1.988
REMARK  Name = 
REMARK  7 active torsions:
REMARK  status: ('A' for Active; 'I' for Inactive)
REMARK    1  A    between atoms: C_1  and  C_2
REMARK    2  A    between atoms: C_5  and  C_6
REMARK    3  A    between atoms: C_6  and  C_7
REMARK    4  A    between atoms: C_6  and  C_8
REMARK    5  A    between atoms: C_9  and  C_10
REMARK    6  A    between atoms: N_12  and  C_13
REMARK    7  A    between atoms: C_13  and  C_14
REMARK                            x       y       z     vdW  Elec       q    Type
REMARK                         _______ _______ _______ _____ _____    ______ ____
ROOT
ATOM      1  C   UNL     1       4.805   3.904  16.291  0.00  0.00    +0.000 C 
ATOM      2  O   UNL     1       3.686   3.947  15.785  0.00  0.00    +0.000 OA
ATOM      3  N   UNL     1       5.038   3.207  17.457  0.00  0.00    +0.000 N 
ATOM      4  H   UNL     1       5.907   3.311  17.948  0.00  0.00    +0.000 HD
ENDROOT
BRANCH   1  10
ATOM      5  C   UNL     1       6.191   3.688  13.209  0.00  0.00    +0.000 C 
ATOM      6  C   UNL     1       6.551   4.501  14.396  0.00  0.00    +0.000 A 
ATOM      7  N   UNL     1       7.602   5.320  14.287  0.00  0.00    +0.000 NA
ATOM      8  O   UNL     1       7.713   5.957  15.495  0.00  0.00    +0.000 OA
ATOM      9  C   UNL     1       6.726   5.542  16.333  0.00  0.00    +0.000 A 
ATOM     10  C   UNL     1       5.950   4.582  15.693  0.00  0.00    +0.000 A 
BRANCH   9  11
ATOM     11  C   UNL     1       6.731   6.175  17.693  0.00  0.00    +0.000 C 
ATOM     12  C   UNL     1       7.563   5.341  18.667  0.00  0.00    +0.000 C 
ATOM     13  C   UNL     1       7.261   7.615  17.653  0.00  0.00    +0.000 C 
ENDBRANCH   9  11
ENDBRANCH   1  10
BRANCH   3  14
ATOM     14  C   UNL     1       3.992   2.476  18.139  0.00  0.00    +0.000 C 
BRANCH  14  15
ATOM     15  C   UNL     1       3.288   3.337  19.154  0.00  0.00    +0.000 A 
ATOM     16  C   UNL     1       3.347   4.734  19.056  0.00  0.00    +0.000 A 
ATOM     17  C   UNL     1       2.702   5.533  19.997  0.00  0.00    +0.000 A 
ATOM     18  F   UNL     1       2.760   6.865  19.879  0.00  0.00    +0.000 F 
ATOM     19  C   UNL     1       1.993   4.971  21.050  0.00  0.00    +0.000 A 
ATOM     20  C   UNL     1       1.942   3.589  21.154  0.00  0.00    +0.000 A 
ATOM     21  F   UNL     1       1.266   3.030  22.166  0.00  0.00    +0.000 F 
ATOM     22  C   UNL     1       2.581   2.769  20.225  0.00  0.00    +0.000 A 
ENDBRANCH  14  15
ENDBRANCH   3  14
TORSDOF 4
ENDMDL
MODEL 8
REMARK VINA RESULT:      -7.7      1.913      3.253
REMARK  Name = 
REMARK  7 active torsions:
REMARK  status: ('A' for Active; 'I' for Inactive)
REMARK    1  A    between atoms: C_1  and  C_2
REMARK    2  A    between atoms: C_5  and  C_6
REMARK    3  A    between atoms: C_6  and  C_7
REMARK    4  A    between atoms: C_6  and  C_8
REMARK    5  A    between atoms: C_9  and  C_10
REMARK    6  A    between atoms: N_12  and  C_13
REMARK    7  A    between atoms: C_13  and  C_14
REMARK                            x       y       z     vdW  Elec       q    Type
REMARK                         _______ _______ _______ _____ _____    ______ ____
ROOT
ATOM      1  C   UNL     1       5.183   5.967  18.568  0.00  0.00    +0.000 C 
ATOM      2  O   UNL     1       5.487   5.452  19.640  0.00  0.00    +0.000 OA
ATOM      3  N   UNL     1       3.901   6.415  18.326  0.00  0.00    +0.000 N 
ATOM      4  H   UNL     1       3.621   6.682  17.400  0.00  0.00    +0.000 HD
ENDROOT
BRANCH   1  10
ATOM      5  C   UNL     1       7.989   7.849  18.344  0.00  0.00    +0.000 C 
ATOM      6  C   UNL     1       7.338   6.931  17.377  0.00  0.00    +0.000 A 
ATOM      7  N   UNL     1       7.925   6.774  16.185  0.00  0.00    +0.000 NA
ATOM      8  O   UNL     1       7.147   5.880  15.496  0.00  0.00    +0.000 OA
ATOM      9  C   UNL     1       6.101   5.481  16.266  0.00  0.00    +0.000 A 
ATOM     10  C   UNL     1       6.151   6.140  17.490  0.00  0.00    +0.000 A 
BRANCH   9  11
ATOM     11  C   UNL     1       5.175   4.490  15.626  0.00  0.00    +0.000 C 
ATOM     12  C   UNL     1       5.626   4.185  14.198  0.00  0.00    +0.000 C 
ATOM     13  C   UNL     1       5.081   3.188  16.433  0.00  0.00    +0.000 C 
ENDBRANCH   9  11
ENDBRANCH   1  10
BRANCH   3  14
ATOM     14  C   UNL     1       2.853   6.320  19.318  0.00  0.00    +0.000 C 
BRANCH  14  15
ATOM     15  C   UNL     1       2.358   4.906  19.467  0.00  0.00    +0.000 A 
ATOM     16  C   UNL     1       2.370   4.036  18.368  0.00  0.00    +0.000 A 
ATOM     17  C   UNL     1       1.908   2.729  18.500  0.00  0.00    +0.000 A 
ATOM     18  F   UNL     1       1.938   1.910  17.442  0.00  0.00    +0.000 F 
ATOM     19  C   UNL     1       1.423   2.259  19.713  0.00  0.00    +0.000 A 
ATOM     20  C   UNL     1       1.400   3.122  20.799  0.00  0.00    +0.000 A 
ATOM     21  F   UNL     1       0.932   2.687  21.975  0.00  0.00    +0.000 F 
ATOM     22  C   UNL     1       1.857   4.434  20.689  0.00  0.00    +0.000 A 
ENDBRANCH  14  15
ENDBRANCH   3  14
TORSDOF 4
ENDMDL
MODEL 9
REMARK VINA RESULT:      -7.7      1.912      3.454
REMARK  Name = 
REMARK  7 active torsions:
REMARK  status: ('A' for Active; 'I' for Inactive)
REMARK    1  A    between atoms: C_1  and  C_2
REMARK    2  A    between atoms: C_5  and  C_6
REMARK    3  A    between atoms: C_6  and  C_7
REMARK    4  A    between atoms: C_6  and  C_8
REMARK    5  A    between atoms: C_9  and  C_10
REMARK    6  A    between atoms: N_12  and  C_13
REMARK    7  A    between atoms: C_13  and  C_14
REMARK                            x       y       z     vdW  Elec       q    Type
REMARK                         _______ _______ _______ _____ _____    ______ ____
ROOT
ATOM      1  C   UNL     1       5.201   5.952  18.595  0.00  0.00    +0.000 C 
ATOM      2  O   UNL     1       5.520   5.449  19.670  0.00  0.00    +0.000 OA
ATOM      3  N   UNL     1       3.911   6.376  18.357  0.00  0.00    +0.000 N 
ATOM      4  H   UNL     1       3.622   6.632  17.431  0.00  0.00    +0.000 HD
ENDROOT
BRANCH   1  10
ATOM      5  C   UNL     1       8.005   7.836  18.365  0.00  0.00    +0.000 C 
ATOM      6  C   UNL     1       7.347   6.926  17.395  0.00  0.00    +0.000 A 
ATOM      7  N   UNL     1       7.925   6.779  16.198  0.00  0.00    +0.000 NA
ATOM      8  O   UNL     1       7.142   5.890  15.508  0.00  0.00    +0.000 OA
ATOM      9  C   UNL     1       6.102   5.484  16.283  0.00  0.00    +0.000 A 
ATOM     10  C   UNL     1       6.161   6.133  17.512  0.00  0.00    +0.000 A 
BRANCH   9  11
ATOM     11  C   UNL     1       5.172   4.498  15.643  0.00  0.00    +0.000 C 
ATOM     12  C   UNL     1       5.590   4.232  14.196  0.00  0.00    +0.000 C 
ATOM     13  C   UNL     1       5.112   3.177  16.420  0.00  0.00    +0.000 C 
ENDBRANCH   9  11
ENDBRANCH   1  10
BRANCH   3  14
ATOM     14  C   UNL     1       2.870   6.271  19.356  0.00  0.00    +0.000 C 
BRANCH  14  15
ATOM     15  C   UNL     1       2.361   4.859  19.477  0.00  0.00    +0.000 A 
ATOM     16  C   UNL     1       1.870   4.390  20.704  0.00  0.00    +0.000 A 
ATOM     17  C   UNL     1       1.403   3.083  20.822  0.00  0.00    +0.000 A 
ATOM     18  F   UNL     1       0.928   2.658  21.998  0.00  0.00    +0.000 F 
ATOM     19  C   UNL     1       1.416   2.217  19.737  0.00  0.00    +0.000 A 
ATOM     20  C   UNL     1       1.911   2.676  18.525  0.00  0.00    +0.000 A 
ATOM     21  F   UNL     1       1.934   1.853  17.469  0.00  0.00    +0.000 F 
ATOM     22  C   UNL     1       2.384   3.980  18.384  0.00  0.00    +0.000 A 
ENDBRANCH  14  15
ENDBRANCH   3  14
TORSDOF 4
ENDMDL
