MODEL 1
REMARK VINA RESULT:      -7.2      0.000      0.000
REMARK  Name = 
REMARK  3 active torsions:
REMARK  status: ('A' for Active; 'I' for Inactive)
REMARK    1  A    between atoms: C_2  and  C_10
REMARK    2  A    between atoms: N_3  and  C_4
REMARK    3  A    between atoms: C_4  and  C_5
REMARK                            x       y       z     vdW  Elec       q    Type
REMARK                         _______ _______ _______ _____ _____    ______ ____
ROOT
ATOM      1  O   UNL     1       5.809   5.309  19.672  0.00  0.00    +0.000 OA
ATOM      2  C   UNL     1       5.301   4.372  19.064  0.00  0.00    +0.000 C 
ATOM      3  N   UNL     1       5.811   3.913  17.868  0.00  0.00    +0.000 N 
ATOM      4  H   UNL     1       5.210   3.380  17.253  0.00  0.00    +0.000 HD
ENDROOT
BRANCH   2   5
ATOM      5  C   UNL     1       4.053   3.643  19.578  0.00  0.00    +0.000 C 
ATOM      6  C   UNL     1       3.493   2.731  18.465  0.00  0.00    +0.000 C 
ATOM      7  C   UNL     1       2.153   2.092  18.817  0.00  0.00    +0.000 C 
ATOM      8  C   UNL     1       1.135   3.142  19.238  0.00  0.00    +0.000 C 
ATOM      9  C   UNL     1       1.668   3.967  20.398  0.00  0.00    +0.000 C 
ATOM     10  F   UNL     1       0.759   4.932  20.701  0.00  0.00    +0.000 F 
ATOM     11  C   UNL     1       2.993   4.640  20.059  0.00  0.00    +0.000 C 
ENDBRANCH   2   5
BRANCH   3  12
ATOM     12  C   UNL     1       6.920   4.611  17.256  0.00  0.00    +0.000 C 
BRANCH  12  13
ATOM     13  C   UNL     1       6.836   4.488  15.777  0.00  0.00    +0.000 A 
ATOM     14  C   UNL     1       5.996   3.725  14.989  0.00  0.00    +0.000 A 
ATOM     15  C   UNL     1       6.265   4.039  13.636  0.00  0.00    +0.000 A 
ATOM     16  C   UNL     1       7.262   4.988  13.629  0.00  0.00    +0.000 A 
ATOM     17  N   UNL     1       7.595   5.265  14.930  0.00  0.00    +0.000 N 
ATOM     18  H   UNL     1       8.281   5.948  15.226  0.00  0.00    +0.000 HD
ENDBRANCH  12  13
ENDBRANCH   3  12
TORSDOF 3
ENDMDL
MODEL 2
REMARK VINA RESULT:      -7.0      1.750      2.178
REMARK  Name = 
REMARK  3 active torsions:
REMARK  status: ('A' for Active; 'I' for Inactive)
REMARK    1  A    between atoms: C_2  and  C_10
REMARK    2  A    between atoms: N_3  and  C_4
REMARK    3  A    between atoms: C_4  and  C_5
REMARK                            x       y       z     vdW  Elec       q    Type
REMARK                         _______ _______ _______ _____ _____    ______ ____
ROOT
ATOM      1  O   UNL     1       3.988   7.023  17.427  0.00  0.00    +0.000 OA
ATOM      2  C   UNL     1       3.898   5.926  17.968  0.00  0.00    +0.000 C 
ATOM      3  N   UNL     1       4.994   5.110  18.158  0.00  0.00    +0.000 N 
ATOM      4  H   UNL     1       4.847   4.120  18.302  0.00  0.00    +0.000 HD
ENDROOT
BRANCH   2   5
ATOM      5  C   UNL     1       2.559   5.367  18.469  0.00  0.00    +0.000 C 
ATOM      6  C   UNL     1       2.502   5.468  20.008  0.00  0.00    +0.000 C 
ATOM      7  C   UNL     1       1.284   4.781  20.618  0.00  0.00    +0.000 C 
ATOM      8  C   UNL     1       1.174   3.337  20.153  0.00  0.00    +0.000 C 
ATOM      9  C   UNL     1       1.137   3.266  18.635  0.00  0.00    +0.000 C 
ATOM     10  F   UNL     1       1.104   1.960  18.260  0.00  0.00    +0.000 F 
ATOM     11  C   UNL     1       2.360   3.920  18.003  0.00  0.00    +0.000 C 
ENDBRANCH   2   5
BRANCH   3  12
ATOM     12  C   UNL     1       6.276   5.510  17.619  0.00  0.00    +0.000 C 
BRANCH  12  13
ATOM     13  C   UNL     1       6.433   4.969  16.244  0.00  0.00    +0.000 A 
ATOM     14  C   UNL     1       5.786   3.924  15.614  0.00  0.00    +0.000 A 
ATOM     15  C   UNL     1       6.239   3.876  14.275  0.00  0.00    +0.000 A 
ATOM     16  C   UNL     1       7.152   4.893  14.117  0.00  0.00    +0.000 A 
ATOM     17  N   UNL     1       7.255   5.560  15.310  0.00  0.00    +0.000 N 
ATOM     18  H   UNL     1       7.834   6.374  15.478  0.00  0.00    +0.000 HD
ENDBRANCH  12  13
ENDBRANCH   3  12
TORSDOF 3
ENDMDL
MODEL 3
REMARK VINA RESULT:      -7.0      1.276      1.392
REMARK  Name = 
REMARK  3 active torsions:
REMARK  status: ('A' for Active; 'I' for Inactive)
REMARK    1  A    between atoms: C_2  and  C_10
REMARK    2  A    between atoms: N_3  and  C_4
REMARK    3  A    between atoms: C_4  and  C_5
REMARK                            x       y       z     vdW  Elec       q    Type
REMARK                         _______ _______ _______ _____ _____    ______ ____
ROOT
ATOM      1  O   UNL     1       4.228   5.653  17.551  0.00  0.00    +0.000 OA
ATOM      2  C   UNL     1       4.510   4.501  17.860  0.00  0.00    +0.000 C 
ATOM      3  N   UNL     1       5.785   3.994  17.711  0.00  0.00    +0.000 N 
ATOM      4  H   UNL     1       5.910   2.992  17.667  0.00  0.00    +0.000 HD
ENDROOT
BRANCH   2   5
ATOM      5  C   UNL     1       3.470   3.525  18.425  0.00  0.00    +0.000 C 
ATOM      6  C   UNL     1       2.064   3.928  17.933  0.00  0.00    +0.000 C 
ATOM      7  C   UNL     1       0.938   3.125  18.578  0.00  0.00    +0.000 C 
ATOM      8  C   UNL     1       1.027   3.170  20.095  0.00  0.00    +0.000 C 
ATOM      9  C   UNL     1       2.387   2.679  20.565  0.00  0.00    +0.000 C 
ATOM     10  F   UNL     1       2.450   2.796  21.918  0.00  0.00    +0.000 F 
ATOM     11  C   UNL     1       3.527   3.488  19.957  0.00  0.00    +0.000 C 
ENDBRANCH   2   5
BRANCH   3  12
ATOM     12  C   UNL     1       6.802   4.810  17.084  0.00  0.00    +0.000 C 
BRANCH  12  13
ATOM     13  C   UNL     1       6.798   4.576  15.617  0.00  0.00    +0.000 A 
ATOM     14  C   UNL     1       6.023   3.729  14.848  0.00  0.00    +0.000 A 
ATOM     15  C   UNL     1       6.353   3.952  13.489  0.00  0.00    +0.000 A 
ATOM     16  C   UNL     1       7.320   4.930  13.461  0.00  0.00    +0.000 A 
ATOM     17  N   UNL     1       7.577   5.313  14.752  0.00  0.00    +0.000 N 
ATOM     18  H   UNL     1       8.226   6.038  15.030  0.00  0.00    +0.000 HD
ENDBRANCH  12  13
ENDBRANCH   3  12
TORSDOF 3
ENDMDL
MODEL 4
REMARK VINA RESULT:      -6.9      2.246      3.140
REMARK  Name = 
REMARK  3 active torsions:
REMARK  status: ('A' for Active; 'I' for Inactive)
REMARK    1  A    between atoms: C_2  and  C_10
REMARK    2  A    between atoms: N_3  and  C_4
REMARK    3  A    between atoms: C_4  and  C_5
REMARK                            x       y       z     vdW  Elec       q    Type
REMARK                         _______ _______ _______ _____ _____    ______ ____
ROOT
ATOM      1  O   UNL     1       3.821   6.282  17.109  0.00  0.00    +0.000 OA
ATOM      2  C   UNL     1       3.775   5.258  17.782  0.00  0.00    +0.000 C 
ATOM      3  N   UNL     1       4.826   4.366  17.830  0.00  0.00    +0.000 N 
ATOM      4  H   UNL     1       4.646   3.413  18.117  0.00  0.00    +0.000 HD
ENDROOT
BRANCH   2   5
ATOM      5  C   UNL     1       2.543   4.878  18.614  0.00  0.00    +0.000 C 
ATOM      6  C   UNL     1       2.939   4.776  20.103  0.00  0.00    +0.000 C 
ATOM      7  C   UNL     1       1.824   4.235  20.994  0.00  0.00    +0.000 C 
ATOM      8  C   UNL     1       1.292   2.910  20.469  0.00  0.00    +0.000 C 
ATOM      9  C   UNL     1       0.819   3.057  19.032  0.00  0.00    +0.000 C 
ATOM     10  F   UNL     1       0.413   1.841  18.580  0.00  0.00    +0.000 F 
ATOM     11  C   UNL     1       1.926   3.567  18.116  0.00  0.00    +0.000 C 
ENDBRANCH   2   5
BRANCH   3  12
ATOM     12  C   UNL     1       5.983   4.589  16.991  0.00  0.00    +0.000 C 
BRANCH  12  13
ATOM     13  C   UNL     1       6.762   5.744  17.509  0.00  0.00    +0.000 A 
ATOM     14  C   UNL     1       7.598   5.841  18.605  0.00  0.00    +0.000 A 
ATOM     15  C   UNL     1       8.166   7.137  18.606  0.00  0.00    +0.000 A 
ATOM     16  C   UNL     1       7.665   7.801  17.510  0.00  0.00    +0.000 A 
ATOM     17  N   UNL     1       6.824   6.948  16.843  0.00  0.00    +0.000 N 
ATOM     18  H   UNL     1       6.336   7.161  15.982  0.00  0.00    +0.000 HD
ENDBRANCH  12  13
ENDBRANCH   3  12
TORSDOF 3
ENDMDL
MODEL 5
REMARK VINA RESULT:      -6.8      2.379      3.330
REMARK  Name = 
REMARK  3 active torsions:
REMARK  status: ('A' for Active; 'I' for Inactive)
REMARK    1  A    between atoms: C_2  and  C_10
REMARK    2  A    between atoms: N_3  and  C_4
REMARK    3  A    between atoms: C_4  and  C_5
REMARK                            x       y       z     vdW  Elec       q    Type
REMARK                         _______ _______ _______ _____ _____    ______ ____
ROOT
ATOM      1  O   UNL     1       3.792   6.358  17.154  0.00  0.00    +0.000 OA
ATOM      2  C   UNL     1       3.617   5.246  17.641  0.00  0.00    +0.000 C 
ATOM      3  N   UNL     1       4.573   4.254  17.563  0.00  0.00    +0.000 N 
ATOM      4  H   UNL     1       4.288   3.291  17.680  0.00  0.00    +0.000 HD
ENDROOT
BRANCH   2   5
ATOM      5  C   UNL     1       2.321   4.864  18.368  0.00  0.00    +0.000 C 
ATOM      6  C   UNL     1       2.522   5.009  19.891  0.00  0.00    +0.000 C 
ATOM      7  C   UNL     1       1.346   4.488  20.713  0.00  0.00    +0.000 C 
ATOM      8  C   UNL     1       0.999   3.057  20.334  0.00  0.00    +0.000 C 
ATOM      9  C   UNL     1       0.712   2.954  18.845  0.00  0.00    +0.000 C 
ATOM     10  F   UNL     1       0.471   1.652  18.536  0.00  0.00    +0.000 F 
ATOM     11  C   UNL     1       1.885   3.441  18.002  0.00  0.00    +0.000 C 
ENDBRANCH   2   5
BRANCH   3  12
ATOM     12  C   UNL     1       5.780   4.492  16.802  0.00  0.00    +0.000 C 
BRANCH  12  13
ATOM     13  C   UNL     1       6.741   5.276  17.620  0.00  0.00    +0.000 A 
ATOM     14  C   UNL     1       7.277   6.533  17.412  0.00  0.00    +0.000 A 
ATOM     15  C   UNL     1       8.074   6.857  18.535  0.00  0.00    +0.000 A 
ATOM     16  C   UNL     1       8.006   5.792  19.404  0.00  0.00    +0.000 A 
ATOM     17  N   UNL     1       7.187   4.843  18.849  0.00  0.00    +0.000 N 
ATOM     18  H   UNL     1       6.933   3.964  19.282  0.00  0.00    +0.000 HD
ENDBRANCH  12  13
ENDBRANCH   3  12
TORSDOF 3
ENDMDL
MODEL 6
REMARK VINA RESULT:      -6.7      1.899      2.809
REMARK  Name = 
REMARK  3 active torsions:
REMARK  status: ('A' for Active; 'I' for Inactive)
REMARK    1  A    between atoms: C_2  and  C_10
REMARK    2  A    between atoms: N_3  and  C_4
REMARK    3  A    between atoms: C_4  and  C_5
REMARK                            x       y       z     vdW  Elec       q    Type
REMARK                         _______ _______ _______ _____ _____    ______ ____
ROOT
ATOM      1  O   UNL     1       4.107   5.425  17.816  0.00  0.00    +0.000 OA
ATOM      2  C   UNL     1       4.235   4.205  17.819  0.00  0.00    +0.000 C 
ATOM      3  N   UNL     1       5.277   3.576  17.170  0.00  0.00    +0.000 N 
ATOM      4  H   UNL     1       5.181   2.600  16.924  0.00  0.00    +0.000 HD
ENDROOT
BRANCH   2   5
ATOM      5  C   UNL     1       3.242   3.279  18.535  0.00  0.00    +0.000 C 
ATOM      6  C   UNL     1       1.826   3.498  17.961  0.00  0.00    +0.000 C 
ATOM      7  C   UNL     1       0.737   2.750  18.724  0.00  0.00    +0.000 C 
ATOM      8  C   UNL     1       0.788   3.066  20.211  0.00  0.00    +0.000 C 
ATOM      9  C   UNL     1       2.164   2.754  20.777  0.00  0.00    +0.000 C 
ATOM     10  F   UNL     1       2.187   3.110  22.088  0.00  0.00    +0.000 F 
ATOM     11  C   UNL     1       3.266   3.515  20.050  0.00  0.00    +0.000 C 
ENDBRANCH   2   5
BRANCH   3  12
ATOM     12  C   UNL     1       6.197   4.364  16.379  0.00  0.00    +0.000 C 
BRANCH  12  13
ATOM     13  C   UNL     1       6.959   5.282  17.264  0.00  0.00    +0.000 A 
ATOM     14  C   UNL     1       7.262   6.622  17.116  0.00  0.00    +0.000 A 
ATOM     15  C   UNL     1       7.934   7.048  18.286  0.00  0.00    +0.000 A 
ATOM     16  C   UNL     1       8.025   5.960  19.122  0.00  0.00    +0.000 A 
ATOM     17  N   UNL     1       7.422   4.896  18.503  0.00  0.00    +0.000 N 
ATOM     18  H   UNL     1       7.315   3.971  18.900  0.00  0.00    +0.000 HD
ENDBRANCH  12  13
ENDBRANCH   3  12
TORSDOF 3
ENDMDL
MODEL 7
REMARK VINA RESULT:      -6.7      1.117      1.201
REMARK  Name = 
REMARK  3 active torsions:
REMARK  status: ('A' for Active; 'I' for Inactive)
REMARK    1  A    between atoms: C_2  and  C_10
REMARK    2  A    between atoms: N_3  and  C_4
REMARK    3  A    between atoms: C_4  and  C_5
REMARK                            x       y       z     vdW  Elec       q    Type
REMARK                         _______ _______ _______ _____ _____    ______ ____
ROOT
ATOM      1  O   UNL     1       6.057   5.712  19.272  0.00  0.00    +0.000 OA
ATOM      2  C   UNL     1       5.419   4.793  18.770  0.00  0.00    +0.000 C 
ATOM      3  N   UNL     1       5.900   4.064  17.702  0.00  0.00    +0.000 N 
ATOM      4  H   UNL     1       5.246   3.553  17.125  0.00  0.00    +0.000 HD
ENDROOT
BRANCH   2   5
ATOM      5  C   UNL     1       4.030   4.385  19.280  0.00  0.00    +0.000 C 
ATOM      6  C   UNL     1       4.052   2.901  19.704  0.00  0.00    +0.000 C 
ATOM      7  C   UNL     1       2.675   2.350  20.064  0.00  0.00    +0.000 C 
ATOM      8  C   UNL     1       1.673   2.593  18.946  0.00  0.00    +0.000 C 
ATOM      9  C   UNL     1       1.598   4.073  18.609  0.00  0.00    +0.000 C 
ATOM     10  F   UNL     1       0.743   4.240  17.565  0.00  0.00    +0.000 F 
ATOM     11  C   UNL     1       2.957   4.639  18.216  0.00  0.00    +0.000 C 
ENDBRANCH   2   5
BRANCH   3  12
ATOM     12  C   UNL     1       7.151   4.451  17.088  0.00  0.00    +0.000 C 
BRANCH  12  13
ATOM     13  C   UNL     1       7.010   4.437  15.609  0.00  0.00    +0.000 A 
ATOM     14  C   UNL     1       6.134   3.738  14.800  0.00  0.00    +0.000 A 
ATOM     15  C   UNL     1       6.355   4.150  13.464  0.00  0.00    +0.000 A 
ATOM     16  C   UNL     1       7.358   5.090  13.488  0.00  0.00    +0.000 A 
ATOM     17  N   UNL     1       7.743   5.269  14.792  0.00  0.00    +0.000 N 
ATOM     18  H   UNL     1       8.445   5.925  15.110  0.00  0.00    +0.000 HD
ENDBRANCH  12  13
ENDBRANCH   3  12
TORSDOF 3
ENDMDL
MODEL 8
REMARK VINA RESULT:      -6.6      2.852      6.120
REMARK  Name = 
REMARK  3 active torsions:
REMARK  status: ('A' for Active; 'I' for Inactive)
REMARK    1  A    between atoms: C_2  and  C_10
REMARK    2  A    between atoms: N_3  and  C_4
REMARK    3  A    between atoms: C_4  and  C_5
REMARK                            x       y       z     vdW  Elec       q    Type
REMARK                         _______ _______ _______ _____ _____    ______ ____
ROOT
ATOM      1  O   UNL     1       5.985   4.814  19.882  0.00  0.00    +0.000 OA
ATOM      2  C   UNL     1       5.641   4.375  18.789  0.00  0.00    +0.000 C 
ATOM      3  N   UNL     1       4.877   3.233  18.666  0.00  0.00    +0.000 N 
ATOM      4  H   UNL     1       4.883   2.733  17.787  0.00  0.00    +0.000 HD
ENDROOT
BRANCH   2   5
ATOM      5  C   UNL     1       6.038   5.053  17.472  0.00  0.00    +0.000 C 
ATOM      6  C   UNL     1       4.914   6.012  17.025  0.00  0.00    +0.000 C 
ATOM      7  C   UNL     1       5.135   6.606  15.637  0.00  0.00    +0.000 C 
ATOM      8  C   UNL     1       5.379   5.518  14.603  0.00  0.00    +0.000 C 
ATOM      9  C   UNL     1       6.552   4.643  15.016  0.00  0.00    +0.000 C 
ATOM     10  F   UNL     1       6.696   3.647  14.101  0.00  0.00    +0.000 F 
ATOM     11  C   UNL     1       6.339   4.013  16.387  0.00  0.00    +0.000 C 
ENDBRANCH   2   5
BRANCH   3  12
ATOM     12  C   UNL     1       4.549   2.469  19.850  0.00  0.00    +0.000 C 
BRANCH  12  13
ATOM     13  C   UNL     1       3.112   2.651  20.182  0.00  0.00    +0.000 A 
ATOM     14  C   UNL     1       2.485   2.774  21.407  0.00  0.00    +0.000 A 
ATOM     15  C   UNL     1       1.111   3.019  21.169  0.00  0.00    +0.000 A 
ATOM     16  C   UNL     1       0.932   3.040  19.805  0.00  0.00    +0.000 A 
ATOM     17  N   UNL     1       2.150   2.829  19.212  0.00  0.00    +0.000 N 
ATOM     18  H   UNL     1       2.322   2.823  18.215  0.00  0.00    +0.000 HD
ENDBRANCH  12  13
ENDBRANCH   3  12
TORSDOF 3
ENDMDL
MODEL 9
REMARK VINA RESULT:      -6.6      1.316      1.534
REMARK  Name = 
REMARK  3 active torsions:
REMARK  status: ('A' for Active; 'I' for Inactive)
REMARK    1  A    between atoms: C_2  and  C_10
REMARK    2  A    between atoms: N_3  and  C_4
REMARK    3  A    between atoms: C_4  and  C_5
REMARK                            x       y       z     vdW  Elec       q    Type
REMARK                         _______ _______ _______ _____ _____    ______ ____
ROOT
ATOM      1  O   UNL     1       4.221   5.424  18.573  0.00  0.00    +0.000 OA
ATOM      2  C   UNL     1       4.445   4.225  18.703  0.00  0.00    +0.000 C 
ATOM      3  N   UNL     1       5.688   3.681  18.453  0.00  0.00    +0.000 N 
ATOM      4  H   UNL     1       5.757   2.691  18.260  0.00  0.00    +0.000 HD
ENDROOT
BRANCH   2   5
ATOM      5  C   UNL     1       3.362   3.232  19.145  0.00  0.00    +0.000 C 
ATOM      6  C   UNL     1       2.147   3.341  18.199  0.00  0.00    +0.000 C 
ATOM      7  C   UNL     1       0.945   2.518  18.654  0.00  0.00    +0.000 C 
ATOM      8  C   UNL     1       0.562   2.847  20.089  0.00  0.00    +0.000 C 
ATOM      9  C   UNL     1       1.747   2.643  21.018  0.00  0.00    +0.000 C 
ATOM     10  F   UNL     1       1.383   3.009  22.276  0.00  0.00    +0.000 F 
ATOM     11  C   UNL     1       2.951   3.479  20.601  0.00  0.00    +0.000 C 
ENDBRANCH   2   5
BRANCH   3  12
ATOM     12  C   UNL     1       6.738   4.526  17.928  0.00  0.00    +0.000 C 
BRANCH  12  13
ATOM     13  C   UNL     1       6.678   4.536  16.443  0.00  0.00    +0.000 A 
ATOM     14  C   UNL     1       7.244   5.406  15.530  0.00  0.00    +0.000 A 
ATOM     15  C   UNL     1       6.958   4.920  14.232  0.00  0.00    +0.000 A 
ATOM     16  C   UNL     1       6.226   3.765  14.382  0.00  0.00    +0.000 A 
ATOM     17  N   UNL     1       6.070   3.531  15.724  0.00  0.00    +0.000 N 
ATOM     18  H   UNL     1       5.596   2.733  16.128  0.00  0.00    +0.000 HD
ENDBRANCH  12  13
ENDBRANCH   3  12
TORSDOF 3
ENDMDL
