MODEL 1
REMARK VINA RESULT:      -8.5      0.000      0.000
REMARK  Name = 
REMARK  4 active torsions:
REMARK  status: ('A' for Active; 'I' for Inactive)
REMARK    1  A    between atoms: C_2  and  C_4
REMARK    2  A    between atoms: C_7  and  C_8
REMARK    3  A    between atoms: C_11  and  C_12
REMARK    4  A    between atoms: C_24  and  O_25
REMARK                            x       y       z     vdW  Elec       q    Type
REMARK                         _______ _______ _______ _____ _____    ______ ____
ROOT
ATOM      1  C   UNL     1       2.883   6.580  18.900  0.00  0.00    +0.000 A 
ATOM      2  C   UNL     1       2.397   5.890  19.995  0.00  0.00    +0.000 A 
ATOM      3  C   UNL     1       1.535   6.681  20.807  0.00  0.00    +0.000 A 
ATOM      4  C   UNL     1       1.368   7.964  20.321  0.00  0.00    +0.000 A 
ATOM      5  S   UNL     1       2.291   8.190  18.895  0.00  0.00    +0.000 S 
ENDROOT
BRANCH   4   6
ATOM      6  C   UNL     1       0.564   9.059  20.890  0.00  0.00    +0.000 A 
ATOM      7  C   UNL     1       0.312   9.082  22.283  0.00  0.00    +0.000 A 
ATOM      8  C   UNL     1      -0.473  10.080  22.865  0.00  0.00    +0.000 A 
ATOM      9  C   UNL     1      -0.995  11.047  22.029  0.00  0.00    +0.000 A 
ATOM     10  C   UNL     1      -0.767  11.056  20.671  0.00  0.00    +0.000 A 
ATOM     11  C   UNL     1       0.011  10.072  20.080  0.00  0.00    +0.000 A 
ATOM     12  C   UNL     1      -1.470  12.205  20.069  0.00  0.00    +0.000 C 
ATOM     13  O   UNL     1      -2.100  12.840  21.203  0.00  0.00    +0.000 OA
ATOM     14  C   UNL     1      -1.843  12.180  22.371  0.00  0.00    +0.000 C 
ATOM     15  O   UNL     1      -2.244  12.476  23.480  0.00  0.00    +0.000 OA
ENDBRANCH   4   6
BRANCH   1  19
ATOM     16  C   UNL     1       5.585   5.138  15.865  0.00  0.00    +0.000 A 
ATOM     17  C   UNL     1       5.326   6.510  15.992  0.00  0.00    +0.000 A 
ATOM     18  C   UNL     1       4.451   6.989  16.973  0.00  0.00    +0.000 A 
ATOM     19  C   UNL     1       3.813   6.109  17.858  0.00  0.00    +0.000 A 
ATOM     20  C   UNL     1       4.072   4.735  17.727  0.00  0.00    +0.000 A 
ATOM     21  C   UNL     1       4.951   4.254  16.749  0.00  0.00    +0.000 A 
BRANCH  16  23
ATOM     22  N   UNL     1       6.215   3.617  14.055  0.00  0.00    +0.000 N 
ATOM     23  C   UNL     1       6.531   4.724  14.786  0.00  0.00    +0.000 C 
ATOM     24  O   UNL     1       7.559   5.349  14.553  0.00  0.00    +0.000 OA
ATOM     25  H   UNL     1       6.833   3.325  13.313  0.00  0.00    +0.000 HD
ATOM     26  H   UNL     1       5.356   3.106  14.233  0.00  0.00    +0.000 HD
ENDBRANCH  16  23
BRANCH  21  27
ATOM     27  O   UNL     1       5.177   2.902  16.684  0.00  0.00    +0.000 OA
ATOM     28  H   UNL     1       5.894   2.730  16.049  0.00  0.00    +0.000 HD
ENDBRANCH  21  27
ENDBRANCH   1  19
TORSDOF 4
ENDMDL
MODEL 2
REMARK VINA RESULT:      -8.3      0.638      1.479
REMARK  Name = 
REMARK  4 active torsions:
REMARK  status: ('A' for Active; 'I' for Inactive)
REMARK    1  A    between atoms: C_2  and  C_4
REMARK    2  A    between atoms: C_7  and  C_8
REMARK    3  A    between atoms: C_11  and  C_12
REMARK    4  A    between atoms: C_24  and  O_25
REMARK                            x       y       z     vdW  Elec       q    Type
REMARK                         _______ _______ _______ _____ _____    ______ ____
ROOT
ATOM      1  C   UNL     1       3.018   6.858  18.537  0.00  0.00    +0.000 A 
ATOM      2  C   UNL     1       2.674   6.341  19.772  0.00  0.00    +0.000 A 
ATOM      3  C   UNL     1       1.770   7.177  20.488  0.00  0.00    +0.000 A 
ATOM      4  C   UNL     1       1.429   8.320  19.789  0.00  0.00    +0.000 A 
ATOM      5  S   UNL     1       2.243   8.367  18.282  0.00  0.00    +0.000 S 
ENDROOT
BRANCH   4   6
ATOM      6  C   UNL     1       0.534   9.412  20.207  0.00  0.00    +0.000 A 
ATOM      7  C   UNL     1       0.081  10.344  19.242  0.00  0.00    +0.000 A 
ATOM      8  C   UNL     1      -0.743  11.416  19.594  0.00  0.00    +0.000 A 
ATOM      9  C   UNL     1      -1.098  11.535  20.923  0.00  0.00    +0.000 A 
ATOM     10  C   UNL     1      -0.677  10.645  21.887  0.00  0.00    +0.000 A 
ATOM     11  C   UNL     1       0.139   9.575  21.550  0.00  0.00    +0.000 A 
ATOM     12  C   UNL     1      -1.219  11.056  23.196  0.00  0.00    +0.000 C 
ATOM     13  O   UNL     1      -1.982  12.241  22.883  0.00  0.00    +0.000 OA
ATOM     14  C   UNL     1      -1.928  12.552  21.553  0.00  0.00    +0.000 C 
ATOM     15  O   UNL     1      -2.464  13.492  21.001  0.00  0.00    +0.000 OA
ENDBRANCH   4   6
BRANCH   1  19
ATOM     16  C   UNL     1       5.697   5.159  15.617  0.00  0.00    +0.000 A 
ATOM     17  C   UNL     1       5.430   6.535  15.620  0.00  0.00    +0.000 A 
ATOM     18  C   UNL     1       4.562   7.097  16.563  0.00  0.00    +0.000 A 
ATOM     19  C   UNL     1       3.940   6.299  17.533  0.00  0.00    +0.000 A 
ATOM     20  C   UNL     1       4.207   4.920  17.526  0.00  0.00    +0.000 A 
ATOM     21  C   UNL     1       5.080   4.356  16.586  0.00  0.00    +0.000 A 
BRANCH  16  23
ATOM     22  N   UNL     1       6.302   3.497  13.926  0.00  0.00    +0.000 N 
ATOM     23  C   UNL     1       6.635   4.652  14.570  0.00  0.00    +0.000 C 
ATOM     24  O   UNL     1       7.670   5.245  14.289  0.00  0.00    +0.000 OA
ATOM     25  H   UNL     1       6.914   3.143  13.207  0.00  0.00    +0.000 HD
ATOM     26  H   UNL     1       5.438   3.012  14.144  0.00  0.00    +0.000 HD
ENDBRANCH  16  23
BRANCH  21  27
ATOM     27  O   UNL     1       5.314   3.005  16.644  0.00  0.00    +0.000 OA
ATOM     28  H   UNL     1       6.210   2.824  16.312  0.00  0.00    +0.000 HD
ENDBRANCH  21  27
ENDBRANCH   1  19
TORSDOF 4
ENDMDL
MODEL 3
REMARK VINA RESULT:      -8.0      1.088      1.385
REMARK  Name = 
REMARK  4 active torsions:
REMARK  status: ('A' for Active; 'I' for Inactive)
REMARK    1  A    between atoms: C_2  and  C_4
REMARK    2  A    between atoms: C_7  and  C_8
REMARK    3  A    between atoms: C_11  and  C_12
REMARK    4  A    between atoms: C_24  and  O_25
REMARK                            x       y       z     vdW  Elec       q    Type
REMARK                         _______ _______ _______ _____ _____    ______ ____
ROOT
ATOM      1  C   UNL     1       3.234   6.269  18.778  0.00  0.00    +0.000 A 
ATOM      2  C   UNL     1       2.783   5.548  19.869  0.00  0.00    +0.000 A 
ATOM      3  C   UNL     1       1.920   6.304  20.711  0.00  0.00    +0.000 A 
ATOM      4  C   UNL     1       1.715   7.592  20.252  0.00  0.00    +0.000 A 
ATOM      5  S   UNL     1       2.606   7.865  18.815  0.00  0.00    +0.000 S 
ENDROOT
BRANCH   4   6
ATOM      6  C   UNL     1       0.898   8.658  20.857  0.00  0.00    +0.000 A 
ATOM      7  C   UNL     1       0.277   8.430  22.108  0.00  0.00    +0.000 A 
ATOM      8  C   UNL     1      -0.535   9.396  22.707  0.00  0.00    +0.000 A 
ATOM      9  C   UNL     1      -0.711  10.586  22.029  0.00  0.00    +0.000 A 
ATOM     10  C   UNL     1      -0.120  10.842  20.812  0.00  0.00    +0.000 A 
ATOM     11  C   UNL     1       0.689   9.891  20.208  0.00  0.00    +0.000 A 
ATOM     12  C   UNL     1      -0.515  12.188  20.354  0.00  0.00    +0.000 C 
ATOM     13  O   UNL     1      -1.366  12.664  21.419  0.00  0.00    +0.000 OA
ATOM     14  C   UNL     1      -1.505  11.743  22.419  0.00  0.00    +0.000 C 
ATOM     15  O   UNL     1      -2.162  11.861  23.434  0.00  0.00    +0.000 OA
ENDBRANCH   4   6
BRANCH   1  19
ATOM     16  C   UNL     1       5.976   5.049  15.683  0.00  0.00    +0.000 A 
ATOM     17  C   UNL     1       4.754   4.382  15.854  0.00  0.00    +0.000 A 
ATOM     18  C   UNL     1       3.857   4.770  16.855  0.00  0.00    +0.000 A 
ATOM     19  C   UNL     1       4.155   5.839  17.711  0.00  0.00    +0.000 A 
ATOM     20  C   UNL     1       5.381   6.503  17.541  0.00  0.00    +0.000 A 
ATOM     21  C   UNL     1       6.277   6.119  16.535  0.00  0.00    +0.000 A 
BRANCH  16  23
ATOM     22  N   UNL     1       6.474   3.453  13.896  0.00  0.00    +0.000 N 
ATOM     23  C   UNL     1       6.867   4.560  14.589  0.00  0.00    +0.000 C 
ATOM     24  O   UNL     1       7.919   5.125  14.311  0.00  0.00    +0.000 OA
ATOM     25  H   UNL     1       7.055   3.112  13.145  0.00  0.00    +0.000 HD
ATOM     26  H   UNL     1       5.597   2.992  14.111  0.00  0.00    +0.000 HD
ENDBRANCH  16  23
BRANCH  21  27
ATOM     27  O   UNL     1       7.450   6.820  16.407  0.00  0.00    +0.000 OA
ATOM     28  H   UNL     1       7.479   7.518  17.085  0.00  0.00    +0.000 HD
ENDBRANCH  21  27
ENDBRANCH   1  19
TORSDOF 4
ENDMDL
MODEL 4
REMARK VINA RESULT:      -8.0      2.524      3.447
REMARK  Name = 
REMARK  4 active torsions:
REMARK  status: ('A' for Active; 'I' for Inactive)
REMARK    1  A    between atoms: C_2  and  C_4
REMARK    2  A    between atoms: C_7  and  C_8
REMARK    3  A    between atoms: C_11  and  C_12
REMARK    4  A    between atoms: C_24  and  O_25
REMARK                            x       y       z     vdW  Elec       q    Type
REMARK                         _______ _______ _______ _____ _____    ______ ____
ROOT
ATOM      1  C   UNL     1       2.316   7.244  19.105  0.00  0.00    +0.000 A 
ATOM      2  C   UNL     1       2.273   8.126  18.041  0.00  0.00    +0.000 A 
ATOM      3  C   UNL     1       1.709   9.386  18.390  0.00  0.00    +0.000 A 
ATOM      4  C   UNL     1       1.331   9.454  19.719  0.00  0.00    +0.000 A 
ATOM      5  S   UNL     1       1.647   7.967  20.509  0.00  0.00    +0.000 S 
ENDROOT
BRANCH   4   6
ATOM      6  C   UNL     1       0.711  10.581  20.435  0.00  0.00    +0.000 A 
ATOM      7  C   UNL     1       1.135  11.901  20.149  0.00  0.00    +0.000 A 
ATOM      8  C   UNL     1       0.601  13.001  20.824  0.00  0.00    +0.000 A 
ATOM      9  C   UNL     1      -0.358  12.752  21.786  0.00  0.00    +0.000 A 
ATOM     10  C   UNL     1      -0.795  11.481  22.087  0.00  0.00    +0.000 A 
ATOM     11  C   UNL     1      -0.274  10.381  21.423  0.00  0.00    +0.000 A 
ATOM     12  C   UNL     1      -1.807  11.557  23.158  0.00  0.00    +0.000 C 
ATOM     13  O   UNL     1      -1.905  12.973  23.423  0.00  0.00    +0.000 OA
ATOM     14  C   UNL     1      -1.062  13.704  22.634  0.00  0.00    +0.000 C 
ATOM     15  O   UNL     1      -0.922  14.911  22.637  0.00  0.00    +0.000 OA
ENDBRANCH   4   6
BRANCH   1  19
ATOM     16  C   UNL     1       3.800   3.196  19.160  0.00  0.00    +0.000 A 
ATOM     17  C   UNL     1       2.435   3.455  19.350  0.00  0.00    +0.000 A 
ATOM     18  C   UNL     1       1.943   4.765  19.334  0.00  0.00    +0.000 A 
ATOM     19  C   UNL     1       2.802   5.852  19.123  0.00  0.00    +0.000 A 
ATOM     20  C   UNL     1       4.169   5.591  18.936  0.00  0.00    +0.000 A 
ATOM     21  C   UNL     1       4.662   4.280  18.947  0.00  0.00    +0.000 A 
BRANCH  16  23
ATOM     22  N   UNL     1       5.171   1.410  20.117  0.00  0.00    +0.000 N 
ATOM     23  C   UNL     1       4.230   1.766  19.197  0.00  0.00    +0.000 C 
ATOM     24  O   UNL     1       3.761   0.931  18.433  0.00  0.00    +0.000 OA
ATOM     25  H   UNL     1       5.468   0.447  20.168  0.00  0.00    +0.000 HD
ATOM     26  H   UNL     1       5.550   2.094  20.763  0.00  0.00    +0.000 HD
ENDBRANCH  16  23
BRANCH  21  27
ATOM     27  O   UNL     1       6.006   4.089  18.740  0.00  0.00    +0.000 OA
ATOM     28  H   UNL     1       6.220   3.151  18.890  0.00  0.00    +0.000 HD
ENDBRANCH  21  27
ENDBRANCH   1  19
TORSDOF 4
ENDMDL
MODEL 5
REMARK VINA RESULT:      -7.9      3.254      9.723
REMARK  Name = 
REMARK  4 active torsions:
REMARK  status: ('A' for Active; 'I' for Inactive)
REMARK    1  A    between atoms: C_2  and  C_4
REMARK    2  A    between atoms: C_7  and  C_8
REMARK    3  A    between atoms: C_11  and  C_12
REMARK    4  A    between atoms: C_24  and  O_25
REMARK                            x       y       z     vdW  Elec       q    Type
REMARK                         _______ _______ _______ _____ _____    ______ ____
ROOT
ATOM      1  C   UNL     1       1.255   7.776  20.697  0.00  0.00    +0.000 A 
ATOM      2  C   UNL     1       1.272   6.450  21.090  0.00  0.00    +0.000 A 
ATOM      3  C   UNL     1       2.104   5.640  20.266  0.00  0.00    +0.000 A 
ATOM      4  C   UNL     1       2.718   6.357  19.256  0.00  0.00    +0.000 A 
ATOM      5  S   UNL     1       2.245   8.003  19.314  0.00  0.00    +0.000 S 
ENDROOT
BRANCH   4   6
ATOM      6  C   UNL     1       3.634   5.864  18.213  0.00  0.00    +0.000 A 
ATOM      7  C   UNL     1       3.288   4.704  17.479  0.00  0.00    +0.000 A 
ATOM      8  C   UNL     1       4.138   4.178  16.503  0.00  0.00    +0.000 A 
ATOM      9  C   UNL     1       5.334   4.833  16.282  0.00  0.00    +0.000 A 
ATOM     10  C   UNL     1       5.700   5.964  16.977  0.00  0.00    +0.000 A 
ATOM     11  C   UNL     1       4.864   6.497  17.947  0.00  0.00    +0.000 A 
ATOM     12  C   UNL     1       7.029   6.408  16.514  0.00  0.00    +0.000 C 
ATOM     13  O   UNL     1       7.369   5.437  15.500  0.00  0.00    +0.000 OA
ATOM     14  C   UNL     1       6.393   4.495  15.342  0.00  0.00    +0.000 C 
ATOM     15  O   UNL     1       6.403   3.555  14.571  0.00  0.00    +0.000 OA
ENDBRANCH   4   6
BRANCH   1  19
ATOM     16  C   UNL     1      -0.964  11.083  22.349  0.00  0.00    +0.000 A 
ATOM     17  C   UNL     1      -0.687   9.952  23.130  0.00  0.00    +0.000 A 
ATOM     18  C   UNL     1       0.032   8.873  22.605  0.00  0.00    +0.000 A 
ATOM     19  C   UNL     1       0.499   8.897  21.283  0.00  0.00    +0.000 A 
ATOM     20  C   UNL     1       0.217  10.029  20.501  0.00  0.00    +0.000 A 
ATOM     21  C   UNL     1      -0.498  11.112  21.028  0.00  0.00    +0.000 A 
BRANCH  16  23
ATOM     22  N   UNL     1      -2.985  11.885  23.471  0.00  0.00    +0.000 N 
ATOM     23  C   UNL     1      -1.741  12.181  22.998  0.00  0.00    +0.000 C 
ATOM     24  O   UNL     1      -1.287  13.314  23.110  0.00  0.00    +0.000 OA
ATOM     25  H   UNL     1      -3.523  12.608  23.924  0.00  0.00    +0.000 HD
ATOM     26  H   UNL     1      -3.358  10.945  23.396  0.00  0.00    +0.000 HD
ENDBRANCH  16  23
BRANCH  21  27
ATOM     27  O   UNL     1      -0.725  12.198  20.219  0.00  0.00    +0.000 OA
ATOM     28  H   UNL     1       0.109  12.684  20.099  0.00  0.00    +0.000 HD
ENDBRANCH  21  27
ENDBRANCH   1  19
TORSDOF 4
ENDMDL
MODEL 6
REMARK VINA RESULT:      -7.9      2.518      3.288
REMARK  Name = 
REMARK  4 active torsions:
REMARK  status: ('A' for Active; 'I' for Inactive)
REMARK    1  A    between atoms: C_2  and  C_4
REMARK    2  A    between atoms: C_7  and  C_8
REMARK    3  A    between atoms: C_11  and  C_12
REMARK    4  A    between atoms: C_24  and  O_25
REMARK                            x       y       z     vdW  Elec       q    Type
REMARK                         _______ _______ _______ _____ _____    ______ ____
ROOT
ATOM      1  C   UNL     1       2.233   7.123  19.553  0.00  0.00    +0.000 A 
ATOM      2  C   UNL     1       2.130   8.020  18.506  0.00  0.00    +0.000 A 
ATOM      3  C   UNL     1       1.516   9.247  18.888  0.00  0.00    +0.000 A 
ATOM      4  C   UNL     1       1.162   9.275  20.225  0.00  0.00    +0.000 A 
ATOM      5  S   UNL     1       1.561   7.791  20.983  0.00  0.00    +0.000 S 
ENDROOT
BRANCH   4   6
ATOM      6  C   UNL     1       0.506  10.361  20.972  0.00  0.00    +0.000 A 
ATOM      7  C   UNL     1      -0.309  10.042  22.085  0.00  0.00    +0.000 A 
ATOM      8  C   UNL     1      -0.979  11.033  22.806  0.00  0.00    +0.000 A 
ATOM      9  C   UNL     1      -0.817  12.340  22.392  0.00  0.00    +0.000 A 
ATOM     10  C   UNL     1      -0.030  12.686  21.315  0.00  0.00    +0.000 A 
ATOM     11  C   UNL     1       0.642  11.711  20.592  0.00  0.00    +0.000 A 
ATOM     12  C   UNL     1      -0.078  14.149  21.129  0.00  0.00    +0.000 C 
ATOM     13  O   UNL     1      -0.948  14.591  22.194  0.00  0.00    +0.000 OA
ATOM     14  C   UNL     1      -1.403  13.550  22.953  0.00  0.00    +0.000 C 
ATOM     15  O   UNL     1      -2.152  13.615  23.908  0.00  0.00    +0.000 OA
ENDBRANCH   4   6
BRANCH   1  19
ATOM     16  C   UNL     1       3.899   3.146  19.504  0.00  0.00    +0.000 A 
ATOM     17  C   UNL     1       2.547   3.347  19.818  0.00  0.00    +0.000 A 
ATOM     18  C   UNL     1       1.996   4.633  19.837  0.00  0.00    +0.000 A 
ATOM     19  C   UNL     1       2.781   5.755  19.538  0.00  0.00    +0.000 A 
ATOM     20  C   UNL     1       4.136   5.552  19.227  0.00  0.00    +0.000 A 
ATOM     21  C   UNL     1       4.687   4.265  19.202  0.00  0.00    +0.000 A 
BRANCH  16  23
ATOM     22  N   UNL     1       3.924   0.893  18.551  0.00  0.00    +0.000 N 
ATOM     23  C   UNL     1       4.395   1.738  19.513  0.00  0.00    +0.000 C 
ATOM     24  O   UNL     1       5.198   1.341  20.348  0.00  0.00    +0.000 OA
ATOM     25  H   UNL     1       4.254  -0.060  18.530  0.00  0.00    +0.000 HD
ATOM     26  H   UNL     1       3.272   1.221  17.847  0.00  0.00    +0.000 HD
ENDBRANCH  16  23
BRANCH  21  27
ATOM     27  O   UNL     1       6.013   4.131  18.873  0.00  0.00    +0.000 OA
ATOM     28  H   UNL     1       6.110   3.398  18.240  0.00  0.00    +0.000 HD
ENDBRANCH  21  27
ENDBRANCH   1  19
TORSDOF 4
ENDMDL
MODEL 7
REMARK VINA RESULT:      -7.9      2.686      3.406
REMARK  Name = 
REMARK  4 active torsions:
REMARK  status: ('A' for Active; 'I' for Inactive)
REMARK    1  A    between atoms: C_2  and  C_4
REMARK    2  A    between atoms: C_7  and  C_8
REMARK    3  A    between atoms: C_11  and  C_12
REMARK    4  A    between atoms: C_24  and  O_25
REMARK                            x       y       z     vdW  Elec       q    Type
REMARK                         _______ _______ _______ _____ _____    ______ ____
ROOT
ATOM      1  C   UNL     1       1.975   7.519  19.657  0.00  0.00    +0.000 A 
ATOM      2  C   UNL     1       1.942   8.445  18.631  0.00  0.00    +0.000 A 
ATOM      3  C   UNL     1       1.250   9.638  18.985  0.00  0.00    +0.000 A 
ATOM      4  C   UNL     1       0.766   9.612  20.280  0.00  0.00    +0.000 A 
ATOM      5  S   UNL     1       1.141   8.119  21.031  0.00  0.00    +0.000 S 
ENDROOT
BRANCH   4   6
ATOM      6  C   UNL     1       0.001  10.652  20.989  0.00  0.00    +0.000 A 
ATOM      7  C   UNL     1      -0.434  10.409  22.314  0.00  0.00    +0.000 A 
ATOM      8  C   UNL     1      -1.191  11.349  23.017  0.00  0.00    +0.000 A 
ATOM      9  C   UNL     1      -1.501  12.529  22.369  0.00  0.00    +0.000 A 
ATOM     10  C   UNL     1      -1.091  12.798  21.082  0.00  0.00    +0.000 A 
ATOM     11  C   UNL     1      -0.338  11.874  20.373  0.00  0.00    +0.000 A 
ATOM     12  C   UNL     1      -1.592  14.127  20.681  0.00  0.00    +0.000 C 
ATOM     13  O   UNL     1      -2.307  14.579  21.852  0.00  0.00    +0.000 OA
ATOM     14  C   UNL     1      -2.275  13.659  22.862  0.00  0.00    +0.000 C 
ATOM     15  O   UNL     1      -2.791  13.760  23.958  0.00  0.00    +0.000 OA
ENDBRANCH   4   6
BRANCH   1  19
ATOM     16  C   UNL     1       3.671   3.555  19.704  0.00  0.00    +0.000 A 
ATOM     17  C   UNL     1       4.091   4.497  18.753  0.00  0.00    +0.000 A 
ATOM     18  C   UNL     1       3.547   5.786  18.729  0.00  0.00    +0.000 A 
ATOM     19  C   UNL     1       2.570   6.171  19.658  0.00  0.00    +0.000 A 
ATOM     20  C   UNL     1       2.149   5.225  20.607  0.00  0.00    +0.000 A 
ATOM     21  C   UNL     1       2.696   3.937  20.636  0.00  0.00    +0.000 A 
BRANCH  16  23
ATOM     22  N   UNL     1       4.055   1.430  18.555  0.00  0.00    +0.000 N 
ATOM     23  C   UNL     1       4.308   2.206  19.648  0.00  0.00    +0.000 C 
ATOM     24  O   UNL     1       5.036   1.797  20.545  0.00  0.00    +0.000 OA
ATOM     25  H   UNL     1       4.484   0.519  18.490  0.00  0.00    +0.000 HD
ATOM     26  H   UNL     1       3.467   1.770  17.802  0.00  0.00    +0.000 HD
ENDBRANCH  16  23
BRANCH  21  27
ATOM     27  O   UNL     1       2.256   3.064  21.600  0.00  0.00    +0.000 OA
ATOM     28  H   UNL     1       2.910   3.029  22.319  0.00  0.00    +0.000 HD
ENDBRANCH  21  27
ENDBRANCH   1  19
TORSDOF 4
ENDMDL
MODEL 8
REMARK VINA RESULT:      -7.9      2.627      3.587
REMARK  Name = 
REMARK  4 active torsions:
REMARK  status: ('A' for Active; 'I' for Inactive)
REMARK    1  A    between atoms: C_2  and  C_4
REMARK    2  A    between atoms: C_7  and  C_8
REMARK    3  A    between atoms: C_11  and  C_12
REMARK    4  A    between atoms: C_24  and  O_25
REMARK                            x       y       z     vdW  Elec       q    Type
REMARK                         _______ _______ _______ _____ _____    ______ ____
ROOT
ATOM      1  C   UNL     1       2.029   7.646  19.229  0.00  0.00    +0.000 A 
ATOM      2  C   UNL     1       1.894   8.527  18.171  0.00  0.00    +0.000 A 
ATOM      3  C   UNL     1       1.345   9.780  18.563  0.00  0.00    +0.000 A 
ATOM      4  C   UNL     1       1.071   9.846  19.917  0.00  0.00    +0.000 A 
ATOM      5  S   UNL     1       1.463   8.363  20.681  0.00  0.00    +0.000 S 
ENDROOT
BRANCH   4   6
ATOM      6  C   UNL     1       0.496  10.967  20.679  0.00  0.00    +0.000 A 
ATOM      7  C   UNL     1       1.081  12.252  20.569  0.00  0.00    +0.000 A 
ATOM      8  C   UNL     1       0.593  13.340  21.297  0.00  0.00    +0.000 A 
ATOM      9  C   UNL     1      -0.485  13.115  22.130  0.00  0.00    +0.000 A 
ATOM     10  C   UNL     1      -1.079  11.879  22.258  0.00  0.00    +0.000 A 
ATOM     11  C   UNL     1      -0.605  10.791  21.541  0.00  0.00    +0.000 A 
ATOM     12  C   UNL     1      -2.188  11.972  23.228  0.00  0.00    +0.000 C 
ATOM     13  O   UNL     1      -2.168  13.362  23.622  0.00  0.00    +0.000 OA
ATOM     14  C   UNL     1      -1.175  14.060  22.997  0.00  0.00    +0.000 C 
ATOM     15  O   UNL     1      -0.912  15.239  23.135  0.00  0.00    +0.000 OA
ENDBRANCH   4   6
BRANCH   1  19
ATOM     16  C   UNL     1       3.455   3.577  19.227  0.00  0.00    +0.000 A 
ATOM     17  C   UNL     1       3.727   4.426  18.145  0.00  0.00    +0.000 A 
ATOM     18  C   UNL     1       3.269   5.748  18.135  0.00  0.00    +0.000 A 
ATOM     19  C   UNL     1       2.529   6.260  19.210  0.00  0.00    +0.000 A 
ATOM     20  C   UNL     1       2.256   5.407  20.292  0.00  0.00    +0.000 A 
ATOM     21  C   UNL     1       2.718   4.085  20.305  0.00  0.00    +0.000 A 
BRANCH  16  23
ATOM     22  N   UNL     1       4.963   1.823  20.023  0.00  0.00    +0.000 N 
ATOM     23  C   UNL     1       3.984   2.183  19.145  0.00  0.00    +0.000 C 
ATOM     24  O   UNL     1       3.561   1.379  18.322  0.00  0.00    +0.000 OA
ATOM     25  H   UNL     1       5.327   0.882  19.993  0.00  0.00    +0.000 HD
ATOM     26  H   UNL     1       5.305   2.479  20.716  0.00  0.00    +0.000 HD
ENDBRANCH  16  23
BRANCH  21  27
ATOM     27  O   UNL     1       2.434   3.308  21.400  0.00  0.00    +0.000 OA
ATOM     28  H   UNL     1       2.127   2.435  21.099  0.00  0.00    +0.000 HD
ENDBRANCH  21  27
ENDBRANCH   1  19
TORSDOF 4
ENDMDL
MODEL 9
REMARK VINA RESULT:      -7.9      2.675      3.522
REMARK  Name = 
REMARK  4 active torsions:
REMARK  status: ('A' for Active; 'I' for Inactive)
REMARK    1  A    between atoms: C_2  and  C_4
REMARK    2  A    between atoms: C_7  and  C_8
REMARK    3  A    between atoms: C_11  and  C_12
REMARK    4  A    between atoms: C_24  and  O_25
REMARK                            x       y       z     vdW  Elec       q    Type
REMARK                         _______ _______ _______ _____ _____    ______ ____
ROOT
ATOM      1  C   UNL     1       1.867   7.776  19.523  0.00  0.00    +0.000 A 
ATOM      2  C   UNL     1       1.744   8.730  18.529  0.00  0.00    +0.000 A 
ATOM      3  C   UNL     1       1.175   9.947  18.999  0.00  0.00    +0.000 A 
ATOM      4  C   UNL     1       0.875   9.913  20.348  0.00  0.00    +0.000 A 
ATOM      5  S   UNL     1       1.266   8.383  21.012  0.00  0.00    +0.000 S 
ENDROOT
BRANCH   4   6
ATOM      6  C   UNL     1       0.274  10.973  21.177  0.00  0.00    +0.000 A 
ATOM      7  C   UNL     1      -0.689  10.625  22.154  0.00  0.00    +0.000 A 
ATOM      8  C   UNL     1      -1.312  11.596  22.942  0.00  0.00    +0.000 A 
ATOM      9  C   UNL     1      -0.952  12.912  22.731  0.00  0.00    +0.000 A 
ATOM     10  C   UNL     1      -0.016  13.284  21.791  0.00  0.00    +0.000 A 
ATOM     11  C   UNL     1       0.610  12.330  21.003  0.00  0.00    +0.000 A 
ATOM     12  C   UNL     1       0.131  14.753  21.808  0.00  0.00    +0.000 C 
ATOM     13  O   UNL     1      -0.791  15.167  22.839  0.00  0.00    +0.000 OA
ATOM     14  C   UNL     1      -1.447  14.107  23.400  0.00  0.00    +0.000 C 
ATOM     15  O   UNL     1      -2.283  14.149  24.281  0.00  0.00    +0.000 OA
ENDBRANCH   4   6
BRANCH   1  19
ATOM     16  C   UNL     1       3.335   3.731  19.262  0.00  0.00    +0.000 A 
ATOM     17  C   UNL     1       3.549   4.633  18.211  0.00  0.00    +0.000 A 
ATOM     18  C   UNL     1       3.077   5.949  18.285  0.00  0.00    +0.000 A 
ATOM     19  C   UNL     1       2.380   6.399  19.415  0.00  0.00    +0.000 A 
ATOM     20  C   UNL     1       2.165   5.492  20.466  0.00  0.00    +0.000 A 
ATOM     21  C   UNL     1       2.641   4.177  20.395  0.00  0.00    +0.000 A 
BRANCH  16  23
ATOM     22  N   UNL     1       4.883   1.953  19.917  0.00  0.00    +0.000 N 
ATOM     23  C   UNL     1       3.874   2.349  19.089  0.00  0.00    +0.000 C 
ATOM     24  O   UNL     1       3.434   1.586  18.237  0.00  0.00    +0.000 OA
ATOM     25  H   UNL     1       5.255   1.020  19.826  0.00  0.00    +0.000 HD
ATOM     26  H   UNL     1       5.239   2.575  20.635  0.00  0.00    +0.000 HD
ENDBRANCH  16  23
BRANCH  21  27
ATOM     27  O   UNL     1       2.415   3.345  21.463  0.00  0.00    +0.000 OA
ATOM     28  H   UNL     1       2.642   2.433  21.208  0.00  0.00    +0.000 HD
ENDBRANCH  21  27
ENDBRANCH   1  19
TORSDOF 4
ENDMDL
