MODEL 1
REMARK VINA RESULT:      -6.6      0.000      0.000
REMARK  Name = 
REMARK  10 active torsions:
REMARK  status: ('A' for Active; 'I' for Inactive)
REMARK    1  A    between atoms: C_1  and  N_2
REMARK    2  A    between atoms: N_2  and  C_3
REMARK    3  A    between atoms: N_2  and  C_6
REMARK    4  A    between atoms: C_3  and  C_4
REMARK    5  A    between atoms: C_4  and  O_5
REMARK    6  A    between atoms: C_6  and  C_7
REMARK    7  A    between atoms: C_10  and  C_11
REMARK    8  A    between atoms: C_15  and  C_17
REMARK    9  A    between atoms: C_17  and  N_18
REMARK   10  A    between atoms: N_25  and  C_26
REMARK                            x       y       z     vdW  Elec       q    Type
REMARK                         _______ _______ _______ _____ _____    ______ ____
ROOT
ATOM      1  C   UNL     1       3.348   5.581  18.854  0.00  0.00    +0.000 C 
ATOM      2  C   UNL     1       4.763   5.495  19.444  0.00  0.00    +0.000 C 
ATOM      3  C   UNL     1       5.890   5.719  18.434  0.00  0.00    +0.000 C 
ATOM      4  N   UNL     1       5.683   4.966  17.198  0.00  0.00    +0.000 N 
ATOM      5  C   UNL     1       6.806   4.408  16.569  0.00  0.00    +0.000 C 
ATOM      6  O   UNL     1       7.928   4.481  17.083  0.00  0.00    +0.000 OA
ATOM      7  C   UNL     1       4.394   5.213  16.563  0.00  0.00    +0.000 C 
ATOM      8  C   UNL     1       3.253   4.857  17.504  0.00  0.00    +0.000 C 
ENDROOT
BRANCH   1  12
ATOM      9  C   UNL     1       1.684   8.830  19.097  0.00  0.00    +0.000 A 
ATOM     10  N   UNL     1       2.329   8.958  17.956  0.00  0.00    +0.000 NA
ATOM     11  N   UNL     1       3.055   7.817  17.749  0.00  0.00    +0.000 NA
ATOM     12  C   UNL     1       2.840   6.991  18.752  0.00  0.00    +0.000 A 
ATOM     13  N   UNL     1       2.005   7.611  19.651  0.00  0.00    +0.000 N 
ATOM     14  C   UNL     1       1.541   7.129  20.926  0.00  0.00    +0.000 C 
BRANCH   9  15
ATOM     15  C   UNL     1       0.757   9.842  19.701  0.00  0.00    +0.000 C 
BRANCH  15  17
ATOM     16  C   UNL     1      -1.344  10.481  18.685  0.00  0.00    +0.000 C 
ATOM     17  N   UNL     1       0.113  10.727  18.700  0.00  0.00    +0.000 NA
BRANCH  17  18
ATOM     18  C   UNL     1       0.332  12.161  19.027  0.00  0.00    +0.000 C 
BRANCH  18  19
ATOM     19  C   UNL     1      -0.939  13.026  18.977  0.00  0.00    +0.000 C 
BRANCH  19  20
ATOM     20  O   UNL     1      -0.641  14.333  18.495  0.00  0.00    +0.000 OA
ATOM     21  H   UNL     1      -0.835  14.311  17.540  0.00  0.00    +0.000 HD
ENDBRANCH  19  20
ENDBRANCH  18  19
ENDBRANCH  17  18
ENDBRANCH  15  17
ENDBRANCH   9  15
ENDBRANCH   1  12
BRANCH   5  22
ATOM     22  C   UNL     1       6.617   3.647  15.237  0.00  0.00    +0.000 C 
BRANCH  22  23
ATOM     23  N   UNL     1       6.251   4.552  14.118  0.00  0.00    +0.000 NA
ATOM     24  C   UNL     1       5.260   3.909  13.240  0.00  0.00    +0.000 C 
ATOM     25  C   UNL     1       6.084   3.140  12.223  0.00  0.00    +0.000 C 
ATOM     26  C   UNL     1       7.275   4.048  11.986  0.00  0.00    +0.000 C 
ATOM     27  C   UNL     1       7.384   4.897  13.248  0.00  0.00    +0.000 C 
ENDBRANCH  22  23
ENDBRANCH   5  22
TORSDOF 8
ENDMDL
MODEL 2
REMARK VINA RESULT:      -6.4      2.934      5.390
REMARK  Name = 
REMARK  10 active torsions:
REMARK  status: ('A' for Active; 'I' for Inactive)
REMARK    1  A    between atoms: C_1  and  N_2
REMARK    2  A    between atoms: N_2  and  C_3
REMARK    3  A    between atoms: N_2  and  C_6
REMARK    4  A    between atoms: C_3  and  C_4
REMARK    5  A    between atoms: C_4  and  O_5
REMARK    6  A    between atoms: C_6  and  C_7
REMARK    7  A    between atoms: C_10  and  C_11
REMARK    8  A    between atoms: C_15  and  C_17
REMARK    9  A    between atoms: C_17  and  N_18
REMARK   10  A    between atoms: N_25  and  C_26
REMARK                            x       y       z     vdW  Elec       q    Type
REMARK                         _______ _______ _______ _____ _____    ______ ____
ROOT
ATOM      1  C   UNL     1      -0.067  10.231  19.639  0.00  0.00    +0.000 C 
ATOM      2  C   UNL     1       0.038   9.122  20.694  0.00  0.00    +0.000 C 
ATOM      3  C   UNL     1       1.391   8.408  20.738  0.00  0.00    +0.000 C 
ATOM      4  N   UNL     1       1.868   8.047  19.403  0.00  0.00    +0.000 N 
ATOM      5  C   UNL     1       2.541   6.825  19.251  0.00  0.00    +0.000 C 
ATOM      6  O   UNL     1       2.660   6.040  20.198  0.00  0.00    +0.000 OA
ATOM      7  C   UNL     1       1.930   9.168  18.472  0.00  0.00    +0.000 C 
ATOM      8  C   UNL     1       0.558   9.804  18.304  0.00  0.00    +0.000 C 
ENDROOT
BRANCH   1  12
ATOM      9  C   UNL     1       1.128  13.649  20.169  0.00  0.00    +0.000 A 
ATOM     10  N   UNL     1       1.698  13.020  21.175  0.00  0.00    +0.000 NA
ATOM     11  N   UNL     1       1.297  11.712  21.141  0.00  0.00    +0.000 NA
ATOM     12  C   UNL     1       0.496  11.542  20.108  0.00  0.00    +0.000 A 
ATOM     13  N   UNL     1       0.331  12.758  19.486  0.00  0.00    +0.000 N 
ATOM     14  C   UNL     1      -0.499  13.081  18.355  0.00  0.00    +0.000 C 
BRANCH   9  15
ATOM     15  C   UNL     1       1.307  15.097  19.822  0.00  0.00    +0.000 C 
BRANCH  15  17
ATOM     16  C   UNL     1       3.029  14.628  18.190  0.00  0.00    +0.000 C 
ATOM     17  N   UNL     1       2.680  15.434  19.378  0.00  0.00    +0.000 NA
BRANCH  17  18
ATOM     18  C   UNL     1       2.790  16.869  19.005  0.00  0.00    +0.000 C 
BRANCH  18  19
ATOM     19  C   UNL     1       1.615  17.402  18.168  0.00  0.00    +0.000 C 
BRANCH  19  20
ATOM     20  O   UNL     1       2.086  18.022  16.975  0.00  0.00    +0.000 OA
ATOM     21  H   UNL     1       1.289  18.218  16.449  0.00  0.00    +0.000 HD
ENDBRANCH  19  20
ENDBRANCH  18  19
ENDBRANCH  17  18
ENDBRANCH  15  17
ENDBRANCH   9  15
ENDBRANCH   1  12
BRANCH   5  22
ATOM     22  C   UNL     1       3.094   6.444  17.859  0.00  0.00    +0.000 C 
BRANCH  22  23
ATOM     23  N   UNL     1       4.459   5.865  17.934  0.00  0.00    +0.000 NA
ATOM     24  C   UNL     1       5.391   6.632  17.091  0.00  0.00    +0.000 C 
ATOM     25  C   UNL     1       5.296   5.985  15.721  0.00  0.00    +0.000 C 
ATOM     26  C   UNL     1       5.129   4.513  16.045  0.00  0.00    +0.000 C 
ATOM     27  C   UNL     1       4.537   4.480  17.449  0.00  0.00    +0.000 C 
ENDBRANCH  22  23
ENDBRANCH   5  22
TORSDOF 8
ENDMDL
MODEL 3
REMARK VINA RESULT:      -6.4      4.114     10.358
REMARK  Name = 
REMARK  10 active torsions:
REMARK  status: ('A' for Active; 'I' for Inactive)
REMARK    1  A    between atoms: C_1  and  N_2
REMARK    2  A    between atoms: N_2  and  C_3
REMARK    3  A    between atoms: N_2  and  C_6
REMARK    4  A    between atoms: C_3  and  C_4
REMARK    5  A    between atoms: C_4  and  O_5
REMARK    6  A    between atoms: C_6  and  C_7
REMARK    7  A    between atoms: C_10  and  C_11
REMARK    8  A    between atoms: C_15  and  C_17
REMARK    9  A    between atoms: C_17  and  N_18
REMARK   10  A    between atoms: N_25  and  C_26
REMARK                            x       y       z     vdW  Elec       q    Type
REMARK                         _______ _______ _______ _____ _____    ______ ____
ROOT
ATOM      1  C   UNL     1       0.898  10.365  18.701  0.00  0.00    +0.000 C 
ATOM      2  C   UNL     1       0.805  11.619  19.579  0.00  0.00    +0.000 C 
ATOM      3  C   UNL     1      -0.513  11.770  20.341  0.00  0.00    +0.000 C 
ATOM      4  N   UNL     1      -1.675  11.517  19.490  0.00  0.00    +0.000 N 
ATOM      5  C   UNL     1      -2.820  12.305  19.684  0.00  0.00    +0.000 C 
ATOM      6  O   UNL     1      -2.822  13.236  20.496  0.00  0.00    +0.000 OA
ATOM      7  C   UNL     1      -1.642  10.228  18.808  0.00  0.00    +0.000 C 
ATOM      8  C   UNL     1      -0.406  10.116  17.929  0.00  0.00    +0.000 C 
ENDROOT
BRANCH   1  12
ATOM      9  C   UNL     1       2.088   7.141  19.959  0.00  0.00    +0.000 A 
ATOM     10  N   UNL     1       1.437   7.600  21.007  0.00  0.00    +0.000 NA
ATOM     11  N   UNL     1       0.967   8.848  20.702  0.00  0.00    +0.000 NA
ATOM     12  C   UNL     1       1.317   9.142  19.466  0.00  0.00    +0.000 A 
ATOM     13  N   UNL     1       2.065   8.100  18.971  0.00  0.00    +0.000 N 
ATOM     14  C   UNL     1       2.717   7.992  17.692  0.00  0.00    +0.000 C 
BRANCH   9  15
ATOM     15  C   UNL     1       2.752   5.801  19.854  0.00  0.00    +0.000 C 
BRANCH  15  17
ATOM     16  C   UNL     1       2.673   3.700  18.658  0.00  0.00    +0.000 C 
ATOM     17  N   UNL     1       1.862   4.739  19.326  0.00  0.00    +0.000 NA
BRANCH  17  18
ATOM     18  C   UNL     1       1.091   4.088  20.418  0.00  0.00    +0.000 C 
BRANCH  18  19
ATOM     19  C   UNL     1       1.763   2.839  21.014  0.00  0.00    +0.000 C 
BRANCH  19  20
ATOM     20  O   UNL     1       2.339   3.133  22.283  0.00  0.00    +0.000 OA
ATOM     21  H   UNL     1       3.221   3.503  22.092  0.00  0.00    +0.000 HD
ENDBRANCH  19  20
ENDBRANCH  18  19
ENDBRANCH  17  18
ENDBRANCH  15  17
ENDBRANCH   9  15
ENDBRANCH   1  12
BRANCH   5  22
ATOM     22  C   UNL     1      -4.075  12.025  18.828  0.00  0.00    +0.000 C 
BRANCH  22  23
ATOM     23  N   UNL     1      -5.285  12.700  19.362  0.00  0.00    +0.000 NA
ATOM     24  C   UNL     1      -6.117  11.747  20.114  0.00  0.00    +0.000 C 
ATOM     25  C   UNL     1      -7.036  11.131  19.075  0.00  0.00    +0.000 C 
ATOM     26  C   UNL     1      -7.335  12.292  18.146  0.00  0.00    +0.000 C 
ATOM     27  C   UNL     1      -6.160  13.249  18.316  0.00  0.00    +0.000 C 
ENDBRANCH  22  23
ENDBRANCH   5  22
TORSDOF 8
ENDMDL
MODEL 4
REMARK VINA RESULT:      -6.4      2.967      4.989
REMARK  Name = 
REMARK  10 active torsions:
REMARK  status: ('A' for Active; 'I' for Inactive)
REMARK    1  A    between atoms: C_1  and  N_2
REMARK    2  A    between atoms: N_2  and  C_3
REMARK    3  A    between atoms: N_2  and  C_6
REMARK    4  A    between atoms: C_3  and  C_4
REMARK    5  A    between atoms: C_4  and  O_5
REMARK    6  A    between atoms: C_6  and  C_7
REMARK    7  A    between atoms: C_10  and  C_11
REMARK    8  A    between atoms: C_15  and  C_17
REMARK    9  A    between atoms: C_17  and  N_18
REMARK   10  A    between atoms: N_25  and  C_26
REMARK                            x       y       z     vdW  Elec       q    Type
REMARK                         _______ _______ _______ _____ _____    ______ ____
ROOT
ATOM      1  C   UNL     1       0.630  10.025  18.901  0.00  0.00    +0.000 C 
ATOM      2  C   UNL     1       0.669   9.196  20.191  0.00  0.00    +0.000 C 
ATOM      3  C   UNL     1       1.884   8.275  20.322  0.00  0.00    +0.000 C 
ATOM      4  N   UNL     1       2.145   7.527  19.092  0.00  0.00    +0.000 N 
ATOM      5  C   UNL     1       2.588   6.201  19.207  0.00  0.00    +0.000 C 
ATOM      6  O   UNL     1       2.682   5.653  20.311  0.00  0.00    +0.000 OA
ATOM      7  C   UNL     1       2.285   8.366  17.907  0.00  0.00    +0.000 C 
ATOM      8  C   UNL     1       1.026   9.187  17.677  0.00  0.00    +0.000 C 
ENDROOT
BRANCH   1  12
ATOM      9  C   UNL     1       2.136  13.301  19.527  0.00  0.00    +0.000 A 
ATOM     10  N   UNL     1       2.823  12.899  18.478  0.00  0.00    +0.000 NA
ATOM     11  N   UNL     1       2.400  11.641  18.149  0.00  0.00    +0.000 NA
ATOM     12  C   UNL     1       1.448  11.282  18.986  0.00  0.00    +0.000 A 
ATOM     13  N   UNL     1       1.276  12.293  19.902  0.00  0.00    +0.000 N 
ATOM     14  C   UNL     1       0.396  12.332  21.042  0.00  0.00    +0.000 C 
BRANCH   9  15
ATOM     15  C   UNL     1       2.268  14.629  20.209  0.00  0.00    +0.000 C 
BRANCH  15  17
ATOM     16  C   UNL     1       0.907  16.629  20.209  0.00  0.00    +0.000 C 
ATOM     17  N   UNL     1       1.783  15.766  19.390  0.00  0.00    +0.000 NA
BRANCH  17  18
ATOM     18  C   UNL     1       2.912  16.597  18.896  0.00  0.00    +0.000 C 
BRANCH  18  19
ATOM     19  C   UNL     1       3.143  16.521  17.377  0.00  0.00    +0.000 C 
BRANCH  19  20
ATOM     20  O   UNL     1       3.787  15.300  17.026  0.00  0.00    +0.000 OA
ATOM     21  H   UNL     1       4.032  15.393  16.086  0.00  0.00    +0.000 HD
ENDBRANCH  19  20
ENDBRANCH  18  19
ENDBRANCH  17  18
ENDBRANCH  15  17
ENDBRANCH   9  15
ENDBRANCH   1  12
BRANCH   5  22
ATOM     22  C   UNL     1       2.915   5.407  17.922  0.00  0.00    +0.000 C 
BRANCH  22  23
ATOM     23  N   UNL     1       4.340   4.995  17.861  0.00  0.00    +0.000 NA
ATOM     24  C   UNL     1       5.203   6.162  17.614  0.00  0.00    +0.000 C 
ATOM     25  C   UNL     1       5.272   6.281  16.103  0.00  0.00    +0.000 C 
ATOM     26  C   UNL     1       5.290   4.836  15.643  0.00  0.00    +0.000 C 
ATOM     27  C   UNL     1       4.632   4.051  16.772  0.00  0.00    +0.000 C 
ENDBRANCH  22  23
ENDBRANCH   5  22
TORSDOF 8
ENDMDL
MODEL 5
REMARK VINA RESULT:      -6.2      3.983     10.343
REMARK  Name = 
REMARK  10 active torsions:
REMARK  status: ('A' for Active; 'I' for Inactive)
REMARK    1  A    between atoms: C_1  and  N_2
REMARK    2  A    between atoms: N_2  and  C_3
REMARK    3  A    between atoms: N_2  and  C_6
REMARK    4  A    between atoms: C_3  and  C_4
REMARK    5  A    between atoms: C_4  and  O_5
REMARK    6  A    between atoms: C_6  and  C_7
REMARK    7  A    between atoms: C_10  and  C_11
REMARK    8  A    between atoms: C_15  and  C_17
REMARK    9  A    between atoms: C_17  and  N_18
REMARK   10  A    between atoms: N_25  and  C_26
REMARK                            x       y       z     vdW  Elec       q    Type
REMARK                         _______ _______ _______ _____ _____    ______ ____
ROOT
ATOM      1  C   UNL     1       0.988  10.329  18.873  0.00  0.00    +0.000 C 
ATOM      2  C   UNL     1       0.797  11.496  19.851  0.00  0.00    +0.000 C 
ATOM      3  C   UNL     1      -0.583  11.561  20.507  0.00  0.00    +0.000 C 
ATOM      4  N   UNL     1      -1.665  11.375  19.540  0.00  0.00    +0.000 N 
ATOM      5  C   UNL     1      -2.836  12.128  19.707  0.00  0.00    +0.000 C 
ATOM      6  O   UNL     1      -2.925  12.981  20.596  0.00  0.00    +0.000 OA
ATOM      7  C   UNL     1      -1.549  10.154  18.750  0.00  0.00    +0.000 C 
ATOM      8  C   UNL     1      -0.242  10.137  17.973  0.00  0.00    +0.000 C 
ENDROOT
BRANCH   1  12
ATOM      9  C   UNL     1       2.106   7.007  19.926  0.00  0.00    +0.000 A 
ATOM     10  N   UNL     1       1.399   7.383  20.971  0.00  0.00    +0.000 NA
ATOM     11  N   UNL     1       0.946   8.654  20.744  0.00  0.00    +0.000 NA
ATOM     12  C   UNL     1       1.364   9.046  19.558  0.00  0.00    +0.000 A 
ATOM     13  N   UNL     1       2.137   8.044  19.020  0.00  0.00    +0.000 N 
ATOM     14  C   UNL     1       2.859   8.038  17.773  0.00  0.00    +0.000 C 
BRANCH   9  15
ATOM     15  C   UNL     1       2.774   5.677  19.748  0.00  0.00    +0.000 C 
BRANCH  15  17
ATOM     16  C   UNL     1       1.789   4.541  17.853  0.00  0.00    +0.000 C 
ATOM     17  N   UNL     1       1.847   4.600  19.328  0.00  0.00    +0.000 NA
BRANCH  17  18
ATOM     18  C   UNL     1       2.301   3.273  19.822  0.00  0.00    +0.000 C 
BRANCH  18  19
ATOM     19  C   UNL     1       3.285   2.549  18.887  0.00  0.00    +0.000 C 
BRANCH  19  20
ATOM     20  O   UNL     1       2.759   1.289  18.480  0.00  0.00    +0.000 OA
ATOM     21  H   UNL     1       3.479   0.850  17.991  0.00  0.00    +0.000 HD
ENDBRANCH  19  20
ENDBRANCH  18  19
ENDBRANCH  17  18
ENDBRANCH  15  17
ENDBRANCH   9  15
ENDBRANCH   1  12
BRANCH   5  22
ATOM     22  C   UNL     1      -4.009  11.914  18.724  0.00  0.00    +0.000 C 
BRANCH  22  23
ATOM     23  N   UNL     1      -5.284  12.477  19.236  0.00  0.00    +0.000 NA
ATOM     24  C   UNL     1      -6.162  11.402  19.727  0.00  0.00    +0.000 C 
ATOM     25  C   UNL     1      -6.955  10.963  18.511  0.00  0.00    +0.000 C 
ATOM     26  C   UNL     1      -7.191  12.262  17.764  0.00  0.00    +0.000 C 
ATOM     27  C   UNL     1      -6.065  13.188  18.213  0.00  0.00    +0.000 C 
ENDBRANCH  22  23
ENDBRANCH   5  22
TORSDOF 8
ENDMDL
MODEL 6
REMARK VINA RESULT:      -6.2      3.882      5.726
REMARK  Name = 
REMARK  10 active torsions:
REMARK  status: ('A' for Active; 'I' for Inactive)
REMARK    1  A    between atoms: C_1  and  N_2
REMARK    2  A    between atoms: N_2  and  C_3
REMARK    3  A    between atoms: N_2  and  C_6
REMARK    4  A    between atoms: C_3  and  C_4
REMARK    5  A    between atoms: C_4  and  O_5
REMARK    6  A    between atoms: C_6  and  C_7
REMARK    7  A    between atoms: C_10  and  C_11
REMARK    8  A    between atoms: C_15  and  C_17
REMARK    9  A    between atoms: C_17  and  N_18
REMARK   10  A    between atoms: N_25  and  C_26
REMARK                            x       y       z     vdW  Elec       q    Type
REMARK                         _______ _______ _______ _____ _____    ______ ____
ROOT
ATOM      1  C   UNL     1       1.482  10.012  19.099  0.00  0.00    +0.000 C 
ATOM      2  C   UNL     1       2.502   9.696  17.997  0.00  0.00    +0.000 C 
ATOM      3  C   UNL     1       2.581   8.220  17.603  0.00  0.00    +0.000 C 
ATOM      4  N   UNL     1       2.630   7.338  18.769  0.00  0.00    +0.000 N 
ATOM      5  C   UNL     1       3.443   6.198  18.700  0.00  0.00    +0.000 C 
ATOM      6  O   UNL     1       4.159   5.983  17.716  0.00  0.00    +0.000 OA
ATOM      7  C   UNL     1       1.536   7.541  19.711  0.00  0.00    +0.000 C 
ATOM      8  C   UNL     1       1.527   8.972  20.227  0.00  0.00    +0.000 C 
ENDROOT
BRANCH   1  12
ATOM      9  C   UNL     1      -2.033  10.754  18.398  0.00  0.00    +0.000 A 
ATOM     10  N   UNL     1      -1.777   9.840  17.487  0.00  0.00    +0.000 NA
ATOM     11  N   UNL     1      -0.459   9.491  17.591  0.00  0.00    +0.000 NA
ATOM     12  C   UNL     1       0.084  10.181  18.573  0.00  0.00    +0.000 A 
ATOM     13  N   UNL     1      -0.872  11.024  19.089  0.00  0.00    +0.000 N 
ATOM     14  C   UNL     1      -0.733  12.010  20.129  0.00  0.00    +0.000 C 
BRANCH   9  15
ATOM     15  C   UNL     1      -3.361  11.403  18.646  0.00  0.00    +0.000 C 
BRANCH  15  17
ATOM     16  C   UNL     1      -5.747  11.056  18.451  0.00  0.00    +0.000 C 
ATOM     17  N   UNL     1      -4.444  10.885  17.776  0.00  0.00    +0.000 NA
BRANCH  17  18
ATOM     18  C   UNL     1      -4.498  11.619  16.485  0.00  0.00    +0.000 C 
BRANCH  18  19
ATOM     19  C   UNL     1      -4.138  10.768  15.254  0.00  0.00    +0.000 C 
BRANCH  19  20
ATOM     20  O   UNL     1      -2.739  10.826  14.992  0.00  0.00    +0.000 OA
ATOM     21  H   UNL     1      -2.554  11.754  14.758  0.00  0.00    +0.000 HD
ENDBRANCH  19  20
ENDBRANCH  18  19
ENDBRANCH  17  18
ENDBRANCH  15  17
ENDBRANCH   9  15
ENDBRANCH   1  12
BRANCH   5  22
ATOM     22  C   UNL     1       3.475   5.228  19.903  0.00  0.00    +0.000 C 
BRANCH  22  23
ATOM     23  N   UNL     1       2.989   3.871  19.546  0.00  0.00    +0.000 NA
ATOM     24  C   UNL     1       1.604   3.933  19.050  0.00  0.00    +0.000 C 
ATOM     25  C   UNL     1       0.742   3.811  20.293  0.00  0.00    +0.000 C 
ATOM     26  C   UNL     1       1.513   2.830  21.154  0.00  0.00    +0.000 C 
ATOM     27  C   UNL     1       2.959   2.940  20.684  0.00  0.00    +0.000 C 
ENDBRANCH  22  23
ENDBRANCH   5  22
TORSDOF 8
ENDMDL
MODEL 7
REMARK VINA RESULT:      -6.2      3.143      5.647
REMARK  Name = 
REMARK  10 active torsions:
REMARK  status: ('A' for Active; 'I' for Inactive)
REMARK    1  A    between atoms: C_1  and  N_2
REMARK    2  A    between atoms: N_2  and  C_3
REMARK    3  A    between atoms: N_2  and  C_6
REMARK    4  A    between atoms: C_3  and  C_4
REMARK    5  A    between atoms: C_4  and  O_5
REMARK    6  A    between atoms: C_6  and  C_7
REMARK    7  A    between atoms: C_10  and  C_11
REMARK    8  A    between atoms: C_15  and  C_17
REMARK    9  A    between atoms: C_17  and  N_18
REMARK   10  A    between atoms: N_25  and  C_26
REMARK                            x       y       z     vdW  Elec       q    Type
REMARK                         _______ _______ _______ _____ _____    ______ ____
ROOT
ATOM      1  C   UNL     1      -0.089  10.449  19.579  0.00  0.00    +0.000 C 
ATOM      2  C   UNL     1      -0.075   9.310  20.608  0.00  0.00    +0.000 C 
ATOM      3  C   UNL     1       1.251   8.551  20.702  0.00  0.00    +0.000 C 
ATOM      4  N   UNL     1       1.787   8.209  19.386  0.00  0.00    +0.000 N 
ATOM      5  C   UNL     1       2.427   6.970  19.236  0.00  0.00    +0.000 C 
ATOM      6  O   UNL     1       2.471   6.158  20.166  0.00  0.00    +0.000 OA
ATOM      7  C   UNL     1       1.933   9.350  18.490  0.00  0.00    +0.000 C 
ATOM      8  C   UNL     1       0.593  10.035  18.268  0.00  0.00    +0.000 C 
ENDROOT
BRANCH   1  12
ATOM      9  C   UNL     1       1.189  13.809  20.261  0.00  0.00    +0.000 A 
ATOM     10  N   UNL     1       1.675  13.138  21.284  0.00  0.00    +0.000 NA
ATOM     11  N   UNL     1       1.231  11.847  21.195  0.00  0.00    +0.000 NA
ATOM     12  C   UNL     1       0.490  11.728  20.112  0.00  0.00    +0.000 A 
ATOM     13  N   UNL     1       0.405  12.962  19.510  0.00  0.00    +0.000 N 
ATOM     14  C   UNL     1      -0.345  13.340  18.340  0.00  0.00    +0.000 C 
BRANCH   9  15
ATOM     15  C   UNL     1       1.437  15.257  19.961  0.00  0.00    +0.000 C 
BRANCH  15  17
ATOM     16  C   UNL     1       2.358  16.467  18.079  0.00  0.00    +0.000 C 
ATOM     17  N   UNL     1       2.655  15.492  19.149  0.00  0.00    +0.000 NA
BRANCH  17  18
ATOM     18  C   UNL     1       3.759  16.045  19.977  0.00  0.00    +0.000 C 
BRANCH  18  19
ATOM     19  C   UNL     1       4.833  15.017  20.373  0.00  0.00    +0.000 C 
BRANCH  19  20
ATOM     20  O   UNL     1       4.467  14.340  21.572  0.00  0.00    +0.000 OA
ATOM     21  H   UNL     1       4.227  13.435  21.300  0.00  0.00    +0.000 HD
ENDBRANCH  19  20
ENDBRANCH  18  19
ENDBRANCH  17  18
ENDBRANCH  15  17
ENDBRANCH   9  15
ENDBRANCH   1  12
BRANCH   5  22
ATOM     22  C   UNL     1       3.042   6.606  17.865  0.00  0.00    +0.000 C 
BRANCH  22  23
ATOM     23  N   UNL     1       4.371   5.957  17.997  0.00  0.00    +0.000 NA
ATOM     24  C   UNL     1       5.375   6.673  17.191  0.00  0.00    +0.000 C 
ATOM     25  C   UNL     1       5.303   6.028  15.820  0.00  0.00    +0.000 C 
ATOM     26  C   UNL     1       5.047   4.567  16.138  0.00  0.00    +0.000 C 
ATOM     27  C   UNL     1       4.396   4.568  17.517  0.00  0.00    +0.000 C 
ENDBRANCH  22  23
ENDBRANCH   5  22
TORSDOF 8
ENDMDL
MODEL 8
REMARK VINA RESULT:      -6.2      1.142      1.294
REMARK  Name = 
REMARK  10 active torsions:
REMARK  status: ('A' for Active; 'I' for Inactive)
REMARK    1  A    between atoms: C_1  and  N_2
REMARK    2  A    between atoms: N_2  and  C_3
REMARK    3  A    between atoms: N_2  and  C_6
REMARK    4  A    between atoms: C_3  and  C_4
REMARK    5  A    between atoms: C_4  and  O_5
REMARK    6  A    between atoms: C_6  and  C_7
REMARK    7  A    between atoms: C_10  and  C_11
REMARK    8  A    between atoms: C_15  and  C_17
REMARK    9  A    between atoms: C_17  and  N_18
REMARK   10  A    between atoms: N_25  and  C_26
REMARK                            x       y       z     vdW  Elec       q    Type
REMARK                         _______ _______ _______ _____ _____    ______ ____
ROOT
ATOM      1  C   UNL     1       3.260   5.794  18.824  0.00  0.00    +0.000 C 
ATOM      2  C   UNL     1       4.678   5.745  19.410  0.00  0.00    +0.000 C 
ATOM      3  C   UNL     1       5.799   5.926  18.385  0.00  0.00    +0.000 C 
ATOM      4  N   UNL     1       5.591   5.112  17.188  0.00  0.00    +0.000 N 
ATOM      5  C   UNL     1       6.714   4.529  16.582  0.00  0.00    +0.000 C 
ATOM      6  O   UNL     1       7.837   4.635  17.086  0.00  0.00    +0.000 OA
ATOM      7  C   UNL     1       4.297   5.319  16.548  0.00  0.00    +0.000 C 
ATOM      8  C   UNL     1       3.163   5.004  17.511  0.00  0.00    +0.000 C 
ENDROOT
BRANCH   1  12
ATOM      9  C   UNL     1       1.577   9.042  18.914  0.00  0.00    +0.000 A 
ATOM     10  N   UNL     1       2.215   9.116  17.765  0.00  0.00    +0.000 NA
ATOM     11  N   UNL     1       2.947   7.970  17.610  0.00  0.00    +0.000 NA
ATOM     12  C   UNL     1       2.743   7.194  18.655  0.00  0.00    +0.000 A 
ATOM     13  N   UNL     1       1.909   7.854  19.527  0.00  0.00    +0.000 N 
ATOM     14  C   UNL     1       1.455   7.433  20.827  0.00  0.00    +0.000 C 
BRANCH   9  15
ATOM     15  C   UNL     1       0.648  10.077  19.472  0.00  0.00    +0.000 C 
BRANCH  15  17
ATOM     16  C   UNL     1       1.442  12.260  18.795  0.00  0.00    +0.000 C 
ATOM     17  N   UNL     1       1.337  11.310  19.923  0.00  0.00    +0.000 NA
BRANCH  17  18
ATOM     18  C   UNL     1       0.585  11.980  21.017  0.00  0.00    +0.000 C 
BRANCH  18  19
ATOM     19  C   UNL     1       0.679  13.515  21.006  0.00  0.00    +0.000 C 
BRANCH  19  20
ATOM     20  O   UNL     1       1.656  13.967  21.940  0.00  0.00    +0.000 OA
ATOM     21  H   UNL     1       1.588  14.940  21.941  0.00  0.00    +0.000 HD
ENDBRANCH  19  20
ENDBRANCH  18  19
ENDBRANCH  17  18
ENDBRANCH  15  17
ENDBRANCH   9  15
ENDBRANCH   1  12
BRANCH   5  22
ATOM     22  C   UNL     1       6.523   3.703  15.291  0.00  0.00    +0.000 C 
BRANCH  22  23
ATOM     23  N   UNL     1       6.160   4.550  14.127  0.00  0.00    +0.000 NA
ATOM     24  C   UNL     1       5.218   3.839  13.247  0.00  0.00    +0.000 C 
ATOM     25  C   UNL     1       6.097   3.062  12.285  0.00  0.00    +0.000 C 
ATOM     26  C   UNL     1       7.263   4.002  12.046  0.00  0.00    +0.000 C 
ATOM     27  C   UNL     1       7.306   4.902  13.276  0.00  0.00    +0.000 C 
ENDBRANCH  22  23
ENDBRANCH   5  22
TORSDOF 8
ENDMDL
MODEL 9
REMARK VINA RESULT:      -6.2      3.276      5.606
REMARK  Name = 
REMARK  10 active torsions:
REMARK  status: ('A' for Active; 'I' for Inactive)
REMARK    1  A    between atoms: C_1  and  N_2
REMARK    2  A    between atoms: N_2  and  C_3
REMARK    3  A    between atoms: N_2  and  C_6
REMARK    4  A    between atoms: C_3  and  C_4
REMARK    5  A    between atoms: C_4  and  O_5
REMARK    6  A    between atoms: C_6  and  C_7
REMARK    7  A    between atoms: C_10  and  C_11
REMARK    8  A    between atoms: C_15  and  C_17
REMARK    9  A    between atoms: C_17  and  N_18
REMARK   10  A    between atoms: N_25  and  C_26
REMARK                            x       y       z     vdW  Elec       q    Type
REMARK                         _______ _______ _______ _____ _____    ______ ____
ROOT
ATOM      1  C   UNL     1       0.002  10.251  19.762  0.00  0.00    +0.000 C 
ATOM      2  C   UNL     1       0.062   9.128  20.806  0.00  0.00    +0.000 C 
ATOM      3  C   UNL     1       1.384   8.359  20.841  0.00  0.00    +0.000 C 
ATOM      4  N   UNL     1       1.845   7.991  19.503  0.00  0.00    +0.000 N 
ATOM      5  C   UNL     1       2.466   6.744  19.338  0.00  0.00    +0.000 C 
ATOM      6  O   UNL     1       2.553   5.945  20.277  0.00  0.00    +0.000 OA
ATOM      7  C   UNL     1       1.952   9.117  18.582  0.00  0.00    +0.000 C 
ATOM      8  C   UNL     1       0.608   9.811  18.422  0.00  0.00    +0.000 C 
ENDROOT
BRANCH   1  12
ATOM      9  C   UNL     1       1.397  13.591  20.302  0.00  0.00    +0.000 A 
ATOM     10  N   UNL     1       1.836  12.954  21.367  0.00  0.00    +0.000 NA
ATOM     11  N   UNL     1       1.344  11.678  21.334  0.00  0.00    +0.000 NA
ATOM     12  C   UNL     1       0.620  11.533  20.242  0.00  0.00    +0.000 A 
ATOM     13  N   UNL     1       0.596  12.737  19.577  0.00  0.00    +0.000 N 
ATOM     14  C   UNL     1      -0.115  13.083  18.374  0.00  0.00    +0.000 C 
BRANCH   9  15
ATOM     15  C   UNL     1       1.709  15.010  19.934  0.00  0.00    +0.000 C 
BRANCH  15  17
ATOM     16  C   UNL     1       3.711  14.395  18.724  0.00  0.00    +0.000 C 
ATOM     17  N   UNL     1       3.158  15.276  19.774  0.00  0.00    +0.000 NA
BRANCH  17  18
ATOM     18  C   UNL     1       3.408  16.684  19.368  0.00  0.00    +0.000 C 
BRANCH  18  19
ATOM     19  C   UNL     1       4.734  16.906  18.621  0.00  0.00    +0.000 C 
BRANCH  19  20
ATOM     20  O   UNL     1       5.591  17.772  19.360  0.00  0.00    +0.000 OA
ATOM     21  H   UNL     1       5.751  17.321  20.209  0.00  0.00    +0.000 HD
ENDBRANCH  19  20
ENDBRANCH  18  19
ENDBRANCH  17  18
ENDBRANCH  15  17
ENDBRANCH   9  15
ENDBRANCH   1  12
BRANCH   5  22
ATOM     22  C   UNL     1       3.001   6.353  17.942  0.00  0.00    +0.000 C 
BRANCH  22  23
ATOM     23  N   UNL     1       4.380   5.805  17.999  0.00  0.00    +0.000 NA
ATOM     24  C   UNL     1       5.304   6.654  17.229  0.00  0.00    +0.000 C 
ATOM     25  C   UNL     1       5.248   6.106  15.816  0.00  0.00    +0.000 C 
ATOM     26  C   UNL     1       5.116   4.610  16.030  0.00  0.00    +0.000 C 
ATOM     27  C   UNL     1       4.502   4.461  17.418  0.00  0.00    +0.000 C 
ENDBRANCH  22  23
ENDBRANCH   5  22
TORSDOF 8
ENDMDL
