MODEL 1
REMARK VINA RESULT:     -10.1      0.000      0.000
REMARK  Name = 
REMARK  9 active torsions:
REMARK  status: ('A' for Active; 'I' for Inactive)
REMARK    1  A    between atoms: C_1  and  O_2
REMARK    2  A    between atoms: O_2  and  C_3
REMARK    3  A    between atoms: C_9  and  C_10
REMARK    4  A    between atoms: N_12  and  C_13
REMARK    5  A    between atoms: C_15  and  C_16
REMARK    6  A    between atoms: C_16  and  O_18
REMARK    7  A    between atoms: C_20  and  C_21
REMARK    8  A    between atoms: N_28  and  C_29
REMARK    9  A    between atoms: C_34  and  C_35
REMARK                            x       y       z     vdW  Elec       q    Type
REMARK                         _______ _______ _______ _____ _____    ______ ____
ROOT
ATOM      1  C   UNL     1       1.302   9.803  18.198  0.00  0.00    +0.000 A 
ATOM      2  C   UNL     1       2.194  10.868  18.311  0.00  0.00    +0.000 A 
ATOM      3  C   UNL     1       1.745  12.155  18.570  0.00  0.00    +0.000 A 
ATOM      4  C   UNL     1       0.374  12.398  18.666  0.00  0.00    +0.000 A 
ATOM      5  C   UNL     1      -0.568  11.357  18.546  0.00  0.00    +0.000 A 
ATOM      6  C   UNL     1      -0.076  10.053  18.301  0.00  0.00    +0.000 A 
ENDROOT
BRANCH   5   7
ATOM      7  C   UNL     1      -2.020  11.654  18.630  0.00  0.00    +0.000 A 
ATOM      8  C   UNL     1      -2.921  11.234  17.631  0.00  0.00    +0.000 A 
ATOM      9  C   UNL     1      -4.310  11.408  17.731  0.00  0.00    +0.000 A 
ATOM     10  C   UNL     1      -4.788  12.048  18.880  0.00  0.00    +0.000 A 
ATOM     11  C   UNL     1      -3.937  12.509  19.875  0.00  0.00    +0.000 A 
ATOM     12  C   UNL     1      -4.789  13.078  20.844  0.00  0.00    +0.000 A 
ATOM     13  N   UNL     1      -6.076  12.990  20.512  0.00  0.00    +0.000 NA
ATOM     14  N   UNL     1      -6.051  12.359  19.320  0.00  0.00    +0.000 N 
ATOM     15  C   UNL     1      -7.295  12.073  18.647  0.00  0.00    +0.000 C 
ATOM     16  C   UNL     1      -2.551  12.323  19.750  0.00  0.00    +0.000 A 
ENDBRANCH   5   7
BRANCH   1  19
ATOM     17  C   UNL     1       2.176   7.606  18.948  0.00  0.00    +0.000 C 
ATOM     18  O   UNL     1       2.078   7.809  20.156  0.00  0.00    +0.000 OA
ATOM     19  N   UNL     1       1.761   8.488  17.957  0.00  0.00    +0.000 N 
ATOM     20  H   UNL     1       1.675   8.125  17.015  0.00  0.00    +0.000 HD
BRANCH  17  27
ATOM     21  C   UNL     1       6.119   6.148  16.830  0.00  0.00    +0.000 A 
ATOM     22  C   UNL     1       6.092   4.779  16.596  0.00  0.00    +0.000 A 
ATOM     23  C   UNL     1       5.006   3.996  16.990  0.00  0.00    +0.000 A 
ATOM     24  C   UNL     1       3.913   4.615  17.621  0.00  0.00    +0.000 A 
ATOM     25  C   UNL     1       3.908   6.000  17.843  0.00  0.00    +0.000 A 
ATOM     26  C   UNL     1       5.036   6.760  17.461  0.00  0.00    +0.000 A 
ATOM     27  C   UNL     1       2.682   6.323  18.477  0.00  0.00    +0.000 A 
ATOM     28  C   UNL     1       2.006   5.129  18.662  0.00  0.00    +0.000 A 
ATOM     29  N   UNL     1       2.721   4.075  18.132  0.00  0.00    +0.000 N 
ATOM     30  C   UNL     1       2.357   2.702  18.098  0.00  0.00    +0.000 C 
ATOM     31  C   UNL     1       1.034   2.306  18.686  0.00  0.00    +0.000 C 
ATOM     32  O   UNL     1       3.108   1.880  17.588  0.00  0.00    +0.000 OA
BRANCH  21  34
ATOM     33  C   UNL     1       7.627   7.821  17.540  0.00  0.00    +0.000 C 
ATOM     34  O   UNL     1       7.142   6.991  16.491  0.00  0.00    +0.000 OA
ENDBRANCH  21  34
ENDBRANCH  17  27
ENDBRANCH   1  19
BRANCH   3  35
ATOM     35  C   UNL     1       2.698  13.286  18.664  0.00  0.00    +0.000 C 
ATOM     36  O   UNL     1       3.063  13.740  19.741  0.00  0.00    +0.000 OA
BRANCH  35  37
ATOM     37  O   UNL     1       3.158  13.751  17.483  0.00  0.00    +0.000 OA
ATOM     38  H   UNL     1       4.015  13.404  17.171  0.00  0.00    +0.000 HD
ENDBRANCH  35  37
ENDBRANCH   3  35
TORSDOF 6
ENDMDL
MODEL 2
REMARK VINA RESULT:     -10.0      0.561      1.212
REMARK  Name = 
REMARK  9 active torsions:
REMARK  status: ('A' for Active; 'I' for Inactive)
REMARK    1  A    between atoms: C_1  and  O_2
REMARK    2  A    between atoms: O_2  and  C_3
REMARK    3  A    between atoms: C_9  and  C_10
REMARK    4  A    between atoms: N_12  and  C_13
REMARK    5  A    between atoms: C_15  and  C_16
REMARK    6  A    between atoms: C_16  and  O_18
REMARK    7  A    between atoms: C_20  and  C_21
REMARK    8  A    between atoms: N_28  and  C_29
REMARK    9  A    between atoms: C_34  and  C_35
REMARK                            x       y       z     vdW  Elec       q    Type
REMARK                         _______ _______ _______ _____ _____    ______ ____
ROOT
ATOM      1  C   UNL     1       1.293   9.869  18.205  0.00  0.00    +0.000 A 
ATOM      2  C   UNL     1       2.164  10.956  18.166  0.00  0.00    +0.000 A 
ATOM      3  C   UNL     1       1.717  12.243  18.428  0.00  0.00    +0.000 A 
ATOM      4  C   UNL     1       0.362  12.462  18.682  0.00  0.00    +0.000 A 
ATOM      5  C   UNL     1      -0.560  11.397  18.720  0.00  0.00    +0.000 A 
ATOM      6  C   UNL     1      -0.068  10.094  18.468  0.00  0.00    +0.000 A 
ENDROOT
BRANCH   5   7
ATOM      7  C   UNL     1      -1.998  11.666  18.971  0.00  0.00    +0.000 A 
ATOM      8  C   UNL     1      -2.428  12.396  20.098  0.00  0.00    +0.000 A 
ATOM      9  C   UNL     1      -3.769  12.755  20.310  0.00  0.00    +0.000 A 
ATOM     10  C   UNL     1      -4.697  12.337  19.349  0.00  0.00    +0.000 A 
ATOM     11  C   UNL     1      -4.326  11.588  18.242  0.00  0.00    +0.000 A 
ATOM     12  C   UNL     1      -5.524  11.377  17.530  0.00  0.00    +0.000 A 
ATOM     13  N   UNL     1      -6.578  11.943  18.118  0.00  0.00    +0.000 NA
ATOM     14  N   UNL     1      -6.052  12.522  19.217  0.00  0.00    +0.000 N 
ATOM     15  C   UNL     1      -6.916  13.255  20.111  0.00  0.00    +0.000 C 
ATOM     16  C   UNL     1      -2.978  11.242  18.053  0.00  0.00    +0.000 A 
ENDBRANCH   5   7
BRANCH   1  19
ATOM     17  C   UNL     1       2.141   7.660  18.952  0.00  0.00    +0.000 C 
ATOM     18  O   UNL     1       2.014   7.851  20.159  0.00  0.00    +0.000 OA
ATOM     19  N   UNL     1       1.754   8.555  17.960  0.00  0.00    +0.000 N 
ATOM     20  H   UNL     1       1.690   8.203  17.012  0.00  0.00    +0.000 HD
BRANCH  17  27
ATOM     21  C   UNL     1       6.102   6.223  16.853  0.00  0.00    +0.000 A 
ATOM     22  C   UNL     1       6.081   4.854  16.613  0.00  0.00    +0.000 A 
ATOM     23  C   UNL     1       4.995   4.067  16.998  0.00  0.00    +0.000 A 
ATOM     24  C   UNL     1       3.895   4.680  17.624  0.00  0.00    +0.000 A 
ATOM     25  C   UNL     1       3.885   6.064  17.851  0.00  0.00    +0.000 A 
ATOM     26  C   UNL     1       5.013   6.829  17.480  0.00  0.00    +0.000 A 
ATOM     27  C   UNL     1       2.654   6.381  18.478  0.00  0.00    +0.000 A 
ATOM     28  C   UNL     1       1.980   5.184  18.654  0.00  0.00    +0.000 A 
ATOM     29  N   UNL     1       2.702   4.134  18.125  0.00  0.00    +0.000 N 
ATOM     30  C   UNL     1       2.342   2.761  18.083  0.00  0.00    +0.000 C 
ATOM     31  C   UNL     1       1.016   2.359  18.661  0.00  0.00    +0.000 C 
ATOM     32  O   UNL     1       3.099   1.943  17.574  0.00  0.00    +0.000 OA
BRANCH  21  34
ATOM     33  C   UNL     1       7.700   7.789  17.610  0.00  0.00    +0.000 C 
ATOM     34  O   UNL     1       7.124   7.071  16.525  0.00  0.00    +0.000 OA
ENDBRANCH  21  34
ENDBRANCH  17  27
ENDBRANCH   1  19
BRANCH   3  35
ATOM     35  C   UNL     1       2.645  13.397  18.359  0.00  0.00    +0.000 C 
ATOM     36  O   UNL     1       2.381  14.473  18.880  0.00  0.00    +0.000 OA
BRANCH  35  37
ATOM     37  O   UNL     1       3.808  13.163  17.717  0.00  0.00    +0.000 OA
ATOM     38  H   UNL     1       4.603  13.620  18.052  0.00  0.00    +0.000 HD
ENDBRANCH  35  37
ENDBRANCH   3  35
TORSDOF 6
ENDMDL
MODEL 3
REMARK VINA RESULT:      -9.6      1.279      3.057
REMARK  Name = 
REMARK  9 active torsions:
REMARK  status: ('A' for Active; 'I' for Inactive)
REMARK    1  A    between atoms: C_1  and  O_2
REMARK    2  A    between atoms: O_2  and  C_3
REMARK    3  A    between atoms: C_9  and  C_10
REMARK    4  A    between atoms: N_12  and  C_13
REMARK    5  A    between atoms: C_15  and  C_16
REMARK    6  A    between atoms: C_16  and  O_18
REMARK    7  A    between atoms: C_20  and  C_21
REMARK    8  A    between atoms: N_28  and  C_29
REMARK    9  A    between atoms: C_34  and  C_35
REMARK                            x       y       z     vdW  Elec       q    Type
REMARK                         _______ _______ _______ _____ _____    ______ ____
ROOT
ATOM      1  C   UNL     1       1.523   9.892  18.047  0.00  0.00    +0.000 A 
ATOM      2  C   UNL     1       2.338  11.013  18.189  0.00  0.00    +0.000 A 
ATOM      3  C   UNL     1       1.804  12.255  18.502  0.00  0.00    +0.000 A 
ATOM      4  C   UNL     1       0.420  12.396  18.624  0.00  0.00    +0.000 A 
ATOM      5  C   UNL     1      -0.447  11.296  18.477  0.00  0.00    +0.000 A 
ATOM      6  C   UNL     1       0.132  10.040  18.178  0.00  0.00    +0.000 A 
ENDROOT
BRANCH   5   7
ATOM      7  C   UNL     1      -1.915  11.485  18.591  0.00  0.00    +0.000 A 
ATOM      8  C   UNL     1      -2.816  10.811  17.742  0.00  0.00    +0.000 A 
ATOM      9  C   UNL     1      -4.210  10.889  17.891  0.00  0.00    +0.000 A 
ATOM     10  C   UNL     1      -4.694  11.695  18.927  0.00  0.00    +0.000 A 
ATOM     11  C   UNL     1      -3.846  12.403  19.767  0.00  0.00    +0.000 A 
ATOM     12  C   UNL     1      -4.703  13.075  20.663  0.00  0.00    +0.000 A 
ATOM     13  N   UNL     1      -5.991  12.821  20.429  0.00  0.00    +0.000 NA
ATOM     14  N   UNL     1      -5.960  11.980  19.376  0.00  0.00    +0.000 N 
ATOM     15  C   UNL     1      -7.201  11.472  18.842  0.00  0.00    +0.000 C 
ATOM     16  C   UNL     1      -2.455  12.309  19.597  0.00  0.00    +0.000 A 
ENDBRANCH   5   7
BRANCH   1  19
ATOM     17  C   UNL     1       2.422   7.676  18.707  0.00  0.00    +0.000 C 
ATOM     18  O   UNL     1       2.187   7.770  19.909  0.00  0.00    +0.000 OA
ATOM     19  N   UNL     1       2.070   8.623  17.751  0.00  0.00    +0.000 N 
ATOM     20  H   UNL     1       2.102   8.340  16.779  0.00  0.00    +0.000 HD
BRANCH  17  27
ATOM     21  C   UNL     1       1.859   3.065  19.470  0.00  0.00    +0.000 A 
ATOM     22  C   UNL     1       2.728   2.312  18.690  0.00  0.00    +0.000 A 
ATOM     23  C   UNL     1       3.612   2.919  17.796  0.00  0.00    +0.000 A 
ATOM     24  C   UNL     1       3.631   4.322  17.702  0.00  0.00    +0.000 A 
ATOM     25  C   UNL     1       2.780   5.101  18.500  0.00  0.00    +0.000 A 
ATOM     26  C   UNL     1       1.875   4.456  19.371  0.00  0.00    +0.000 A 
ATOM     27  C   UNL     1       3.038   6.460  18.190  0.00  0.00    +0.000 A 
ATOM     28  C   UNL     1       3.994   6.464  17.189  0.00  0.00    +0.000 A 
ATOM     29  N   UNL     1       4.389   5.177  16.886  0.00  0.00    +0.000 N 
ATOM     30  C   UNL     1       5.363   4.764  15.938  0.00  0.00    +0.000 C 
ATOM     31  C   UNL     1       6.086   5.823  15.158  0.00  0.00    +0.000 C 
ATOM     32  O   UNL     1       5.602   3.572  15.783  0.00  0.00    +0.000 OA
BRANCH  21  34
ATOM     33  C   UNL     1       1.341   2.610  21.729  0.00  0.00    +0.000 C 
ATOM     34  O   UNL     1       0.952   2.559  20.361  0.00  0.00    +0.000 OA
ENDBRANCH  21  34
ENDBRANCH  17  27
ENDBRANCH   1  19
BRANCH   3  35
ATOM     35  C   UNL     1       2.676  13.447  18.626  0.00  0.00    +0.000 C 
ATOM     36  O   UNL     1       2.474  14.313  19.466  0.00  0.00    +0.000 OA
BRANCH  35  37
ATOM     37  O   UNL     1       3.721  13.486  17.774  0.00  0.00    +0.000 OA
ATOM     38  H   UNL     1       4.569  13.821  18.123  0.00  0.00    +0.000 HD
ENDBRANCH  35  37
ENDBRANCH   3  35
TORSDOF 6
ENDMDL
MODEL 4
REMARK VINA RESULT:      -9.5      1.133      1.807
REMARK  Name = 
REMARK  9 active torsions:
REMARK  status: ('A' for Active; 'I' for Inactive)
REMARK    1  A    between atoms: C_1  and  O_2
REMARK    2  A    between atoms: O_2  and  C_3
REMARK    3  A    between atoms: C_9  and  C_10
REMARK    4  A    between atoms: N_12  and  C_13
REMARK    5  A    between atoms: C_15  and  C_16
REMARK    6  A    between atoms: C_16  and  O_18
REMARK    7  A    between atoms: C_20  and  C_21
REMARK    8  A    between atoms: N_28  and  C_29
REMARK    9  A    between atoms: C_34  and  C_35
REMARK                            x       y       z     vdW  Elec       q    Type
REMARK                         _______ _______ _______ _____ _____    ______ ____
ROOT
ATOM      1  C   UNL     1       1.419  10.037  18.651  0.00  0.00    +0.000 A 
ATOM      2  C   UNL     1       2.197  11.119  18.247  0.00  0.00    +0.000 A 
ATOM      3  C   UNL     1       1.860  12.418  18.600  0.00  0.00    +0.000 A 
ATOM      4  C   UNL     1       0.692  12.650  19.329  0.00  0.00    +0.000 A 
ATOM      5  C   UNL     1      -0.135  11.590  19.750  0.00  0.00    +0.000 A 
ATOM      6  C   UNL     1       0.248  10.277  19.389  0.00  0.00    +0.000 A 
ENDROOT
BRANCH   5   7
ATOM      7  C   UNL     1      -1.382  11.873  20.504  0.00  0.00    +0.000 A 
ATOM      8  C   UNL     1      -1.426  11.811  21.912  0.00  0.00    +0.000 A 
ATOM      9  C   UNL     1      -2.559  12.172  22.658  0.00  0.00    +0.000 A 
ATOM     10  C   UNL     1      -3.685  12.591  21.940  0.00  0.00    +0.000 A 
ATOM     11  C   UNL     1      -3.700  12.636  20.553  0.00  0.00    +0.000 A 
ATOM     12  C   UNL     1      -4.987  13.104  20.221  0.00  0.00    +0.000 A 
ATOM     13  N   UNL     1      -5.739  13.347  21.295  0.00  0.00    +0.000 NA
ATOM     14  N   UNL     1      -4.927  13.032  22.325  0.00  0.00    +0.000 N 
ATOM     15  C   UNL     1      -5.410  13.185  23.676  0.00  0.00    +0.000 C 
ATOM     16  C   UNL     1      -2.553  12.269  19.830  0.00  0.00    +0.000 A 
ENDBRANCH   5   7
BRANCH   1  19
ATOM     17  C   UNL     1       2.126   7.730  19.230  0.00  0.00    +0.000 C 
ATOM     18  O   UNL     1       2.048   7.851  20.450  0.00  0.00    +0.000 OA
ATOM     19  N   UNL     1       1.776   8.712  18.310  0.00  0.00    +0.000 N 
ATOM     20  H   UNL     1       1.659   8.428  17.345  0.00  0.00    +0.000 HD
BRANCH  17  27
ATOM     21  C   UNL     1       5.850   6.189  16.799  0.00  0.00    +0.000 A 
ATOM     22  C   UNL     1       5.733   4.838  16.494  0.00  0.00    +0.000 A 
ATOM     23  C   UNL     1       4.630   4.093  16.913  0.00  0.00    +0.000 A 
ATOM     24  C   UNL     1       3.611   4.731  17.641  0.00  0.00    +0.000 A 
ATOM     25  C   UNL     1       3.697   6.100  17.936  0.00  0.00    +0.000 A 
ATOM     26  C   UNL     1       4.841   6.820  17.527  0.00  0.00    +0.000 A 
ATOM     27  C   UNL     1       2.530   6.451  18.661  0.00  0.00    +0.000 A 
ATOM     28  C   UNL     1       1.800   5.286  18.823  0.00  0.00    +0.000 A 
ATOM     29  N   UNL     1       2.423   4.227  18.195  0.00  0.00    +0.000 N 
ATOM     30  C   UNL     1       1.981   2.880  18.110  0.00  0.00    +0.000 C 
ATOM     31  C   UNL     1       0.675   2.522  18.756  0.00  0.00    +0.000 C 
ATOM     32  O   UNL     1       2.654   2.049  17.512  0.00  0.00    +0.000 OA
BRANCH  21  34
ATOM     33  C   UNL     1       7.540   7.675  17.515  0.00  0.00    +0.000 C 
ATOM     34  O   UNL     1       6.897   6.995  16.444  0.00  0.00    +0.000 OA
ENDBRANCH  21  34
ENDBRANCH  17  27
ENDBRANCH   1  19
BRANCH   3  35
ATOM     35  C   UNL     1       2.679  13.566  18.145  0.00  0.00    +0.000 C 
ATOM     36  O   UNL     1       2.264  14.716  18.185  0.00  0.00    +0.000 OA
BRANCH  35  37
ATOM     37  O   UNL     1       3.921  13.253  17.719  0.00  0.00    +0.000 OA
ATOM     38  H   UNL     1       4.037  12.392  17.275  0.00  0.00    +0.000 HD
ENDBRANCH  35  37
ENDBRANCH   3  35
TORSDOF 6
ENDMDL
MODEL 5
REMARK VINA RESULT:      -9.4      1.355      3.288
REMARK  Name = 
REMARK  9 active torsions:
REMARK  status: ('A' for Active; 'I' for Inactive)
REMARK    1  A    between atoms: C_1  and  O_2
REMARK    2  A    between atoms: O_2  and  C_3
REMARK    3  A    between atoms: C_9  and  C_10
REMARK    4  A    between atoms: N_12  and  C_13
REMARK    5  A    between atoms: C_15  and  C_16
REMARK    6  A    between atoms: C_16  and  O_18
REMARK    7  A    between atoms: C_20  and  C_21
REMARK    8  A    between atoms: N_28  and  C_29
REMARK    9  A    between atoms: C_34  and  C_35
REMARK                            x       y       z     vdW  Elec       q    Type
REMARK                         _______ _______ _______ _____ _____    ______ ____
ROOT
ATOM      1  C   UNL     1       1.471  10.142  18.156  0.00  0.00    +0.000 A 
ATOM      2  C   UNL     1       2.281  11.276  18.159  0.00  0.00    +0.000 A 
ATOM      3  C   UNL     1       1.762  12.528  18.456  0.00  0.00    +0.000 A 
ATOM      4  C   UNL     1       0.394  12.664  18.703  0.00  0.00    +0.000 A 
ATOM      5  C   UNL     1      -0.468  11.549  18.698  0.00  0.00    +0.000 A 
ATOM      6  C   UNL     1       0.098  10.284  18.411  0.00  0.00    +0.000 A 
ENDROOT
BRANCH   5   7
ATOM      7  C   UNL     1      -1.921  11.731  18.943  0.00  0.00    +0.000 A 
ATOM      8  C   UNL     1      -2.400  12.396  20.090  0.00  0.00    +0.000 A 
ATOM      9  C   UNL     1      -3.761  12.675  20.300  0.00  0.00    +0.000 A 
ATOM     10  C   UNL     1      -4.655  12.242  19.315  0.00  0.00    +0.000 A 
ATOM     11  C   UNL     1      -4.234  11.554  18.185  0.00  0.00    +0.000 A 
ATOM     12  C   UNL     1      -5.413  11.305  17.453  0.00  0.00    +0.000 A 
ATOM     13  N   UNL     1      -6.500  11.792  18.050  0.00  0.00    +0.000 NA
ATOM     14  N   UNL     1      -6.017  12.358  19.174  0.00  0.00    +0.000 N 
ATOM     15  C   UNL     1      -6.928  13.011  20.083  0.00  0.00    +0.000 C 
ATOM     16  C   UNL     1      -2.868  11.288  18.000  0.00  0.00    +0.000 A 
ENDBRANCH   5   7
BRANCH   1  19
ATOM     17  C   UNL     1       2.287   7.901  18.839  0.00  0.00    +0.000 C 
ATOM     18  O   UNL     1       1.992   7.990  20.028  0.00  0.00    +0.000 OA
ATOM     19  N   UNL     1       2.005   8.863  17.876  0.00  0.00    +0.000 N 
ATOM     20  H   UNL     1       2.081   8.588  16.904  0.00  0.00    +0.000 HD
BRANCH  17  27
ATOM     21  C   UNL     1       1.775   3.308  19.737  0.00  0.00    +0.000 A 
ATOM     22  C   UNL     1       2.635   2.541  18.959  0.00  0.00    +0.000 A 
ATOM     23  C   UNL     1       3.496   3.130  18.033  0.00  0.00    +0.000 A 
ATOM     24  C   UNL     1       3.502   4.530  17.900  0.00  0.00    +0.000 A 
ATOM     25  C   UNL     1       2.661   5.324  18.694  0.00  0.00    +0.000 A 
ATOM     26  C   UNL     1       1.778   4.696  19.600  0.00  0.00    +0.000 A 
ATOM     27  C   UNL     1       2.902   6.676  18.343  0.00  0.00    +0.000 A 
ATOM     28  C   UNL     1       3.838   6.660  17.323  0.00  0.00    +0.000 A 
ATOM     29  N   UNL     1       4.237   5.368  17.047  0.00  0.00    +0.000 N 
ATOM     30  C   UNL     1       5.195   4.937  16.091  0.00  0.00    +0.000 C 
ATOM     31  C   UNL     1       5.895   5.980  15.269  0.00  0.00    +0.000 C 
ATOM     32  O   UNL     1       5.441   3.743  15.964  0.00  0.00    +0.000 OA
BRANCH  21  34
ATOM     33  C   UNL     1       1.448   2.470  21.920  0.00  0.00    +0.000 C 
ATOM     34  O   UNL     1       0.890   2.820  20.659  0.00  0.00    +0.000 OA
ENDBRANCH  21  34
ENDBRANCH  17  27
ENDBRANCH   1  19
BRANCH   3  35
ATOM     35  C   UNL     1       2.625  13.733  18.432  0.00  0.00    +0.000 C 
ATOM     36  O   UNL     1       2.284  14.785  18.956  0.00  0.00    +0.000 OA
BRANCH  35  37
ATOM     37  O   UNL     1       3.820  13.573  17.826  0.00  0.00    +0.000 OA
ATOM     38  H   UNL     1       4.060  12.669  17.545  0.00  0.00    +0.000 HD
ENDBRANCH  35  37
ENDBRANCH   3  35
TORSDOF 6
ENDMDL
MODEL 6
REMARK VINA RESULT:      -9.4      1.416      1.887
REMARK  Name = 
REMARK  9 active torsions:
REMARK  status: ('A' for Active; 'I' for Inactive)
REMARK    1  A    between atoms: C_1  and  O_2
REMARK    2  A    between atoms: O_2  and  C_3
REMARK    3  A    between atoms: C_9  and  C_10
REMARK    4  A    between atoms: N_12  and  C_13
REMARK    5  A    between atoms: C_15  and  C_16
REMARK    6  A    between atoms: C_16  and  O_18
REMARK    7  A    between atoms: C_20  and  C_21
REMARK    8  A    between atoms: N_28  and  C_29
REMARK    9  A    between atoms: C_34  and  C_35
REMARK                            x       y       z     vdW  Elec       q    Type
REMARK                         _______ _______ _______ _____ _____    ______ ____
ROOT
ATOM      1  C   UNL     1       1.085  10.186  18.956  0.00  0.00    +0.000 A 
ATOM      2  C   UNL     1       1.872  11.307  18.697  0.00  0.00    +0.000 A 
ATOM      3  C   UNL     1       1.318  12.578  18.654  0.00  0.00    +0.000 A 
ATOM      4  C   UNL     1      -0.060  12.733  18.820  0.00  0.00    +0.000 A 
ATOM      5  C   UNL     1      -0.899  11.630  19.071  0.00  0.00    +0.000 A 
ATOM      6  C   UNL     1      -0.299  10.350  19.128  0.00  0.00    +0.000 A 
ENDROOT
BRANCH   5   7
ATOM      7  C   UNL     1      -2.363  11.827  19.221  0.00  0.00    +0.000 A 
ATOM      8  C   UNL     1      -2.906  12.540  20.309  0.00  0.00    +0.000 A 
ATOM      9  C   UNL     1      -4.275  12.831  20.425  0.00  0.00    +0.000 A 
ATOM     10  C   UNL     1      -5.112  12.363  19.407  0.00  0.00    +0.000 A 
ATOM     11  C   UNL     1      -4.627  11.628  18.333  0.00  0.00    +0.000 A 
ATOM     12  C   UNL     1      -5.761  11.354  17.542  0.00  0.00    +0.000 A 
ATOM     13  N   UNL     1      -6.880  11.868  18.052  0.00  0.00    +0.000 NA
ATOM     14  N   UNL     1      -6.461  12.478  19.180  0.00  0.00    +0.000 N 
ATOM     15  C   UNL     1      -7.421  13.170  20.005  0.00  0.00    +0.000 C 
ATOM     16  C   UNL     1      -3.254  11.350  18.241  0.00  0.00    +0.000 A 
ENDBRANCH   5   7
BRANCH   1  19
ATOM     17  C   UNL     1       2.365   8.293  17.990  0.00  0.00    +0.000 C 
ATOM     18  O   UNL     1       2.694   8.851  16.946  0.00  0.00    +0.000 OA
ATOM     19  N   UNL     1       1.654   8.894  19.023  0.00  0.00    +0.000 N 
ATOM     20  H   UNL     1       1.641   8.420  19.919  0.00  0.00    +0.000 HD
BRANCH  17  27
ATOM     21  C   UNL     1       5.668   5.465  16.187  0.00  0.00    +0.000 A 
ATOM     22  C   UNL     1       5.664   4.222  16.807  0.00  0.00    +0.000 A 
ATOM     23  C   UNL     1       4.778   3.931  17.845  0.00  0.00    +0.000 A 
ATOM     24  C   UNL     1       3.860   4.914  18.254  0.00  0.00    +0.000 A 
ATOM     25  C   UNL     1       3.829   6.167  17.623  0.00  0.00    +0.000 A 
ATOM     26  C   UNL     1       4.760   6.442  16.598  0.00  0.00    +0.000 A 
ATOM     27  C   UNL     1       2.803   6.926  18.240  0.00  0.00    +0.000 A 
ATOM     28  C   UNL     1       2.279   6.136  19.249  0.00  0.00    +0.000 A 
ATOM     29  N   UNL     1       2.888   4.898  19.268  0.00  0.00    +0.000 N 
ATOM     30  C   UNL     1       2.615   3.804  20.131  0.00  0.00    +0.000 C 
ATOM     31  C   UNL     1       1.528   3.964  21.155  0.00  0.00    +0.000 C 
ATOM     32  O   UNL     1       3.249   2.762  20.021  0.00  0.00    +0.000 OA
BRANCH  21  34
ATOM     33  C   UNL     1       6.858   4.820  14.252  0.00  0.00    +0.000 C 
ATOM     34  O   UNL     1       6.505   5.844  15.173  0.00  0.00    +0.000 OA
ENDBRANCH  21  34
ENDBRANCH  17  27
ENDBRANCH   1  19
BRANCH   3  35
ATOM     35  C   UNL     1       2.157  13.762  18.353  0.00  0.00    +0.000 C 
ATOM     36  O   UNL     1       1.790  14.900  18.612  0.00  0.00    +0.000 OA
BRANCH  35  37
ATOM     37  O   UNL     1       3.362  13.490  17.810  0.00  0.00    +0.000 OA
ATOM     38  H   UNL     1       3.522  12.573  17.516  0.00  0.00    +0.000 HD
ENDBRANCH  35  37
ENDBRANCH   3  35
TORSDOF 6
ENDMDL
MODEL 7
REMARK VINA RESULT:      -9.3      3.574      4.786
REMARK  Name = 
REMARK  9 active torsions:
REMARK  status: ('A' for Active; 'I' for Inactive)
REMARK    1  A    between atoms: C_1  and  O_2
REMARK    2  A    between atoms: O_2  and  C_3
REMARK    3  A    between atoms: C_9  and  C_10
REMARK    4  A    between atoms: N_12  and  C_13
REMARK    5  A    between atoms: C_15  and  C_16
REMARK    6  A    between atoms: C_16  and  O_18
REMARK    7  A    between atoms: C_20  and  C_21
REMARK    8  A    between atoms: N_28  and  C_29
REMARK    9  A    between atoms: C_34  and  C_35
REMARK                            x       y       z     vdW  Elec       q    Type
REMARK                         _______ _______ _______ _____ _____    ______ ____
ROOT
ATOM      1  C   UNL     1       1.370   9.172  20.243  0.00  0.00    +0.000 A 
ATOM      2  C   UNL     1       0.617   9.150  21.414  0.00  0.00    +0.000 A 
ATOM      3  C   UNL     1       0.015  10.301  21.902  0.00  0.00    +0.000 A 
ATOM      4  C   UNL     1       0.212  11.514  21.239  0.00  0.00    +0.000 A 
ATOM      5  C   UNL     1       0.976  11.590  20.058  0.00  0.00    +0.000 A 
ATOM      6  C   UNL     1       1.559  10.394  19.576  0.00  0.00    +0.000 A 
ENDROOT
BRANCH   5   7
ATOM      7  C   UNL     1       1.184  12.899  19.389  0.00  0.00    +0.000 A 
ATOM      8  C   UNL     1       0.154  13.856  19.299  0.00  0.00    +0.000 A 
ATOM      9  C   UNL     1       0.347  15.141  18.766  0.00  0.00    +0.000 A 
ATOM     10  C   UNL     1       1.629  15.445  18.294  0.00  0.00    +0.000 A 
ATOM     11  C   UNL     1       2.666  14.523  18.330  0.00  0.00    +0.000 A 
ATOM     12  C   UNL     1       3.772  15.202  17.778  0.00  0.00    +0.000 A 
ATOM     13  N   UNL     1       3.481  16.452  17.420  0.00  0.00    +0.000 NA
ATOM     14  N   UNL     1       2.178  16.578  17.746  0.00  0.00    +0.000 N 
ATOM     15  C   UNL     1       1.509  17.834  17.507  0.00  0.00    +0.000 C 
ATOM     16  C   UNL     1       2.446  13.245  18.868  0.00  0.00    +0.000 A 
ENDBRANCH   5   7
BRANCH   1  19
ATOM     17  C   UNL     1       2.342   7.814  18.408  0.00  0.00    +0.000 C 
ATOM     18  O   UNL     1       2.326   8.691  17.547  0.00  0.00    +0.000 OA
ATOM     19  N   UNL     1       1.964   7.995  19.733  0.00  0.00    +0.000 N 
ATOM     20  H   UNL     1       2.236   7.280  20.398  0.00  0.00    +0.000 HD
BRANCH  17  27
ATOM     21  C   UNL     1       6.450   6.169  16.801  0.00  0.00    +0.000 A 
ATOM     22  C   UNL     1       6.421   4.787  16.659  0.00  0.00    +0.000 A 
ATOM     23  C   UNL     1       5.287   4.046  16.994  0.00  0.00    +0.000 A 
ATOM     24  C   UNL     1       4.148   4.719  17.468  0.00  0.00    +0.000 A 
ATOM     25  C   UNL     1       4.146   6.116  17.594  0.00  0.00    +0.000 A 
ATOM     26  C   UNL     1       5.320   6.835  17.277  0.00  0.00    +0.000 A 
ATOM     27  C   UNL     1       2.869   6.496  18.078  0.00  0.00    +0.000 A 
ATOM     28  C   UNL     1       2.156   5.326  18.274  0.00  0.00    +0.000 A 
ATOM     29  N   UNL     1       2.901   4.229  17.892  0.00  0.00    +0.000 N 
ATOM     30  C   UNL     1       2.517   2.862  17.915  0.00  0.00    +0.000 C 
ATOM     31  C   UNL     1       1.135   2.523  18.392  0.00  0.00    +0.000 C 
ATOM     32  O   UNL     1       3.300   1.998  17.540  0.00  0.00    +0.000 OA
BRANCH  21  34
ATOM     33  C   UNL     1       7.815   7.972  17.481  0.00  0.00    +0.000 C 
ATOM     34  O   UNL     1       7.516   6.975  16.511  0.00  0.00    +0.000 OA
ENDBRANCH  21  34
ENDBRANCH  17  27
ENDBRANCH   1  19
BRANCH   3  35
ATOM     35  C   UNL     1      -0.765  10.274  23.163  0.00  0.00    +0.000 C 
ATOM     36  O   UNL     1      -1.764  10.963  23.323  0.00  0.00    +0.000 OA
BRANCH  35  37
ATOM     37  O   UNL     1      -0.314   9.414  24.100  0.00  0.00    +0.000 OA
ATOM     38  H   UNL     1      -0.981   8.887  24.579  0.00  0.00    +0.000 HD
ENDBRANCH  35  37
ENDBRANCH   3  35
TORSDOF 6
ENDMDL
MODEL 8
REMARK VINA RESULT:      -9.3      2.888      5.654
REMARK  Name = 
REMARK  9 active torsions:
REMARK  status: ('A' for Active; 'I' for Inactive)
REMARK    1  A    between atoms: C_1  and  O_2
REMARK    2  A    between atoms: O_2  and  C_3
REMARK    3  A    between atoms: C_9  and  C_10
REMARK    4  A    between atoms: N_12  and  C_13
REMARK    5  A    between atoms: C_15  and  C_16
REMARK    6  A    between atoms: C_16  and  O_18
REMARK    7  A    between atoms: C_20  and  C_21
REMARK    8  A    between atoms: N_28  and  C_29
REMARK    9  A    between atoms: C_34  and  C_35
REMARK                            x       y       z     vdW  Elec       q    Type
REMARK                         _______ _______ _______ _____ _____    ______ ____
ROOT
ATOM      1  C   UNL     1       1.200   9.946  18.173  0.00  0.00    +0.000 A 
ATOM      2  C   UNL     1      -0.165  10.217  18.240  0.00  0.00    +0.000 A 
ATOM      3  C   UNL     1      -0.631  11.508  18.442  0.00  0.00    +0.000 A 
ATOM      4  C   UNL     1       0.282  12.546  18.636  0.00  0.00    +0.000 A 
ATOM      5  C   UNL     1       1.673  12.320  18.590  0.00  0.00    +0.000 A 
ATOM      6  C   UNL     1       2.114  10.995  18.362  0.00  0.00    +0.000 A 
ENDROOT
BRANCH   5   7
ATOM      7  C   UNL     1       2.617  13.442  18.822  0.00  0.00    +0.000 A 
ATOM      8  C   UNL     1       2.414  14.378  19.856  0.00  0.00    +0.000 A 
ATOM      9  C   UNL     1       3.339  15.387  20.167  0.00  0.00    +0.000 A 
ATOM     10  C   UNL     1       4.496  15.450  19.382  0.00  0.00    +0.000 A 
ATOM     11  C   UNL     1       4.724  14.571  18.332  0.00  0.00    +0.000 A 
ATOM     12  C   UNL     1       5.975  14.953  17.806  0.00  0.00    +0.000 A 
ATOM     13  N   UNL     1       6.514  15.983  18.458  0.00  0.00    +0.000 NA
ATOM     14  N   UNL     1       5.602  16.265  19.411  0.00  0.00    +0.000 N 
ATOM     15  C   UNL     1       5.858  17.341  20.337  0.00  0.00    +0.000 C 
ATOM     16  C   UNL     1       3.782  13.571  18.042  0.00  0.00    +0.000 A 
ENDBRANCH   5   7
BRANCH   1  19
ATOM     17  C   UNL     1       2.056   7.749  18.946  0.00  0.00    +0.000 C 
ATOM     18  O   UNL     1       1.913   7.947  20.150  0.00  0.00    +0.000 OA
ATOM     19  N   UNL     1       1.674   8.634  17.944  0.00  0.00    +0.000 N 
ATOM     20  H   UNL     1       1.625   8.275  16.998  0.00  0.00    +0.000 HD
BRANCH  17  27
ATOM     21  C   UNL     1       6.048   6.332  16.893  0.00  0.00    +0.000 A 
ATOM     22  C   UNL     1       6.041   4.961  16.665  0.00  0.00    +0.000 A 
ATOM     23  C   UNL     1       4.960   4.166  17.048  0.00  0.00    +0.000 A 
ATOM     24  C   UNL     1       3.849   4.774  17.659  0.00  0.00    +0.000 A 
ATOM     25  C   UNL     1       3.824   6.160  17.874  0.00  0.00    +0.000 A 
ATOM     26  C   UNL     1       4.947   6.932  17.505  0.00  0.00    +0.000 A 
ATOM     27  C   UNL     1       2.585   6.470  18.489  0.00  0.00    +0.000 A 
ATOM     28  C   UNL     1       1.921   5.270  18.670  0.00  0.00    +0.000 A 
ATOM     29  N   UNL     1       2.657   4.222  18.156  0.00  0.00    +0.000 N 
ATOM     30  C   UNL     1       2.311   2.845  18.124  0.00  0.00    +0.000 C 
ATOM     31  C   UNL     1       0.984   2.435  18.694  0.00  0.00    +0.000 C 
ATOM     32  O   UNL     1       3.080   2.029  17.628  0.00  0.00    +0.000 OA
BRANCH  21  34
ATOM     33  C   UNL     1       7.709   7.824  17.661  0.00  0.00    +0.000 C 
ATOM     34  O   UNL     1       7.064   7.186  16.564  0.00  0.00    +0.000 OA
ENDBRANCH  21  34
ENDBRANCH  17  27
ENDBRANCH   1  19
BRANCH   3  35
ATOM     35  C   UNL     1      -2.084  11.784  18.537  0.00  0.00    +0.000 C 
ATOM     36  O   UNL     1      -2.653  11.900  19.614  0.00  0.00    +0.000 OA
BRANCH  35  37
ATOM     37  O   UNL     1      -2.720  11.933  17.356  0.00  0.00    +0.000 OA
ATOM     38  H   UNL     1      -2.165  12.075  16.565  0.00  0.00    +0.000 HD
ENDBRANCH  35  37
ENDBRANCH   3  35
TORSDOF 6
ENDMDL
MODEL 9
REMARK VINA RESULT:      -9.3      2.936      5.277
REMARK  Name = 
REMARK  9 active torsions:
REMARK  status: ('A' for Active; 'I' for Inactive)
REMARK    1  A    between atoms: C_1  and  O_2
REMARK    2  A    between atoms: O_2  and  C_3
REMARK    3  A    between atoms: C_9  and  C_10
REMARK    4  A    between atoms: N_12  and  C_13
REMARK    5  A    between atoms: C_15  and  C_16
REMARK    6  A    between atoms: C_16  and  O_18
REMARK    7  A    between atoms: C_20  and  C_21
REMARK    8  A    between atoms: N_28  and  C_29
REMARK    9  A    between atoms: C_34  and  C_35
REMARK                            x       y       z     vdW  Elec       q    Type
REMARK                         _______ _______ _______ _____ _____    ______ ____
ROOT
ATOM      1  C   UNL     1       1.106   9.801  18.189  0.00  0.00    +0.000 A 
ATOM      2  C   UNL     1      -0.255  10.095  18.131  0.00  0.00    +0.000 A 
ATOM      3  C   UNL     1      -0.720  11.386  18.339  0.00  0.00    +0.000 A 
ATOM      4  C   UNL     1       0.184  12.398  18.665  0.00  0.00    +0.000 A 
ATOM      5  C   UNL     1       1.569  12.148  18.749  0.00  0.00    +0.000 A 
ATOM      6  C   UNL     1       2.011  10.825  18.512  0.00  0.00    +0.000 A 
ENDROOT
BRANCH   5   7
ATOM      7  C   UNL     1       2.501  13.242  19.120  0.00  0.00    +0.000 A 
ATOM      8  C   UNL     1       3.166  14.010  18.143  0.00  0.00    +0.000 A 
ATOM      9  C   UNL     1       3.973  15.115  18.458  0.00  0.00    +0.000 A 
ATOM     10  C   UNL     1       4.117  15.429  19.814  0.00  0.00    +0.000 A 
ATOM     11  C   UNL     1       3.509  14.681  20.813  0.00  0.00    +0.000 A 
ATOM     12  C   UNL     1       3.888  15.311  22.016  0.00  0.00    +0.000 A 
ATOM     13  N   UNL     1       4.666  16.374  21.817  0.00  0.00    +0.000 NA
ATOM     14  N   UNL     1       4.789  16.428  20.475  0.00  0.00    +0.000 N 
ATOM     15  C   UNL     1       5.571  17.485  19.881  0.00  0.00    +0.000 C 
ATOM     16  C   UNL     1       2.708  13.580  20.471  0.00  0.00    +0.000 A 
ENDBRANCH   5   7
BRANCH   1  19
ATOM     17  C   UNL     1       2.045   7.633  18.945  0.00  0.00    +0.000 C 
ATOM     18  O   UNL     1       1.983   7.855  20.152  0.00  0.00    +0.000 OA
ATOM     19  N   UNL     1       1.581   8.491  17.954  0.00  0.00    +0.000 N 
ATOM     20  H   UNL     1       1.470   8.111  17.022  0.00  0.00    +0.000 HD
BRANCH  17  27
ATOM     21  C   UNL     1       5.997   6.191  16.834  0.00  0.00    +0.000 A 
ATOM     22  C   UNL     1       5.978   4.820  16.604  0.00  0.00    +0.000 A 
ATOM     23  C   UNL     1       4.896   4.033  17.000  0.00  0.00    +0.000 A 
ATOM     24  C   UNL     1       3.798   4.647  17.628  0.00  0.00    +0.000 A 
ATOM     25  C   UNL     1       3.786   6.033  17.846  0.00  0.00    +0.000 A 
ATOM     26  C   UNL     1       4.910   6.798  17.463  0.00  0.00    +0.000 A 
ATOM     27  C   UNL     1       2.558   6.351  18.478  0.00  0.00    +0.000 A 
ATOM     28  C   UNL     1       1.888   5.155  18.666  0.00  0.00    +0.000 A 
ATOM     29  N   UNL     1       2.609   4.103  18.140  0.00  0.00    +0.000 N 
ATOM     30  C   UNL     1       2.252   2.728  18.110  0.00  0.00    +0.000 C 
ATOM     31  C   UNL     1       0.931   2.327  18.697  0.00  0.00    +0.000 C 
ATOM     32  O   UNL     1       3.008   1.908  17.602  0.00  0.00    +0.000 OA
BRANCH  21  34
ATOM     33  C   UNL     1       7.650   7.704  17.580  0.00  0.00    +0.000 C 
ATOM     34  O   UNL     1       7.015   7.038  16.494  0.00  0.00    +0.000 OA
ENDBRANCH  21  34
ENDBRANCH  17  27
ENDBRANCH   1  19
BRANCH   3  35
ATOM     35  C   UNL     1      -2.171  11.685  18.300  0.00  0.00    +0.000 C 
ATOM     36  O   UNL     1      -2.850  11.741  19.317  0.00  0.00    +0.000 OA
BRANCH  35  37
ATOM     37  O   UNL     1      -2.677  11.926  17.072  0.00  0.00    +0.000 OA
ATOM     38  H   UNL     1      -2.055  12.237  16.388  0.00  0.00    +0.000 HD
ENDBRANCH  35  37
ENDBRANCH   3  35
TORSDOF 6
ENDMDL
