MODEL 1
REMARK VINA RESULT:      -9.0      0.000      0.000
REMARK  Name = 
REMARK  8 active torsions:
REMARK  status: ('A' for Active; 'I' for Inactive)
REMARK    1  A    between atoms: N_1  and  C_2
REMARK    2  A    between atoms: C_2  and  C_3
REMARK    3  A    between atoms: C_2  and  C_19
REMARK    4  A    between atoms: C_3  and  O_4
REMARK    5  A    between atoms: O_4  and  C_5
REMARK    6  A    between atoms: C_9  and  C_10
REMARK    7  A    between atoms: C_11  and  C_12
REMARK    8  A    between atoms: N_21  and  C_22
REMARK                            x       y       z     vdW  Elec       q    Type
REMARK                         _______ _______ _______ _____ _____    ______ ____
ROOT
ATOM      1  C   UNL     1       3.618   2.995  19.182  0.00  0.00    +0.000 C 
ENDROOT
BRANCH   1   2
ATOM      2  C   UNL     1       3.023   4.318  19.718  0.00  0.00    +0.000 C 
ATOM      3  O   UNL     1       2.713   4.437  20.901  0.00  0.00    +0.000 OA
ATOM      4  N   UNL     1       2.873   5.301  18.751  0.00  0.00    +0.000 N 
ATOM      5  H   UNL     1       3.031   5.033  17.790  0.00  0.00    +0.000 HD
BRANCH   4   6
ATOM      6  C   UNL     1       2.382   6.610  18.969  0.00  0.00    +0.000 A 
ATOM      7  C   UNL     1       2.403   7.603  17.990  0.00  0.00    +0.000 A 
ATOM      8  C   UNL     1       1.913   8.882  18.258  0.00  0.00    +0.000 A 
ATOM      9  C   UNL     1       1.398   9.202  19.519  0.00  0.00    +0.000 A 
ATOM     10  C   UNL     1       0.921  10.490  19.796  0.00  0.00    +0.000 A 
ATOM     11  C   UNL     1       0.426  10.808  21.060  0.00  0.00    +0.000 A 
ATOM     12  C   UNL     1       0.402   9.839  22.059  0.00  0.00    +0.000 A 
ATOM     13  C   UNL     1       0.867   8.548  21.793  0.00  0.00    +0.000 A 
ATOM     14  C   UNL     1       1.365   8.207  20.522  0.00  0.00    +0.000 A 
ATOM     15  C   UNL     1       1.843   6.913  20.226  0.00  0.00    +0.000 A 
ENDBRANCH   4   6
ENDBRANCH   1   2
BRANCH   1  16
ATOM     16  N   UNL     1       4.100   2.143  20.294  0.00  0.00    +0.000 NA
ATOM     17  H   UNL     1       3.340   1.738  20.828  0.00  0.00    +0.000 HD
ATOM     18  H   UNL     1       4.675   2.695  20.928  0.00  0.00    +0.000 HD
ENDBRANCH   1  16
BRANCH   1  19
ATOM     19  C   UNL     1       4.764   3.354  18.210  0.00  0.00    +0.000 C 
BRANCH  19  20
ATOM     20  O   UNL     1       5.844   3.995  18.896  0.00  0.00    +0.000 OA
BRANCH  20  21
ATOM     21  C   UNL     1       6.393   5.079  18.267  0.00  0.00    +0.000 A 
ATOM     22  C   UNL     1       6.094   5.224  16.918  0.00  0.00    +0.000 A 
ATOM     23  N   UNL     1       6.529   6.245  16.143  0.00  0.00    +0.000 NA
ATOM     24  C   UNL     1       7.315   7.166  16.750  0.00  0.00    +0.000 A 
ATOM     25  C   UNL     1       7.699   7.117  18.088  0.00  0.00    +0.000 A 
ATOM     26  C   UNL     1       7.206   6.053  18.853  0.00  0.00    +0.000 A 
BRANCH  25  27
ATOM     27  C   UNL     1       8.526   8.195  18.653  0.00  0.00    +0.000 C 
ATOM     28  C   UNL     1       8.522   9.467  18.215  0.00  0.00    +0.000 C 
BRANCH  28  29
ATOM     29  C   UNL     1       9.353  10.544  18.781  0.00  0.00    +0.000 A 
ATOM     30  C   UNL     1       9.428  10.796  20.152  0.00  0.00    +0.000 A 
ATOM     31  C   UNL     1      10.261  11.810  20.599  0.00  0.00    +0.000 A 
ATOM     32  N   UNL     1      11.023  12.570  19.787  0.00  0.00    +0.000 NA
ATOM     33  C   UNL     1      10.953  12.299  18.468  0.00  0.00    +0.000 A 
ATOM     34  C   UNL     1      10.149  11.308  17.924  0.00  0.00    +0.000 A 
ENDBRANCH  28  29
ENDBRANCH  25  27
ENDBRANCH  20  21
ENDBRANCH  19  20
ENDBRANCH   1  19
TORSDOF 8
ENDMDL
MODEL 2
REMARK VINA RESULT:      -8.9      1.226      1.994
REMARK  Name = 
REMARK  8 active torsions:
REMARK  status: ('A' for Active; 'I' for Inactive)
REMARK    1  A    between atoms: N_1  and  C_2
REMARK    2  A    between atoms: C_2  and  C_3
REMARK    3  A    between atoms: C_2  and  C_19
REMARK    4  A    between atoms: C_3  and  O_4
REMARK    5  A    between atoms: O_4  and  C_5
REMARK    6  A    between atoms: C_9  and  C_10
REMARK    7  A    between atoms: C_11  and  C_12
REMARK    8  A    between atoms: N_21  and  C_22
REMARK                            x       y       z     vdW  Elec       q    Type
REMARK                         _______ _______ _______ _____ _____    ______ ____
ROOT
ATOM      1  C   UNL     1       3.078   2.759  18.073  0.00  0.00    +0.000 C 
ENDROOT
BRANCH   1   2
ATOM      2  C   UNL     1       2.294   4.085  18.216  0.00  0.00    +0.000 C 
ATOM      3  O   UNL     1       1.291   4.301  17.539  0.00  0.00    +0.000 OA
ATOM      4  N   UNL     1       2.838   4.965  19.141  0.00  0.00    +0.000 N 
ATOM      5  H   UNL     1       3.742   4.730  19.527  0.00  0.00    +0.000 HD
BRANCH   4   6
ATOM      6  C   UNL     1       2.311   6.231  19.490  0.00  0.00    +0.000 A 
ATOM      7  C   UNL     1       1.653   6.474  20.694  0.00  0.00    +0.000 A 
ATOM      8  C   UNL     1       1.144   7.741  20.987  0.00  0.00    +0.000 A 
ATOM      9  C   UNL     1       1.273   8.793  20.074  0.00  0.00    +0.000 A 
ATOM     10  C   UNL     1       0.749  10.062  20.359  0.00  0.00    +0.000 A 
ATOM     11  C   UNL     1       0.865  11.101  19.437  0.00  0.00    +0.000 A 
ATOM     12  C   UNL     1       1.508  10.883  18.223  0.00  0.00    +0.000 A 
ATOM     13  C   UNL     1       2.044   9.625  17.931  0.00  0.00    +0.000 A 
ATOM     14  C   UNL     1       1.941   8.565  18.850  0.00  0.00    +0.000 A 
ATOM     15  C   UNL     1       2.471   7.286  18.581  0.00  0.00    +0.000 A 
ENDBRANCH   4   6
ENDBRANCH   1   2
BRANCH   1  16
ATOM     16  N   UNL     1       3.285   2.122  19.394  0.00  0.00    +0.000 NA
ATOM     17  H   UNL     1       4.131   2.443  19.849  0.00  0.00    +0.000 HD
ATOM     18  H   UNL     1       3.348   1.111  19.283  0.00  0.00    +0.000 HD
ENDBRANCH   1  16
BRANCH   1  19
ATOM     19  C   UNL     1       4.423   3.080  17.385  0.00  0.00    +0.000 C 
BRANCH  19  20
ATOM     20  O   UNL     1       5.246   3.905  18.215  0.00  0.00    +0.000 OA
BRANCH  20  21
ATOM     21  C   UNL     1       6.028   4.819  17.563  0.00  0.00    +0.000 A 
ATOM     22  C   UNL     1       6.544   4.423  16.335  0.00  0.00    +0.000 A 
ATOM     23  N   UNL     1       7.317   5.201  15.542  0.00  0.00    +0.000 NA
ATOM     24  C   UNL     1       7.596   6.441  16.008  0.00  0.00    +0.000 A 
ATOM     25  C   UNL     1       7.154   6.944  17.231  0.00  0.00    +0.000 A 
ATOM     26  C   UNL     1       6.340   6.107  18.005  0.00  0.00    +0.000 A 
BRANCH  25  27
ATOM     27  C   UNL     1       7.487   8.323  17.619  0.00  0.00    +0.000 C 
ATOM     28  C   UNL     1       8.575   8.674  18.326  0.00  0.00    +0.000 C 
BRANCH  28  29
ATOM     29  C   UNL     1       8.904  10.056  18.716  0.00  0.00    +0.000 A 
ATOM     30  C   UNL     1       8.731  11.143  17.857  0.00  0.00    +0.000 A 
ATOM     31  C   UNL     1       9.036  12.414  18.319  0.00  0.00    +0.000 A 
ATOM     32  N   UNL     1       9.482  12.674  19.564  0.00  0.00    +0.000 NA
ATOM     33  C   UNL     1       9.625  11.614  20.387  0.00  0.00    +0.000 A 
ATOM     34  C   UNL     1       9.348  10.307  20.017  0.00  0.00    +0.000 A 
ENDBRANCH  28  29
ENDBRANCH  25  27
ENDBRANCH  20  21
ENDBRANCH  19  20
ENDBRANCH   1  19
TORSDOF 8
ENDMDL
MODEL 3
REMARK VINA RESULT:      -8.9      0.780      1.165
REMARK  Name = 
REMARK  8 active torsions:
REMARK  status: ('A' for Active; 'I' for Inactive)
REMARK    1  A    between atoms: N_1  and  C_2
REMARK    2  A    between atoms: C_2  and  C_3
REMARK    3  A    between atoms: C_2  and  C_19
REMARK    4  A    between atoms: C_3  and  O_4
REMARK    5  A    between atoms: O_4  and  C_5
REMARK    6  A    between atoms: C_9  and  C_10
REMARK    7  A    between atoms: C_11  and  C_12
REMARK    8  A    between atoms: N_21  and  C_22
REMARK                            x       y       z     vdW  Elec       q    Type
REMARK                         _______ _______ _______ _____ _____    ______ ____
ROOT
ATOM      1  C   UNL     1       3.357   2.924  19.747  0.00  0.00    +0.000 C 
ENDROOT
BRANCH   1   2
ATOM      2  C   UNL     1       2.436   4.164  19.676  0.00  0.00    +0.000 C 
ATOM      3  O   UNL     1       1.216   4.052  19.779  0.00  0.00    +0.000 OA
ATOM      4  N   UNL     1       3.113   5.359  19.478  0.00  0.00    +0.000 N 
ATOM      5  H   UNL     1       4.100   5.302  19.267  0.00  0.00    +0.000 HD
BRANCH   4   6
ATOM      6  C   UNL     1       2.524   6.643  19.402  0.00  0.00    +0.000 A 
ATOM      7  C   UNL     1       2.544   7.421  18.246  0.00  0.00    +0.000 A 
ATOM      8  C   UNL     1       1.954   8.687  18.226  0.00  0.00    +0.000 A 
ATOM      9  C   UNL     1       1.339   9.208  19.369  0.00  0.00    +0.000 A 
ATOM     10  C   UNL     1       0.761  10.485  19.356  0.00  0.00    +0.000 A 
ATOM     11  C   UNL     1       0.165  11.007  20.504  0.00  0.00    +0.000 A 
ATOM     12  C   UNL     1       0.140  10.255  21.675  0.00  0.00    +0.000 A 
ATOM     13  C   UNL     1       0.705   8.976  21.699  0.00  0.00    +0.000 A 
ATOM     14  C   UNL     1       1.306   8.432  20.549  0.00  0.00    +0.000 A 
ATOM     15  C   UNL     1       1.885   7.145  20.545  0.00  0.00    +0.000 A 
ENDBRANCH   4   6
ENDBRANCH   1   2
BRANCH   1  16
ATOM     16  N   UNL     1       3.888   2.736  21.117  0.00  0.00    +0.000 NA
ATOM     17  H   UNL     1       3.152   2.688  21.813  0.00  0.00    +0.000 HD
ATOM     18  H   UNL     1       4.503   3.511  21.358  0.00  0.00    +0.000 HD
ENDBRANCH   1  16
BRANCH   1  19
ATOM     19  C   UNL     1       4.497   3.126  18.724  0.00  0.00    +0.000 C 
BRANCH  19  20
ATOM     20  O   UNL     1       5.495   4.018  19.229  0.00  0.00    +0.000 OA
BRANCH  20  21
ATOM     21  C   UNL     1       6.118   4.806  18.301  0.00  0.00    +0.000 A 
ATOM     22  C   UNL     1       6.181   4.302  17.008  0.00  0.00    +0.000 A 
ATOM     23  N   UNL     1       6.738   4.951  15.958  0.00  0.00    +0.000 NA
ATOM     24  C   UNL     1       7.270   6.168  16.221  0.00  0.00    +0.000 A 
ATOM     25  C   UNL     1       7.286   6.768  17.478  0.00  0.00    +0.000 A 
ATOM     26  C   UNL     1       6.678   6.066  18.526  0.00  0.00    +0.000 A 
BRANCH  25  27
ATOM     27  C   UNL     1       7.858   8.114  17.639  0.00  0.00    +0.000 C 
ATOM     28  C   UNL     1       8.452   8.561  18.760  0.00  0.00    +0.000 C 
BRANCH  28  29
ATOM     29  C   UNL     1       9.021   9.910  18.919  0.00  0.00    +0.000 A 
ATOM     30  C   UNL     1       9.259  10.759  17.837  0.00  0.00    +0.000 A 
ATOM     31  C   UNL     1       9.767  12.026  18.083  0.00  0.00    +0.000 A 
ATOM     32  N   UNL     1      10.038  12.501  19.315  0.00  0.00    +0.000 NA
ATOM     33  C   UNL     1       9.784  11.674  20.349  0.00  0.00    +0.000 A 
ATOM     34  C   UNL     1       9.278  10.391  20.206  0.00  0.00    +0.000 A 
ENDBRANCH  28  29
ENDBRANCH  25  27
ENDBRANCH  20  21
ENDBRANCH  19  20
ENDBRANCH   1  19
TORSDOF 8
ENDMDL
MODEL 4
REMARK VINA RESULT:      -8.8      1.438      2.058
REMARK  Name = 
REMARK  8 active torsions:
REMARK  status: ('A' for Active; 'I' for Inactive)
REMARK    1  A    between atoms: N_1  and  C_2
REMARK    2  A    between atoms: C_2  and  C_3
REMARK    3  A    between atoms: C_2  and  C_19
REMARK    4  A    between atoms: C_3  and  O_4
REMARK    5  A    between atoms: O_4  and  C_5
REMARK    6  A    between atoms: C_9  and  C_10
REMARK    7  A    between atoms: C_11  and  C_12
REMARK    8  A    between atoms: N_21  and  C_22
REMARK                            x       y       z     vdW  Elec       q    Type
REMARK                         _______ _______ _______ _____ _____    ______ ____
ROOT
ATOM      1  C   UNL     1       3.855   3.939  17.017  0.00  0.00    +0.000 C 
ENDROOT
BRANCH   1   2
ATOM      2  C   UNL     1       3.225   4.744  18.177  0.00  0.00    +0.000 C 
ATOM      3  O   UNL     1       3.053   4.231  19.281  0.00  0.00    +0.000 OA
ATOM      4  N   UNL     1       2.881   6.045  17.839  0.00  0.00    +0.000 N 
ATOM      5  H   UNL     1       2.942   6.301  16.864  0.00  0.00    +0.000 HD
BRANCH   4   6
ATOM      6  C   UNL     1       2.316   7.006  18.711  0.00  0.00    +0.000 A 
ATOM      7  C   UNL     1       2.050   6.749  20.055  0.00  0.00    +0.000 A 
ATOM      8  C   UNL     1       1.484   7.730  20.872  0.00  0.00    +0.000 A 
ATOM      9  C   UNL     1       1.161   8.990  20.358  0.00  0.00    +0.000 A 
ATOM     10  C   UNL     1       0.578   9.971  21.173  0.00  0.00    +0.000 A 
ATOM     11  C   UNL     1       0.241  11.219  20.650  0.00  0.00    +0.000 A 
ATOM     12  C   UNL     1       0.486  11.499  19.309  0.00  0.00    +0.000 A 
ATOM     13  C   UNL     1       1.076  10.533  18.489  0.00  0.00    +0.000 A 
ATOM     14  C   UNL     1       1.427   9.269  18.999  0.00  0.00    +0.000 A 
ATOM     15  C   UNL     1       2.022   8.275  18.194  0.00  0.00    +0.000 A 
ENDBRANCH   4   6
ENDBRANCH   1   2
BRANCH   1  16
ATOM     16  N   UNL     1       4.663   2.810  17.533  0.00  0.00    +0.000 NA
ATOM     17  H   UNL     1       4.201   2.319  18.290  0.00  0.00    +0.000 HD
ATOM     18  H   UNL     1       5.558   3.154  17.877  0.00  0.00    +0.000 HD
ENDBRANCH   1  16
BRANCH   1  19
ATOM     19  C   UNL     1       4.716   4.912  16.181  0.00  0.00    +0.000 C 
BRANCH  19  20
ATOM     20  O   UNL     1       6.109   4.609  16.305  0.00  0.00    +0.000 OA
BRANCH  20  21
ATOM     21  C   UNL     1       6.810   5.372  17.198  0.00  0.00    +0.000 A 
ATOM     22  C   UNL     1       7.299   4.712  18.319  0.00  0.00    +0.000 A 
ATOM     23  N   UNL     1       8.032   5.300  19.294  0.00  0.00    +0.000 NA
ATOM     24  C   UNL     1       8.280   6.623  19.142  0.00  0.00    +0.000 A 
ATOM     25  C   UNL     1       7.826   7.394  18.075  0.00  0.00    +0.000 A 
ATOM     26  C   UNL     1       7.090   6.735  17.082  0.00  0.00    +0.000 A 
BRANCH  25  27
ATOM     27  C   UNL     1       8.189   8.817  17.993  0.00  0.00    +0.000 C 
ATOM     28  C   UNL     1       8.981   9.454  18.874  0.00  0.00    +0.000 C 
BRANCH  28  29
ATOM     29  C   UNL     1       9.340  10.880  18.790  0.00  0.00    +0.000 A 
ATOM     30  C   UNL     1      10.326  11.457  19.593  0.00  0.00    +0.000 A 
ATOM     31  C   UNL     1      10.622  12.801  19.424  0.00  0.00    +0.000 A 
ATOM     32  N   UNL     1      10.021  13.594  18.516  0.00  0.00    +0.000 NA
ATOM     33  C   UNL     1       9.085  13.016  17.736  0.00  0.00    +0.000 A 
ATOM     34  C   UNL     1       8.719  11.682  17.829  0.00  0.00    +0.000 A 
ENDBRANCH  28  29
ENDBRANCH  25  27
ENDBRANCH  20  21
ENDBRANCH  19  20
ENDBRANCH   1  19
TORSDOF 8
ENDMDL
MODEL 5
REMARK VINA RESULT:      -8.6      1.367      1.988
REMARK  Name = 
REMARK  8 active torsions:
REMARK  status: ('A' for Active; 'I' for Inactive)
REMARK    1  A    between atoms: N_1  and  C_2
REMARK    2  A    between atoms: C_2  and  C_3
REMARK    3  A    between atoms: C_2  and  C_19
REMARK    4  A    between atoms: C_3  and  O_4
REMARK    5  A    between atoms: O_4  and  C_5
REMARK    6  A    between atoms: C_9  and  C_10
REMARK    7  A    between atoms: C_11  and  C_12
REMARK    8  A    between atoms: N_21  and  C_22
REMARK                            x       y       z     vdW  Elec       q    Type
REMARK                         _______ _______ _______ _____ _____    ______ ____
ROOT
ATOM      1  C   UNL     1       3.147   3.022  18.835  0.00  0.00    +0.000 C 
ENDROOT
BRANCH   1   2
ATOM      2  C   UNL     1       2.252   4.281  18.898  0.00  0.00    +0.000 C 
ATOM      3  O   UNL     1       1.179   4.324  18.300  0.00  0.00    +0.000 OA
ATOM      4  N   UNL     1       2.782   5.313  19.659  0.00  0.00    +0.000 N 
ATOM      5  H   UNL     1       3.734   5.208  19.981  0.00  0.00    +0.000 HD
BRANCH   4   6
ATOM      6  C   UNL     1       2.165   6.562  19.908  0.00  0.00    +0.000 A 
ATOM      7  C   UNL     1       1.437   6.832  21.066  0.00  0.00    +0.000 A 
ATOM      8  C   UNL     1       0.840   8.079  21.259  0.00  0.00    +0.000 A 
ATOM      9  C   UNL     1       0.949   9.084  20.292  0.00  0.00    +0.000 A 
ATOM     10  C   UNL     1       0.337  10.331  20.477  0.00  0.00    +0.000 A 
ATOM     11  C   UNL     1       0.434  11.322  19.501  0.00  0.00    +0.000 A 
ATOM     12  C   UNL     1       1.146  11.075  18.331  0.00  0.00    +0.000 A 
ATOM     13  C   UNL     1       1.770   9.839  18.138  0.00  0.00    +0.000 A 
ATOM     14  C   UNL     1       1.686   8.828  19.114  0.00  0.00    +0.000 A 
ATOM     15  C   UNL     1       2.304   7.571  18.945  0.00  0.00    +0.000 A 
ENDBRANCH   4   6
ENDBRANCH   1   2
BRANCH   1  16
ATOM     16  N   UNL     1       4.130   3.015  19.943  0.00  0.00    +0.000 NA
ATOM     17  H   UNL     1       3.835   3.590  20.724  0.00  0.00    +0.000 HD
ATOM     18  H   UNL     1       5.027   3.367  19.611  0.00  0.00    +0.000 HD
ENDBRANCH   1  16
BRANCH   1  19
ATOM     19  C   UNL     1       3.849   3.012  17.459  0.00  0.00    +0.000 C 
BRANCH  19  20
ATOM     20  O   UNL     1       3.881   4.322  16.884  0.00  0.00    +0.000 OA
BRANCH  20  21
ATOM     21  C   UNL     1       5.104   4.935  16.861  0.00  0.00    +0.000 A 
ATOM     22  C   UNL     1       6.152   4.196  16.326  0.00  0.00    +0.000 A 
ATOM     23  N   UNL     1       7.422   4.647  16.202  0.00  0.00    +0.000 NA
ATOM     24  C   UNL     1       7.657   5.905  16.646  0.00  0.00    +0.000 A 
ATOM     25  C   UNL     1       6.695   6.733  17.220  0.00  0.00    +0.000 A 
ATOM     26  C   UNL     1       5.392   6.227  17.306  0.00  0.00    +0.000 A 
BRANCH  25  27
ATOM     27  C   UNL     1       7.055   8.098  17.633  0.00  0.00    +0.000 C 
ATOM     28  C   UNL     1       8.296   8.489  17.974  0.00  0.00    +0.000 C 
BRANCH  28  29
ATOM     29  C   UNL     1       8.652   9.856  18.390  0.00  0.00    +0.000 A 
ATOM     30  C   UNL     1       9.313  10.130  19.589  0.00  0.00    +0.000 A 
ATOM     31  C   UNL     1       9.639  11.445  19.886  0.00  0.00    +0.000 A 
ATOM     32  N   UNL     1       9.367  12.488  19.076  0.00  0.00    +0.000 NA
ATOM     33  C   UNL     1       8.745  12.202  17.913  0.00  0.00    +0.000 A 
ATOM     34  C   UNL     1       8.378  10.921  17.528  0.00  0.00    +0.000 A 
ENDBRANCH  28  29
ENDBRANCH  25  27
ENDBRANCH  20  21
ENDBRANCH  19  20
ENDBRANCH   1  19
TORSDOF 8
ENDMDL
MODEL 6
REMARK VINA RESULT:      -8.3      2.188      7.435
REMARK  Name = 
REMARK  8 active torsions:
REMARK  status: ('A' for Active; 'I' for Inactive)
REMARK    1  A    between atoms: N_1  and  C_2
REMARK    2  A    between atoms: C_2  and  C_3
REMARK    3  A    between atoms: C_2  and  C_19
REMARK    4  A    between atoms: C_3  and  O_4
REMARK    5  A    between atoms: O_4  and  C_5
REMARK    6  A    between atoms: C_9  and  C_10
REMARK    7  A    between atoms: C_11  and  C_12
REMARK    8  A    between atoms: N_21  and  C_22
REMARK                            x       y       z     vdW  Elec       q    Type
REMARK                         _______ _______ _______ _____ _____    ______ ____
ROOT
ATOM      1  C   UNL     1       7.848   5.649  18.409  0.00  0.00    +0.000 C 
ENDROOT
BRANCH   1   2
ATOM      2  C   UNL     1       7.887   7.138  17.990  0.00  0.00    +0.000 C 
ATOM      3  O   UNL     1       7.347   7.517  16.954  0.00  0.00    +0.000 OA
ATOM      4  N   UNL     1       8.583   7.953  18.872  0.00  0.00    +0.000 N 
ATOM      5  H   UNL     1       9.101   7.499  19.611  0.00  0.00    +0.000 HD
BRANCH   4   6
ATOM      6  C   UNL     1       8.752   9.352  18.749  0.00  0.00    +0.000 A 
ATOM      7  C   UNL     1       8.171  10.101  17.727  0.00  0.00    +0.000 A 
ATOM      8  C   UNL     1       8.375  11.480  17.645  0.00  0.00    +0.000 A 
ATOM      9  C   UNL     1       9.175  12.142  18.582  0.00  0.00    +0.000 A 
ATOM     10  C   UNL     1       9.395  13.523  18.494  0.00  0.00    +0.000 A 
ATOM     11  C   UNL     1      10.209  14.174  19.420  0.00  0.00    +0.000 A 
ATOM     12  C   UNL     1      10.809  13.449  20.445  0.00  0.00    +0.000 A 
ATOM     13  C   UNL     1      10.591  12.072  20.551  0.00  0.00    +0.000 A 
ATOM     14  C   UNL     1       9.769  11.399  19.628  0.00  0.00    +0.000 A 
ATOM     15  C   UNL     1       9.533  10.011  19.709  0.00  0.00    +0.000 A 
ENDBRANCH   4   6
ENDBRANCH   1   2
BRANCH   1  16
ATOM     16  N   UNL     1       7.705   4.770  17.225  0.00  0.00    +0.000 NA
ATOM     17  H   UNL     1       7.130   3.958  17.414  0.00  0.00    +0.000 HD
ATOM     18  H   UNL     1       8.623   4.446  16.924  0.00  0.00    +0.000 HD
ENDBRANCH   1  16
BRANCH   1  19
ATOM     19  C   UNL     1       6.669   5.468  19.391  0.00  0.00    +0.000 C 
BRANCH  19  20
ATOM     20  O   UNL     1       5.827   4.381  18.994  0.00  0.00    +0.000 OA
BRANCH  20  21
ATOM     21  C   UNL     1       4.548   4.714  18.638  0.00  0.00    +0.000 A 
ATOM     22  C   UNL     1       3.787   3.704  18.065  0.00  0.00    +0.000 A 
ATOM     23  N   UNL     1       2.498   3.845  17.672  0.00  0.00    +0.000 NA
ATOM     24  C   UNL     1       1.947   5.068  17.856  0.00  0.00    +0.000 A 
ATOM     25  C   UNL     1       2.616   6.163  18.399  0.00  0.00    +0.000 A 
ATOM     26  C   UNL     1       3.939   5.959  18.809  0.00  0.00    +0.000 A 
BRANCH  25  27
ATOM     27  C   UNL     1       1.904   7.436  18.588  0.00  0.00    +0.000 C 
ATOM     28  C   UNL     1       2.292   8.612  18.063  0.00  0.00    +0.000 C 
BRANCH  28  29
ATOM     29  C   UNL     1       1.578   9.886  18.257  0.00  0.00    +0.000 A 
ATOM     30  C   UNL     1       2.221  11.124  18.211  0.00  0.00    +0.000 A 
ATOM     31  C   UNL     1       1.464  12.275  18.372  0.00  0.00    +0.000 A 
ATOM     32  N   UNL     1       0.130  12.277  18.560  0.00  0.00    +0.000 NA
ATOM     33  C   UNL     1      -0.477  11.072  18.582  0.00  0.00    +0.000 A 
ATOM     34  C   UNL     1       0.192   9.867  18.432  0.00  0.00    +0.000 A 
ENDBRANCH  28  29
ENDBRANCH  25  27
ENDBRANCH  20  21
ENDBRANCH  19  20
ENDBRANCH   1  19
TORSDOF 8
ENDMDL
MODEL 7
REMARK VINA RESULT:      -8.3      3.898      8.230
REMARK  Name = 
REMARK  8 active torsions:
REMARK  status: ('A' for Active; 'I' for Inactive)
REMARK    1  A    between atoms: N_1  and  C_2
REMARK    2  A    between atoms: C_2  and  C_3
REMARK    3  A    between atoms: C_2  and  C_19
REMARK    4  A    between atoms: C_3  and  O_4
REMARK    5  A    between atoms: O_4  and  C_5
REMARK    6  A    between atoms: C_9  and  C_10
REMARK    7  A    between atoms: C_11  and  C_12
REMARK    8  A    between atoms: N_21  and  C_22
REMARK                            x       y       z     vdW  Elec       q    Type
REMARK                         _______ _______ _______ _____ _____    ______ ____
ROOT
ATOM      1  C   UNL     1       2.895   2.953  19.282  0.00  0.00    +0.000 C 
ENDROOT
BRANCH   1   2
ATOM      2  C   UNL     1       3.462   3.386  17.909  0.00  0.00    +0.000 C 
ATOM      3  O   UNL     1       2.743   3.430  16.914  0.00  0.00    +0.000 OA
ATOM      4  N   UNL     1       4.816   3.690  17.929  0.00  0.00    +0.000 N 
ATOM      5  H   UNL     1       5.326   3.478  18.776  0.00  0.00    +0.000 HD
BRANCH   4   6
ATOM      6  C   UNL     1       5.582   4.138  16.827  0.00  0.00    +0.000 A 
ATOM      7  C   UNL     1       6.508   5.175  16.916  0.00  0.00    +0.000 A 
ATOM      8  C   UNL     1       7.233   5.586  15.795  0.00  0.00    +0.000 A 
ATOM      9  C   UNL     1       7.039   4.972  14.554  0.00  0.00    +0.000 A 
ATOM     10  C   UNL     1       7.753   5.393  13.423  0.00  0.00    +0.000 A 
ATOM     11  C   UNL     1       7.542   4.789  12.184  0.00  0.00    +0.000 A 
ATOM     12  C   UNL     1       6.615   3.758  12.065  0.00  0.00    +0.000 A 
ATOM     13  C   UNL     1       5.903   3.322  13.186  0.00  0.00    +0.000 A 
ATOM     14  C   UNL     1       6.106   3.916  14.445  0.00  0.00    +0.000 A 
ATOM     15  C   UNL     1       5.400   3.498  15.593  0.00  0.00    +0.000 A 
ENDBRANCH   4   6
ENDBRANCH   1   2
BRANCH   1  16
ATOM     16  N   UNL     1       1.912   1.857  19.126  0.00  0.00    +0.000 NA
ATOM     17  H   UNL     1       1.639   1.454  20.015  0.00  0.00    +0.000 HD
ATOM     18  H   UNL     1       2.309   1.116  18.550  0.00  0.00    +0.000 HD
ENDBRANCH   1  16
BRANCH   1  19
ATOM     19  C   UNL     1       2.254   4.196  19.938  0.00  0.00    +0.000 C 
BRANCH  19  20
ATOM     20  O   UNL     1       3.173   5.293  19.978  0.00  0.00    +0.000 OA
BRANCH  20  21
ATOM     21  C   UNL     1       2.671   6.507  19.597  0.00  0.00    +0.000 A 
ATOM     22  C   UNL     1       3.047   6.961  18.339  0.00  0.00    +0.000 A 
ATOM     23  N   UNL     1       2.631   8.126  17.788  0.00  0.00    +0.000 NA
ATOM     24  C   UNL     1       1.800   8.882  18.544  0.00  0.00    +0.000 A 
ATOM     25  C   UNL     1       1.371   8.544  19.826  0.00  0.00    +0.000 A 
ATOM     26  C   UNL     1       1.812   7.319  20.342  0.00  0.00    +0.000 A 
BRANCH  25  27
ATOM     27  C   UNL     1       0.435   9.425  20.541  0.00  0.00    +0.000 C 
ATOM     28  C   UNL     1       0.653  10.730  20.787  0.00  0.00    +0.000 C 
BRANCH  28  29
ATOM     29  C   UNL     1      -0.285  11.609  21.506  0.00  0.00    +0.000 A 
ATOM     30  C   UNL     1      -0.586  12.902  21.075  0.00  0.00    +0.000 A 
ATOM     31  C   UNL     1      -1.506  13.648  21.797  0.00  0.00    +0.000 A 
ATOM     32  N   UNL     1      -2.146  13.196  22.893  0.00  0.00    +0.000 NA
ATOM     33  C   UNL     1      -1.857  11.937  23.284  0.00  0.00    +0.000 A 
ATOM     34  C   UNL     1      -0.952  11.115  22.630  0.00  0.00    +0.000 A 
ENDBRANCH  28  29
ENDBRANCH  25  27
ENDBRANCH  20  21
ENDBRANCH  19  20
ENDBRANCH   1  19
TORSDOF 8
ENDMDL
MODEL 8
REMARK VINA RESULT:      -8.3      3.311      6.186
REMARK  Name = 
REMARK  8 active torsions:
REMARK  status: ('A' for Active; 'I' for Inactive)
REMARK    1  A    between atoms: N_1  and  C_2
REMARK    2  A    between atoms: C_2  and  C_3
REMARK    3  A    between atoms: C_2  and  C_19
REMARK    4  A    between atoms: C_3  and  O_4
REMARK    5  A    between atoms: O_4  and  C_5
REMARK    6  A    between atoms: C_9  and  C_10
REMARK    7  A    between atoms: C_11  and  C_12
REMARK    8  A    between atoms: N_21  and  C_22
REMARK                            x       y       z     vdW  Elec       q    Type
REMARK                         _______ _______ _______ _____ _____    ______ ____
ROOT
ATOM      1  C   UNL     1       8.010   7.528  17.807  0.00  0.00    +0.000 C 
ENDROOT
BRANCH   1   2
ATOM      2  C   UNL     1       6.644   6.873  17.500  0.00  0.00    +0.000 C 
ATOM      3  O   UNL     1       5.967   7.242  16.544  0.00  0.00    +0.000 OA
ATOM      4  N   UNL     1       6.282   5.877  18.397  0.00  0.00    +0.000 N 
ATOM      5  H   UNL     1       6.856   5.765  19.220  0.00  0.00    +0.000 HD
BRANCH   4   6
ATOM      6  C   UNL     1       5.103   5.097  18.338  0.00  0.00    +0.000 A 
ATOM      7  C   UNL     1       4.747   4.341  17.222  0.00  0.00    +0.000 A 
ATOM      8  C   UNL     1       3.567   3.595  17.211  0.00  0.00    +0.000 A 
ATOM      9  C   UNL     1       2.709   3.595  18.315  0.00  0.00    +0.000 A 
ATOM     10  C   UNL     1       1.516   2.859  18.300  0.00  0.00    +0.000 A 
ATOM     11  C   UNL     1       0.656   2.879  19.398  0.00  0.00    +0.000 A 
ATOM     12  C   UNL     1       0.982   3.633  20.521  0.00  0.00    +0.000 A 
ATOM     13  C   UNL     1       2.173   4.364  20.552  0.00  0.00    +0.000 A 
ATOM     14  C   UNL     1       3.056   4.353  19.457  0.00  0.00    +0.000 A 
ATOM     15  C   UNL     1       4.264   5.082  19.460  0.00  0.00    +0.000 A 
ENDBRANCH   4   6
ENDBRANCH   1   2
BRANCH   1  16
ATOM     16  N   UNL     1       8.525   7.089  19.125  0.00  0.00    +0.000 NA
ATOM     17  H   UNL     1       7.968   7.442  19.894  0.00  0.00    +0.000 HD
ATOM     18  H   UNL     1       9.482   7.416  19.248  0.00  0.00    +0.000 HD
ENDBRANCH   1  16
BRANCH   1  19
ATOM     19  C   UNL     1       7.818   9.061  17.760  0.00  0.00    +0.000 C 
BRANCH  19  20
ATOM     20  O   UNL     1       9.063   9.733  17.549  0.00  0.00    +0.000 OA
BRANCH  20  21
ATOM     21  C   UNL     1       9.362  10.731  18.436  0.00  0.00    +0.000 A 
ATOM     22  C   UNL     1       9.983  11.857  17.909  0.00  0.00    +0.000 A 
ATOM     23  N   UNL     1      10.330  12.948  18.631  0.00  0.00    +0.000 NA
ATOM     24  C   UNL     1      10.049  12.905  19.955  0.00  0.00    +0.000 A 
ATOM     25  C   UNL     1       9.449  11.826  20.601  0.00  0.00    +0.000 A 
ATOM     26  C   UNL     1       9.090  10.730  19.806  0.00  0.00    +0.000 A 
BRANCH  25  27
ATOM     27  C   UNL     1       9.155  11.904  22.040  0.00  0.00    +0.000 C 
ATOM     28  C   UNL     1       8.562  12.951  22.641  0.00  0.00    +0.000 C 
BRANCH  28  29
ATOM     29  C   UNL     1       8.271  13.028  24.083  0.00  0.00    +0.000 A 
ATOM     30  C   UNL     1       8.503  14.179  24.837  0.00  0.00    +0.000 A 
ATOM     31  C   UNL     1       8.170  14.173  26.184  0.00  0.00    +0.000 A 
ATOM     32  N   UNL     1       7.618  13.118  26.816  0.00  0.00    +0.000 NA
ATOM     33  C   UNL     1       7.384  12.021  26.067  0.00  0.00    +0.000 A 
ATOM     34  C   UNL     1       7.683  11.930  24.716  0.00  0.00    +0.000 A 
ENDBRANCH  28  29
ENDBRANCH  25  27
ENDBRANCH  20  21
ENDBRANCH  19  20
ENDBRANCH   1  19
TORSDOF 8
ENDMDL
MODEL 9
REMARK VINA RESULT:      -8.1      1.054      1.121
REMARK  Name = 
REMARK  8 active torsions:
REMARK  status: ('A' for Active; 'I' for Inactive)
REMARK    1  A    between atoms: N_1  and  C_2
REMARK    2  A    between atoms: C_2  and  C_3
REMARK    3  A    between atoms: C_2  and  C_19
REMARK    4  A    between atoms: C_3  and  O_4
REMARK    5  A    between atoms: O_4  and  C_5
REMARK    6  A    between atoms: C_9  and  C_10
REMARK    7  A    between atoms: C_11  and  C_12
REMARK    8  A    between atoms: N_21  and  C_22
REMARK                            x       y       z     vdW  Elec       q    Type
REMARK                         _______ _______ _______ _____ _____    ______ ____
ROOT
ATOM      1  C   UNL     1       3.492   3.988  17.540  0.00  0.00    +0.000 C 
ENDROOT
BRANCH   1   2
ATOM      2  C   UNL     1       2.583   5.004  18.270  0.00  0.00    +0.000 C 
ATOM      3  O   UNL     1       1.667   4.624  18.997  0.00  0.00    +0.000 OA
ATOM      4  N   UNL     1       2.897   6.331  18.011  0.00  0.00    +0.000 N 
ATOM      5  H   UNL     1       3.578   6.512  17.287  0.00  0.00    +0.000 HD
BRANCH   4   6
ATOM      6  C   UNL     1       2.250   7.460  18.566  0.00  0.00    +0.000 A 
ATOM      7  C   UNL     1       1.907   8.584  17.816  0.00  0.00    +0.000 A 
ATOM      8  C   UNL     1       1.276   9.677  18.414  0.00  0.00    +0.000 A 
ATOM      9  C   UNL     1       0.982   9.674  19.781  0.00  0.00    +0.000 A 
ATOM     10  C   UNL     1       0.363  10.777  20.387  0.00  0.00    +0.000 A 
ATOM     11  C   UNL     1       0.089  10.775  21.754  0.00  0.00    +0.000 A 
ATOM     12  C   UNL     1       0.430   9.670  22.528  0.00  0.00    +0.000 A 
ATOM     13  C   UNL     1       1.038   8.560  21.935  0.00  0.00    +0.000 A 
ATOM     14  C   UNL     1       1.319   8.541  20.556  0.00  0.00    +0.000 A 
ATOM     15  C   UNL     1       1.934   7.436  19.931  0.00  0.00    +0.000 A 
ENDBRANCH   4   6
ENDBRANCH   1   2
BRANCH   1  16
ATOM     16  N   UNL     1       2.683   2.987  16.806  0.00  0.00    +0.000 NA
ATOM     17  H   UNL     1       1.792   2.809  17.253  0.00  0.00    +0.000 HD
ATOM     18  H   UNL     1       3.193   2.106  16.751  0.00  0.00    +0.000 HD
ENDBRANCH   1  16
BRANCH   1  19
ATOM     19  C   UNL     1       4.394   3.318  18.599  0.00  0.00    +0.000 C 
BRANCH  19  20
ATOM     20  O   UNL     1       5.141   4.292  19.335  0.00  0.00    +0.000 OA
BRANCH  20  21
ATOM     21  C   UNL     1       6.046   5.021  18.612  0.00  0.00    +0.000 A 
ATOM     22  C   UNL     1       6.188   4.674  17.275  0.00  0.00    +0.000 A 
ATOM     23  N   UNL     1       7.018   5.299  16.405  0.00  0.00    +0.000 NA
ATOM     24  C   UNL     1       7.752   6.320  16.907  0.00  0.00    +0.000 A 
ATOM     25  C   UNL     1       7.713   6.745  18.233  0.00  0.00    +0.000 A 
ATOM     26  C   UNL     1       6.823   6.081  19.087  0.00  0.00    +0.000 A 
BRANCH  25  27
ATOM     27  C   UNL     1       8.528   7.893  18.659  0.00  0.00    +0.000 C 
ATOM     28  C   UNL     1       8.317   9.163  18.271  0.00  0.00    +0.000 C 
BRANCH  28  29
ATOM     29  C   UNL     1       9.138  10.310  18.697  0.00  0.00    +0.000 A 
ATOM     30  C   UNL     1       9.362  10.618  20.040  0.00  0.00    +0.000 A 
ATOM     31  C   UNL     1      10.175  11.698  20.350  0.00  0.00    +0.000 A 
ATOM     32  N   UNL     1      10.780  12.473  19.428  0.00  0.00    +0.000 NA
ATOM     33  C   UNL     1      10.566  12.149  18.136  0.00  0.00    +0.000 A 
ATOM     34  C   UNL     1       9.770  11.090  17.726  0.00  0.00    +0.000 A 
ENDBRANCH  28  29
ENDBRANCH  25  27
ENDBRANCH  20  21
ENDBRANCH  19  20
ENDBRANCH   1  19
TORSDOF 8
ENDMDL
