MODEL 1
REMARK VINA RESULT:      -7.7      0.000      0.000
REMARK  Name = 
REMARK  11 active torsions:
REMARK  status: ('A' for Active; 'I' for Inactive)
REMARK    1  A    between atoms: C_1  and  O_2
REMARK    2  A    between atoms: O_2  and  C_3
REMARK    3  A    between atoms: C_8  and  C_9
REMARK    4  A    between atoms: C_8  and  C_10
REMARK    5  A    between atoms: C_13  and  O_14
REMARK    6  A    between atoms: O_14  and  C_15
REMARK    7  A    between atoms: C_15  and  C_16
REMARK    8  A    between atoms: C_18  and  N_19
REMARK    9  A    between atoms: N_22  and  C_23
REMARK   10  A    between atoms: N_22  and  N_26
REMARK   11  A    between atoms: C_23  and  C_24
REMARK                            x       y       z     vdW  Elec       q    Type
REMARK                         _______ _______ _______ _____ _____    ______ ____
ROOT
ATOM      1  C   UNL     1       6.547   4.881  18.754  0.00  0.00    +0.000 C 
ATOM      2  O   UNL     1       5.980   3.624  19.109  0.00  0.00    +0.000 OA
ATOM      3  C   UNL     1       4.632   3.643  19.559  0.00  0.00    +0.000 C 
ATOM      4  C   UNL     1       4.076   2.224  19.549  0.00  0.00    +0.000 C 
ATOM      5  O   UNL     1       2.750   2.203  20.069  0.00  0.00    +0.000 OA
ATOM      6  C   UNL     1       1.851   3.105  19.416  0.00  0.00    +0.000 C 
ATOM      7  C   UNL     1       0.621   3.174  20.322  0.00  0.00    +0.000 C 
ATOM      8  C   UNL     1       1.405   2.570  18.045  0.00  0.00    +0.000 C 
ATOM      9  O   UNL     1       2.368   4.445  19.333  0.00  0.00    +0.000 OA
ATOM     10  C   UNL     1       3.660   4.473  18.716  0.00  0.00    +0.000 C 
ATOM     11  C   UNL     1       4.226   5.879  18.566  0.00  0.00    +0.000 C 
ATOM     12  C   UNL     1       5.617   5.785  17.892  0.00  0.00    +0.000 C 
ENDROOT
BRANCH  12  13
ATOM     13  N   UNL     1       5.574   5.425  16.437  0.00  0.00    +0.000 N 
ATOM     14  C   UNL     1       6.638   5.507  15.563  0.00  0.00    +0.000 C 
ATOM     15  O   UNL     1       7.697   6.032  15.900  0.00  0.00    +0.000 OA
ATOM     16  N   UNL     1       6.492   4.924  14.308  0.00  0.00    +0.000 N 
ATOM     17  H   UNL     1       4.653   5.244  16.076  0.00  0.00    +0.000 HD
BRANCH  16  18
ATOM     18  N   UNL     1       7.667   4.975  13.517  0.00  0.00    +0.000 NA
ATOM     19  O   UNL     1       7.749   5.964  12.780  0.00  0.00    +0.000 OA
ENDBRANCH  16  18
BRANCH  16  20
ATOM     20  C   UNL     1       5.325   4.211  13.779  0.00  0.00    +0.000 C 
BRANCH  20  21
ATOM     21  C   UNL     1       5.622   3.372  12.539  0.00  0.00    +0.000 C 
ATOM     22 CL   UNL     1       4.244   3.318  11.422  0.00  0.00    +0.000 Cl
ENDBRANCH  20  21
ENDBRANCH  16  20
ENDBRANCH  12  13
BRANCH   1  24
ATOM     23  C   UNL     1       8.375   5.570  20.078  0.00  0.00    +0.000 C 
ATOM     24  O   UNL     1       6.958   5.599  19.921  0.00  0.00    +0.000 OA
ENDBRANCH   1  24
BRANCH  11  25
ATOM     25  O   UNL     1       3.336   6.701  17.765  0.00  0.00    +0.000 OA
BRANCH  25  26
ATOM     26  C   UNL     1       2.591   7.626  18.427  0.00  0.00    +0.000 C 
ATOM     27  C   UNL     1       2.262   8.797  17.547  0.00  0.00    +0.000 C 
ATOM     28  O   UNL     1       2.216   7.542  19.590  0.00  0.00    +0.000 OA
ENDBRANCH  25  26
ENDBRANCH  11  25
TORSDOF 7
ENDMDL
MODEL 2
REMARK VINA RESULT:      -6.2      9.704     13.192
REMARK  Name = 
REMARK  11 active torsions:
REMARK  status: ('A' for Active; 'I' for Inactive)
REMARK    1  A    between atoms: C_1  and  O_2
REMARK    2  A    between atoms: O_2  and  C_3
REMARK    3  A    between atoms: C_8  and  C_9
REMARK    4  A    between atoms: C_8  and  C_10
REMARK    5  A    between atoms: C_13  and  O_14
REMARK    6  A    between atoms: O_14  and  C_15
REMARK    7  A    between atoms: C_15  and  C_16
REMARK    8  A    between atoms: C_18  and  N_19
REMARK    9  A    between atoms: N_22  and  C_23
REMARK   10  A    between atoms: N_22  and  N_26
REMARK   11  A    between atoms: C_23  and  C_24
REMARK                            x       y       z     vdW  Elec       q    Type
REMARK                         _______ _______ _______ _____ _____    ______ ____
ROOT
ATOM      1  C   UNL     1      -1.784  14.677  23.431  0.00  0.00    +0.000 C 
ATOM      2  O   UNL     1      -1.355  15.124  22.149  0.00  0.00    +0.000 OA
ATOM      3  C   UNL     1      -0.497  14.250  21.430  0.00  0.00    +0.000 C 
ATOM      4  C   UNL     1      -0.427  14.695  19.973  0.00  0.00    +0.000 C 
ATOM      5  O   UNL     1       0.487  13.883  19.245  0.00  0.00    +0.000 OA
ATOM      6  C   UNL     1       0.222  12.479  19.333  0.00  0.00    +0.000 C 
ATOM      7  C   UNL     1       1.478  11.797  18.789  0.00  0.00    +0.000 C 
ATOM      8  C   UNL     1      -0.967  12.067  18.450  0.00  0.00    +0.000 C 
ATOM      9  O   UNL     1       0.073  12.025  20.691  0.00  0.00    +0.000 OA
ATOM     10  C   UNL     1      -0.923  12.780  21.391  0.00  0.00    +0.000 C 
ATOM     11  C   UNL     1      -1.147  12.302  22.820  0.00  0.00    +0.000 C 
ATOM     12  C   UNL     1      -2.237  13.187  23.474  0.00  0.00    +0.000 C 
ENDROOT
BRANCH  12  13
ATOM     13  N   UNL     1      -3.623  12.943  22.955  0.00  0.00    +0.000 N 
ATOM     14  C   UNL     1      -4.683  12.476  23.704  0.00  0.00    +0.000 C 
ATOM     15  O   UNL     1      -4.522  12.083  24.856  0.00  0.00    +0.000 OA
ATOM     16  N   UNL     1      -5.949  12.519  23.129  0.00  0.00    +0.000 N 
ATOM     17  H   UNL     1      -3.714  13.004  21.956  0.00  0.00    +0.000 HD
BRANCH  16  18
ATOM     18  N   UNL     1      -6.986  12.109  24.005  0.00  0.00    +0.000 NA
ATOM     19  O   UNL     1      -7.712  13.024  24.407  0.00  0.00    +0.000 OA
ENDBRANCH  16  18
BRANCH  16  20
ATOM     20  C   UNL     1      -6.316  13.013  21.798  0.00  0.00    +0.000 C 
BRANCH  20  21
ATOM     21  C   UNL     1      -7.508  12.290  21.176  0.00  0.00    +0.000 C 
ATOM     22 CL   UNL     1      -7.005  10.964  20.111  0.00  0.00    +0.000 Cl
ENDBRANCH  20  21
ENDBRANCH  16  20
ENDBRANCH  12  13
BRANCH   1  24
ATOM     23  C   UNL     1      -1.298  15.457  25.604  0.00  0.00    +0.000 C 
ATOM     24  O   UNL     1      -0.763  14.891  24.410  0.00  0.00    +0.000 OA
ENDBRANCH   1  24
BRANCH  11  25
ATOM     25  O   UNL     1      -1.560  10.910  22.830  0.00  0.00    +0.000 OA
BRANCH  25  26
ATOM     26  C   UNL     1      -0.583   9.979  22.996  0.00  0.00    +0.000 C 
ATOM     27  C   UNL     1      -0.543   9.014  21.847  0.00  0.00    +0.000 C 
ATOM     28  O   UNL     1       0.185   9.912  23.948  0.00  0.00    +0.000 OA
ENDBRANCH  25  26
ENDBRANCH  11  25
TORSDOF 7
ENDMDL
MODEL 3
REMARK VINA RESULT:      -6.2      1.010      1.010
REMARK  Name = 
REMARK  11 active torsions:
REMARK  status: ('A' for Active; 'I' for Inactive)
REMARK    1  A    between atoms: C_1  and  O_2
REMARK    2  A    between atoms: O_2  and  C_3
REMARK    3  A    between atoms: C_8  and  C_9
REMARK    4  A    between atoms: C_8  and  C_10
REMARK    5  A    between atoms: C_13  and  O_14
REMARK    6  A    between atoms: O_14  and  C_15
REMARK    7  A    between atoms: C_15  and  C_16
REMARK    8  A    between atoms: C_18  and  N_19
REMARK    9  A    between atoms: N_22  and  C_23
REMARK   10  A    between atoms: N_22  and  N_26
REMARK   11  A    between atoms: C_23  and  C_24
REMARK                            x       y       z     vdW  Elec       q    Type
REMARK                         _______ _______ _______ _____ _____    ______ ____
ROOT
ATOM      1  C   UNL     1       6.782   5.232  18.036  0.00  0.00    +0.000 C 
ATOM      2  O   UNL     1       6.265   4.065  18.668  0.00  0.00    +0.000 OA
ATOM      3  C   UNL     1       4.958   4.170  19.216  0.00  0.00    +0.000 C 
ATOM      4  C   UNL     1       4.424   2.774  19.520  0.00  0.00    +0.000 C 
ATOM      5  O   UNL     1       3.146   2.853  20.143  0.00  0.00    +0.000 OA
ATOM      6  C   UNL     1       2.183   3.615  19.408  0.00  0.00    +0.000 C 
ATOM      7  C   UNL     1       1.031   3.856  20.385  0.00  0.00    +0.000 C 
ATOM      8  C   UNL     1       1.634   2.832  18.205  0.00  0.00    +0.000 C 
ATOM      9  O   UNL     1       2.671   4.916  19.033  0.00  0.00    +0.000 OA
ATOM     10  C   UNL     1       3.908   4.826  18.315  0.00  0.00    +0.000 C 
ATOM     11  C   UNL     1       4.438   6.178  17.858  0.00  0.00    +0.000 C 
ATOM     12  C   UNL     1       5.771   5.958  17.100  0.00  0.00    +0.000 C 
ENDROOT
BRANCH  12  13
ATOM     13  N   UNL     1       5.614   5.329  15.747  0.00  0.00    +0.000 N 
ATOM     14  C   UNL     1       6.622   5.176  14.818  0.00  0.00    +0.000 C 
ATOM     15  O   UNL     1       7.725   5.688  14.988  0.00  0.00    +0.000 OA
ATOM     16  N   UNL     1       6.364   4.374  13.710  0.00  0.00    +0.000 N 
ATOM     17  H   UNL     1       4.664   5.141  15.479  0.00  0.00    +0.000 HD
BRANCH  16  18
ATOM     18  N   UNL     1       7.486   4.198  12.861  0.00  0.00    +0.000 NA
ATOM     19  O   UNL     1       7.657   5.106  12.039  0.00  0.00    +0.000 OA
ENDBRANCH  16  18
BRANCH  16  20
ATOM     20  C   UNL     1       5.130   3.648  13.394  0.00  0.00    +0.000 C 
BRANCH  20  21
ATOM     21  C   UNL     1       5.127   3.007  12.008  0.00  0.00    +0.000 C 
ATOM     22 CL   UNL     1       3.839   3.655  10.975  0.00  0.00    +0.000 Cl
ENDBRANCH  20  21
ENDBRANCH  16  20
ENDBRANCH  12  13
BRANCH   1  24
ATOM     23  C   UNL     1       8.006   7.217  18.395  0.00  0.00    +0.000 C 
ATOM     24  O   UNL     1       7.276   6.157  19.009  0.00  0.00    +0.000 OA
ENDBRANCH   1  24
BRANCH  11  25
ATOM     25  O   UNL     1       3.474   6.835  16.993  0.00  0.00    +0.000 OA
BRANCH  25  26
ATOM     26  C   UNL     1       2.480   7.536  17.601  0.00  0.00    +0.000 C 
ATOM     27  C   UNL     1       3.029   8.672  18.414  0.00  0.00    +0.000 C 
ATOM     28  O   UNL     1       1.281   7.299  17.514  0.00  0.00    +0.000 OA
ENDBRANCH  25  26
ENDBRANCH  11  25
TORSDOF 7
ENDMDL
MODEL 4
REMARK VINA RESULT:      -6.1      1.377      3.300
REMARK  Name = 
REMARK  11 active torsions:
REMARK  status: ('A' for Active; 'I' for Inactive)
REMARK    1  A    between atoms: C_1  and  O_2
REMARK    2  A    between atoms: O_2  and  C_3
REMARK    3  A    between atoms: C_8  and  C_9
REMARK    4  A    between atoms: C_8  and  C_10
REMARK    5  A    between atoms: C_13  and  O_14
REMARK    6  A    between atoms: O_14  and  C_15
REMARK    7  A    between atoms: C_15  and  C_16
REMARK    8  A    between atoms: C_18  and  N_19
REMARK    9  A    between atoms: N_22  and  C_23
REMARK   10  A    between atoms: N_22  and  N_26
REMARK   11  A    between atoms: C_23  and  C_24
REMARK                            x       y       z     vdW  Elec       q    Type
REMARK                         _______ _______ _______ _____ _____    ______ ____
ROOT
ATOM      1  C   UNL     1       4.808   3.024  18.454  0.00  0.00    +0.000 C 
ATOM      2  O   UNL     1       3.434   3.370  18.595  0.00  0.00    +0.000 OA
ATOM      3  C   UNL     1       3.159   4.658  19.128  0.00  0.00    +0.000 C 
ATOM      4  C   UNL     1       1.695   5.005  18.880  0.00  0.00    +0.000 C 
ATOM      5  O   UNL     1       1.370   6.258  19.472  0.00  0.00    +0.000 OA
ATOM      6  C   UNL     1       2.222   7.335  19.068  0.00  0.00    +0.000 C 
ATOM      7  C   UNL     1       1.930   8.470  20.050  0.00  0.00    +0.000 C 
ATOM      8  C   UNL     1       1.883   7.829  17.652  0.00  0.00    +0.000 C 
ATOM      9  O   UNL     1       3.620   7.025  19.214  0.00  0.00    +0.000 OA
ATOM     10  C   UNL     1       3.964   5.814  18.529  0.00  0.00    +0.000 C 
ATOM     11  C   UNL     1       5.445   5.472  18.618  0.00  0.00    +0.000 C 
ATOM     12  C   UNL     1       5.696   4.151  17.848  0.00  0.00    +0.000 C 
ENDROOT
BRANCH  12  13
ATOM     13  N   UNL     1       5.604   4.281  16.356  0.00  0.00    +0.000 N 
ATOM     14  C   UNL     1       6.674   4.462  15.505  0.00  0.00    +0.000 C 
ATOM     15  O   UNL     1       7.803   4.674  15.940  0.00  0.00    +0.000 OA
ATOM     16  N   UNL     1       6.441   4.337  14.138  0.00  0.00    +0.000 N 
ATOM     17  H   UNL     1       4.669   4.376  16.000  0.00  0.00    +0.000 HD
BRANCH  16  18
ATOM     18  N   UNL     1       7.614   4.444  13.350  0.00  0.00    +0.000 NA
ATOM     19  O   UNL     1       7.898   5.595  13.002  0.00  0.00    +0.000 OA
ENDBRANCH  16  18
BRANCH  16  20
ATOM     20  C   UNL     1       5.175   4.026  13.467  0.00  0.00    +0.000 C 
BRANCH  20  21
ATOM     21  C   UNL     1       5.339   3.230  12.175  0.00  0.00    +0.000 C 
ATOM     22 CL   UNL     1       3.931   3.390  11.108  0.00  0.00    +0.000 Cl
ENDBRANCH  20  21
ENDBRANCH  16  20
ENDBRANCH  12  13
BRANCH   1  24
ATOM     23  C   UNL     1       4.480   1.718  20.392  0.00  0.00    +0.000 C 
ATOM     24  O   UNL     1       5.358   2.611  19.709  0.00  0.00    +0.000 OA
ENDBRANCH   1  24
BRANCH  11  25
ATOM     25  O   UNL     1       6.248   6.542  18.053  0.00  0.00    +0.000 OA
BRANCH  25  26
ATOM     26  C   UNL     1       7.515   6.675  18.527  0.00  0.00    +0.000 C 
ATOM     27  C   UNL     1       8.152   7.944  18.038  0.00  0.00    +0.000 C 
ATOM     28  O   UNL     1       8.091   5.883  19.262  0.00  0.00    +0.000 OA
ENDBRANCH  25  26
ENDBRANCH  11  25
TORSDOF 7
ENDMDL
MODEL 5
REMARK VINA RESULT:      -6.0      8.927     12.404
REMARK  Name = 
REMARK  11 active torsions:
REMARK  status: ('A' for Active; 'I' for Inactive)
REMARK    1  A    between atoms: C_1  and  O_2
REMARK    2  A    between atoms: O_2  and  C_3
REMARK    3  A    between atoms: C_8  and  C_9
REMARK    4  A    between atoms: C_8  and  C_10
REMARK    5  A    between atoms: C_13  and  O_14
REMARK    6  A    between atoms: O_14  and  C_15
REMARK    7  A    between atoms: C_15  and  C_16
REMARK    8  A    between atoms: C_18  and  N_19
REMARK    9  A    between atoms: N_22  and  C_23
REMARK   10  A    between atoms: N_22  and  N_26
REMARK   11  A    between atoms: C_23  and  C_24
REMARK                            x       y       z     vdW  Elec       q    Type
REMARK                         _______ _______ _______ _____ _____    ______ ____
ROOT
ATOM      1  C   UNL     1      -1.067  14.537  22.308  0.00  0.00    +0.000 C 
ATOM      2  O   UNL     1      -0.698  14.594  20.934  0.00  0.00    +0.000 OA
ATOM      3  C   UNL     1       0.001  13.469  20.420  0.00  0.00    +0.000 C 
ATOM      4  C   UNL     1      -0.002  13.526  18.896  0.00  0.00    +0.000 C 
ATOM      5  O   UNL     1       0.759  12.451  18.355  0.00  0.00    +0.000 OA
ATOM      6  C   UNL     1       0.355  11.157  18.815  0.00  0.00    +0.000 C 
ATOM      7  C   UNL     1       1.483  10.212  18.399  0.00  0.00    +0.000 C 
ATOM      8  C   UNL     1      -0.939  10.688  18.130  0.00  0.00    +0.000 C 
ATOM      9  O   UNL     1       0.270  11.077  20.249  0.00  0.00    +0.000 OA
ATOM     10  C   UNL     1      -0.581  12.100  20.783  0.00  0.00    +0.000 C 
ATOM     11  C   UNL     1      -0.737  12.024  22.295  0.00  0.00    +0.000 C 
ATOM     12  C   UNL     1      -1.670  13.172  22.756  0.00  0.00    +0.000 C 
ENDROOT
BRANCH  12  13
ATOM     13  N   UNL     1      -3.112  12.979  22.390  0.00  0.00    +0.000 N 
ATOM     14  C   UNL     1      -4.105  12.567  23.253  0.00  0.00    +0.000 C 
ATOM     15  O   UNL     1      -3.839  12.183  24.390  0.00  0.00    +0.000 OA
ATOM     16  N   UNL     1      -5.422  12.655  22.814  0.00  0.00    +0.000 N 
ATOM     17  H   UNL     1      -3.305  13.031  21.405  0.00  0.00    +0.000 HD
BRANCH  16  18
ATOM     18  N   UNL     1      -6.376  12.301  23.801  0.00  0.00    +0.000 NA
ATOM     19  O   UNL     1      -7.055  13.243  24.222  0.00  0.00    +0.000 OA
ENDBRANCH  16  18
BRANCH  16  20
ATOM     20  C   UNL     1      -5.907  13.146  21.520  0.00  0.00    +0.000 C 
BRANCH  20  21
ATOM     21  C   UNL     1      -6.068  12.054  20.465  0.00  0.00    +0.000 C 
ATOM     22 CL   UNL     1      -4.856  12.184  19.177  0.00  0.00    +0.000 Cl
ENDBRANCH  20  21
ENDBRANCH  16  20
ENDBRANCH  12  13
BRANCH   1  24
ATOM     23  C   UNL     1       0.278  16.267  23.183  0.00  0.00    +0.000 C 
ATOM     24  O   UNL     1       0.047  14.861  23.145  0.00  0.00    +0.000 OA
ENDBRANCH   1  24
BRANCH  11  25
ATOM     25  O   UNL     1      -1.293  10.741  22.684  0.00  0.00    +0.000 OA
BRANCH  25  26
ATOM     26  C   UNL     1      -0.409   9.756  22.994  0.00  0.00    +0.000 C 
ATOM     27  C   UNL     1      -0.557   8.577  22.077  0.00  0.00    +0.000 C 
ATOM     28  O   UNL     1       0.418   9.796  23.898  0.00  0.00    +0.000 OA
ENDBRANCH  25  26
ENDBRANCH  11  25
TORSDOF 7
ENDMDL
MODEL 6
REMARK VINA RESULT:      -5.9      3.250      6.295
REMARK  Name = 
REMARK  11 active torsions:
REMARK  status: ('A' for Active; 'I' for Inactive)
REMARK    1  A    between atoms: C_1  and  O_2
REMARK    2  A    between atoms: O_2  and  C_3
REMARK    3  A    between atoms: C_8  and  C_9
REMARK    4  A    between atoms: C_8  and  C_10
REMARK    5  A    between atoms: C_13  and  O_14
REMARK    6  A    between atoms: O_14  and  C_15
REMARK    7  A    between atoms: C_15  and  C_16
REMARK    8  A    between atoms: C_18  and  N_19
REMARK    9  A    between atoms: N_22  and  C_23
REMARK   10  A    between atoms: N_22  and  N_26
REMARK   11  A    between atoms: C_23  and  C_24
REMARK                            x       y       z     vdW  Elec       q    Type
REMARK                         _______ _______ _______ _____ _____    ______ ____
ROOT
ATOM      1  C   UNL     1       5.160   4.147  19.755  0.00  0.00    +0.000 C 
ATOM      2  O   UNL     1       6.253   4.664  19.001  0.00  0.00    +0.000 OA
ATOM      3  C   UNL     1       6.325   4.266  17.639  0.00  0.00    +0.000 C 
ATOM      4  C   UNL     1       7.310   5.167  16.901  0.00  0.00    +0.000 C 
ATOM      5  O   UNL     1       7.461   4.741  15.551  0.00  0.00    +0.000 OA
ATOM      6  C   UNL     1       6.230   4.637  14.829  0.00  0.00    +0.000 C 
ATOM      7  C   UNL     1       6.574   3.860  13.557  0.00  0.00    +0.000 C 
ATOM      8  C   UNL     1       5.693   6.017  14.416  0.00  0.00    +0.000 C 
ATOM      9  O   UNL     1       5.240   3.856  15.523  0.00  0.00    +0.000 OA
ATOM     10  C   UNL     1       5.016   4.351  16.849  0.00  0.00    +0.000 C 
ATOM     11  C   UNL     1       3.942   3.582  17.605  0.00  0.00    +0.000 C 
ATOM     12  C   UNL     1       3.789   4.201  19.017  0.00  0.00    +0.000 C 
ENDROOT
BRANCH  12  13
ATOM     13  N   UNL     1       3.127   5.547  19.031  0.00  0.00    +0.000 N 
ATOM     14  C   UNL     1       2.279   6.008  20.016  0.00  0.00    +0.000 C 
ATOM     15  O   UNL     1       1.885   5.266  20.913  0.00  0.00    +0.000 OA
ATOM     16  N   UNL     1       1.931   7.355  19.993  0.00  0.00    +0.000 N 
ATOM     17  H   UNL     1       3.222   6.071  18.179  0.00  0.00    +0.000 HD
BRANCH  16  18
ATOM     18  N   UNL     1       1.136   7.757  21.096  0.00  0.00    +0.000 NA
ATOM     19  O   UNL     1       1.498   8.808  21.635  0.00  0.00    +0.000 OA
ENDBRANCH  16  18
BRANCH  16  20
ATOM     20  C   UNL     1       2.363   8.378  19.035  0.00  0.00    +0.000 C 
BRANCH  20  21
ATOM     21  C   UNL     1       1.387   8.595  17.881  0.00  0.00    +0.000 C 
ATOM     22 CL   UNL     1       0.246   9.913  18.210  0.00  0.00    +0.000 Cl
ENDBRANCH  20  21
ENDBRANCH  16  20
ENDBRANCH  12  13
BRANCH   1  24
ATOM     23  C   UNL     1       4.273   2.214  20.775  0.00  0.00    +0.000 C 
ATOM     24  O   UNL     1       5.422   2.805  20.172  0.00  0.00    +0.000 OA
ENDBRANCH   1  24
BRANCH  11  25
ATOM     25  O   UNL     1       2.678   3.642  16.893  0.00  0.00    +0.000 OA
BRANCH  25  26
ATOM     26  C   UNL     1       1.563   3.289  17.586  0.00  0.00    +0.000 C 
ATOM     27  C   UNL     1       1.711   1.930  18.207  0.00  0.00    +0.000 C 
ATOM     28  O   UNL     1       0.553   3.971  17.711  0.00  0.00    +0.000 OA
ENDBRANCH  25  26
ENDBRANCH  11  25
TORSDOF 7
ENDMDL
MODEL 7
REMARK VINA RESULT:      -5.9      8.287     10.723
REMARK  Name = 
REMARK  11 active torsions:
REMARK  status: ('A' for Active; 'I' for Inactive)
REMARK    1  A    between atoms: C_1  and  O_2
REMARK    2  A    between atoms: O_2  and  C_3
REMARK    3  A    between atoms: C_8  and  C_9
REMARK    4  A    between atoms: C_8  and  C_10
REMARK    5  A    between atoms: C_13  and  O_14
REMARK    6  A    between atoms: O_14  and  C_15
REMARK    7  A    between atoms: C_15  and  C_16
REMARK    8  A    between atoms: C_18  and  N_19
REMARK    9  A    between atoms: N_22  and  C_23
REMARK   10  A    between atoms: N_22  and  N_26
REMARK   11  A    between atoms: C_23  and  C_24
REMARK                            x       y       z     vdW  Elec       q    Type
REMARK                         _______ _______ _______ _____ _____    ______ ____
ROOT
ATOM      1  C   UNL     1      -1.133  11.844  18.591  0.00  0.00    +0.000 C 
ATOM      2  O   UNL     1      -2.202  12.667  19.048  0.00  0.00    +0.000 OA
ATOM      3  C   UNL     1      -2.681  12.410  20.360  0.00  0.00    +0.000 C 
ATOM      4  C   UNL     1      -3.547  13.578  20.819  0.00  0.00    +0.000 C 
ATOM      5  O   UNL     1      -4.105  13.312  22.102  0.00  0.00    +0.000 OA
ATOM      6  C   UNL     1      -3.138  12.975  23.102  0.00  0.00    +0.000 C 
ATOM      7  C   UNL     1      -3.947  12.410  24.270  0.00  0.00    +0.000 C 
ATOM      8  C   UNL     1      -2.379  14.215  23.602  0.00  0.00    +0.000 C 
ATOM      9  O   UNL     1      -2.246  11.926  22.684  0.00  0.00    +0.000 OA
ATOM     10  C   UNL     1      -1.608  12.243  21.440  0.00  0.00    +0.000 C 
ATOM     11  C   UNL     1      -0.620  11.179  20.982  0.00  0.00    +0.000 C 
ATOM     12  C   UNL     1       0.002  11.626  19.636  0.00  0.00    +0.000 C 
ENDROOT
BRANCH  12  13
ATOM     13  N   UNL     1       0.968  12.768  19.752  0.00  0.00    +0.000 N 
ATOM     14  C   UNL     1       2.076  12.959  18.955  0.00  0.00    +0.000 C 
ATOM     15  O   UNL     1       2.438  12.100  18.155  0.00  0.00    +0.000 OA
ATOM     16  N   UNL     1       2.737  14.181  19.045  0.00  0.00    +0.000 N 
ATOM     17  H   UNL     1       0.843  13.342  20.568  0.00  0.00    +0.000 HD
BRANCH  16  18
ATOM     18  N   UNL     1       3.803  14.321  18.122  0.00  0.00    +0.000 NA
ATOM     19  O   UNL     1       3.699  15.286  17.357  0.00  0.00    +0.000 OA
ENDBRANCH  16  18
BRANCH  16  20
ATOM     20  C   UNL     1       2.397  15.324  19.898  0.00  0.00    +0.000 C 
BRANCH  20  21
ATOM     21  C   UNL     1       3.495  15.705  20.888  0.00  0.00    +0.000 C 
ATOM     22 CL   UNL     1       4.093  14.303  21.795  0.00  0.00    +0.000 Cl
ENDBRANCH  20  21
ENDBRANCH  16  20
ENDBRANCH  12  13
BRANCH   1  24
ATOM     23  C   UNL     1      -2.281  10.677  16.892  0.00  0.00    +0.000 C 
ATOM     24  O   UNL     1      -1.623  10.574  18.153  0.00  0.00    +0.000 OA
ENDBRANCH   1  24
BRANCH  11  25
ATOM     25  O   UNL     1       0.421  10.992  21.977  0.00  0.00    +0.000 OA
BRANCH  25  26
ATOM     26  C   UNL     1       0.455   9.792  22.615  0.00  0.00    +0.000 C 
ATOM     27  C   UNL     1       0.695   8.666  21.652  0.00  0.00    +0.000 C 
ATOM     28  O   UNL     1       0.314   9.619  23.820  0.00  0.00    +0.000 OA
ENDBRANCH  25  26
ENDBRANCH  11  25
TORSDOF 7
ENDMDL
MODEL 8
REMARK VINA RESULT:      -5.9      8.587     10.807
REMARK  Name = 
REMARK  11 active torsions:
REMARK  status: ('A' for Active; 'I' for Inactive)
REMARK    1  A    between atoms: C_1  and  O_2
REMARK    2  A    between atoms: O_2  and  C_3
REMARK    3  A    between atoms: C_8  and  C_9
REMARK    4  A    between atoms: C_8  and  C_10
REMARK    5  A    between atoms: C_13  and  O_14
REMARK    6  A    between atoms: O_14  and  C_15
REMARK    7  A    between atoms: C_15  and  C_16
REMARK    8  A    between atoms: C_18  and  N_19
REMARK    9  A    between atoms: N_22  and  C_23
REMARK   10  A    between atoms: N_22  and  N_26
REMARK   11  A    between atoms: C_23  and  C_24
REMARK                            x       y       z     vdW  Elec       q    Type
REMARK                         _______ _______ _______ _____ _____    ______ ____
ROOT
ATOM      1  C   UNL     1      -1.163  11.799  18.674  0.00  0.00    +0.000 C 
ATOM      2  O   UNL     1      -2.210  12.660  19.113  0.00  0.00    +0.000 OA
ATOM      3  C   UNL     1      -2.723  12.418  20.416  0.00  0.00    +0.000 C 
ATOM      4  C   UNL     1      -3.554  13.616  20.862  0.00  0.00    +0.000 C 
ATOM      5  O   UNL     1      -4.145  13.369  22.133  0.00  0.00    +0.000 OA
ATOM      6  C   UNL     1      -3.211  12.993  23.150  0.00  0.00    +0.000 C 
ATOM      7  C   UNL     1      -4.062  12.455  24.301  0.00  0.00    +0.000 C 
ATOM      8  C   UNL     1      -2.416  14.203  23.668  0.00  0.00    +0.000 C 
ATOM      9  O   UNL     1      -2.351  11.913  22.746  0.00  0.00    +0.000 OA
ATOM     10  C   UNL     1      -1.678  12.209  21.515  0.00  0.00    +0.000 C 
ATOM     11  C   UNL     1      -0.721  11.110  21.073  0.00  0.00    +0.000 C 
ATOM     12  C   UNL     1      -0.057  11.537  19.740  0.00  0.00    +0.000 C 
ENDROOT
BRANCH  12  13
ATOM     13  N   UNL     1       0.947  12.643  19.878  0.00  0.00    +0.000 N 
ATOM     14  C   UNL     1       2.054  12.819  19.074  0.00  0.00    +0.000 C 
ATOM     15  O   UNL     1       2.378  11.972  18.246  0.00  0.00    +0.000 OA
ATOM     16  N   UNL     1       2.756  14.015  19.192  0.00  0.00    +0.000 N 
ATOM     17  H   UNL     1       0.851  13.196  20.711  0.00  0.00    +0.000 HD
BRANCH  16  18
ATOM     18  N   UNL     1       3.817  14.145  18.261  0.00  0.00    +0.000 NA
ATOM     19  O   UNL     1       3.745  15.143  17.536  0.00  0.00    +0.000 OA
ENDBRANCH  16  18
BRANCH  16  20
ATOM     20  C   UNL     1       2.464  15.144  20.080  0.00  0.00    +0.000 C 
BRANCH  20  21
ATOM     21  C   UNL     1       1.290  16.005  19.621  0.00  0.00    +0.000 C 
ATOM     22 CL   UNL     1      -0.103  15.874  20.712  0.00  0.00    +0.000 Cl
ENDBRANCH  20  21
ENDBRANCH  16  20
ENDBRANCH  12  13
BRANCH   1  24
ATOM     23  C   UNL     1      -2.319  10.680  16.949  0.00  0.00    +0.000 C 
ATOM     24  O   UNL     1      -1.692  10.549  18.223  0.00  0.00    +0.000 OA
ENDBRANCH   1  24
BRANCH  11  25
ATOM     25  O   UNL     1       0.293  10.883  22.087  0.00  0.00    +0.000 OA
BRANCH  25  26
ATOM     26  C   UNL     1       0.211   9.721  22.789  0.00  0.00    +0.000 C 
ATOM     27  C   UNL     1      -0.364   8.615  21.954  0.00  0.00    +0.000 C 
ATOM     28  O   UNL     1       0.558   9.565  23.954  0.00  0.00    +0.000 OA
ENDBRANCH  25  26
ENDBRANCH  11  25
TORSDOF 7
ENDMDL
MODEL 9
REMARK VINA RESULT:      -5.8      3.469      5.725
REMARK  Name = 
REMARK  11 active torsions:
REMARK  status: ('A' for Active; 'I' for Inactive)
REMARK    1  A    between atoms: C_1  and  O_2
REMARK    2  A    between atoms: O_2  and  C_3
REMARK    3  A    between atoms: C_8  and  C_9
REMARK    4  A    between atoms: C_8  and  C_10
REMARK    5  A    between atoms: C_13  and  O_14
REMARK    6  A    between atoms: O_14  and  C_15
REMARK    7  A    between atoms: C_15  and  C_16
REMARK    8  A    between atoms: C_18  and  N_19
REMARK    9  A    between atoms: N_22  and  C_23
REMARK   10  A    between atoms: N_22  and  N_26
REMARK   11  A    between atoms: C_23  and  C_24
REMARK                            x       y       z     vdW  Elec       q    Type
REMARK                         _______ _______ _______ _____ _____    ______ ____
ROOT
ATOM      1  C   UNL     1       4.191   5.118  16.445  0.00  0.00    +0.000 C 
ATOM      2  O   UNL     1       3.468   3.941  16.793  0.00  0.00    +0.000 OA
ATOM      3  C   UNL     1       4.081   3.081  17.744  0.00  0.00    +0.000 C 
ATOM      4  C   UNL     1       3.049   2.088  18.266  0.00  0.00    +0.000 C 
ATOM      5  O   UNL     1       3.655   1.163  19.164  0.00  0.00    +0.000 OA
ATOM      6  C   UNL     1       4.361   1.776  20.247  0.00  0.00    +0.000 C 
ATOM      7  C   UNL     1       5.195   0.655  20.869  0.00  0.00    +0.000 C 
ATOM      8  C   UNL     1       3.401   2.311  21.322  0.00  0.00    +0.000 C 
ATOM      9  O   UNL     1       5.296   2.778  19.807  0.00  0.00    +0.000 OA
ATOM     10  C   UNL     1       4.660   3.765  18.986  0.00  0.00    +0.000 C 
ATOM     11  C   UNL     1       5.604   4.872  18.535  0.00  0.00    +0.000 C 
ATOM     12  C   UNL     1       4.811   5.873  17.658  0.00  0.00    +0.000 C 
ENDROOT
BRANCH  12  13
ATOM     13  N   UNL     1       3.842   6.727  18.421  0.00  0.00    +0.000 N 
ATOM     14  C   UNL     1       3.072   7.736  17.881  0.00  0.00    +0.000 C 
ATOM     15  O   UNL     1       3.236   8.108  16.722  0.00  0.00    +0.000 OA
ATOM     16  N   UNL     1       2.065   8.277  18.674  0.00  0.00    +0.000 N 
ATOM     17  H   UNL     1       3.883   6.620  19.420  0.00  0.00    +0.000 HD
BRANCH  16  18
ATOM     18  N   UNL     1       1.267   9.237  18.003  0.00  0.00    +0.000 NA
ATOM     19  O   UNL     1       1.729  10.384  18.007  0.00  0.00    +0.000 OA
ENDBRANCH  16  18
BRANCH  16  20
ATOM     20  C   UNL     1       1.702   7.903  20.045  0.00  0.00    +0.000 C 
BRANCH  20  21
ATOM     21  C   UNL     1       1.008   9.015  20.827  0.00  0.00    +0.000 C 
ATOM     22 CL   UNL     1      -0.473   8.450  21.622  0.00  0.00    +0.000 Cl
ENDBRANCH  20  21
ENDBRANCH  16  20
ENDBRANCH  12  13
BRANCH   1  24
ATOM     23  C   UNL     1       6.138   5.901  15.368  0.00  0.00    +0.000 C 
ATOM     24  O   UNL     1       5.219   4.819  15.497  0.00  0.00    +0.000 OA
ENDBRANCH   1  24
BRANCH  11  25
ATOM     25  O   UNL     1       6.172   5.553  19.684  0.00  0.00    +0.000 OA
BRANCH  25  26
ATOM     26  C   UNL     1       7.524   5.690  19.712  0.00  0.00    +0.000 C 
ATOM     27  C   UNL     1       8.005   6.601  18.620  0.00  0.00    +0.000 C 
ATOM     28  O   UNL     1       8.281   5.156  20.514  0.00  0.00    +0.000 OA
ENDBRANCH  25  26
ENDBRANCH  11  25
TORSDOF 7
ENDMDL
