MODEL 1
REMARK VINA RESULT:      -6.9      0.000      0.000
REMARK  Name = 
REMARK  12 active torsions:
REMARK  status: ('A' for Active; 'I' for Inactive)
REMARK    1  A    between atoms: C_1  and  O_2
REMARK    2  A    between atoms: O_2  and  C_3
REMARK    3  A    between atoms: C_3  and  C_5
REMARK    4  A    between atoms: C_7  and  O_8
REMARK    5  A    between atoms: O_8  and  C_9
REMARK    6  A    between atoms: C_10  and  O_11
REMARK    7  A    between atoms: O_11  and  C_12
REMARK    8  A    between atoms: C_14  and  N_15
REMARK    9  A    between atoms: C_16  and  C_18
REMARK   10  A    between atoms: C_18  and  C_19
REMARK   11  A    between atoms: C_19  and  S_20
REMARK   12  A    between atoms: S_20  and  C_21
REMARK                            x       y       z     vdW  Elec       q    Type
REMARK                         _______ _______ _______ _____ _____    ______ ____
ROOT
ATOM      1  C   UNL     1       3.558   4.377  17.304  0.00  0.00    +0.000 A 
ATOM      2  C   UNL     1       4.547   3.862  16.440  0.00  0.00    +0.000 A 
ATOM      3  C   UNL     1       5.750   4.533  16.202  0.00  0.00    +0.000 A 
ATOM      4  C   UNL     1       5.981   5.762  16.827  0.00  0.00    +0.000 A 
ATOM      5  C   UNL     1       5.002   6.267  17.699  0.00  0.00    +0.000 A 
ATOM      6  C   UNL     1       3.773   5.617  17.934  0.00  0.00    +0.000 A 
ENDROOT
BRANCH   6   7
ATOM      7  N   UNL     1       2.796   6.215  18.790  0.00  0.00    +0.000 N 
ATOM      8  C   UNL     1       2.461   5.788  20.070  0.00  0.00    +0.000 C 
ATOM      9  O   UNL     1       2.966   4.827  20.652  0.00  0.00    +0.000 OA
ATOM     10  H   UNL     1       2.453   7.127  18.493  0.00  0.00    +0.000 HD
BRANCH   8  11
ATOM     11  C   UNL     1       1.365   6.595  20.747  0.00  0.00    +0.000 C 
BRANCH  11  12
ATOM     12  C   UNL     1       1.588   8.084  20.459  0.00  0.00    +0.000 C 
BRANCH  12  13
ATOM     13  S   UNL     1       0.716   9.149  21.660  0.00  0.00    +0.000 S 
BRANCH  13  14
ATOM     14  C   UNL     1       0.225  10.508  20.598  0.00  0.00    +0.000 A 
ATOM     15  C   UNL     1      -0.714  10.278  19.597  0.00  0.00    +0.000 A 
ATOM     16  C   UNL     1      -1.046  11.318  18.729  0.00  0.00    +0.000 A 
ATOM     17  C   UNL     1      -0.439  12.557  18.889  0.00  0.00    +0.000 A 
ATOM     18  C   UNL     1       0.470  12.704  19.923  0.00  0.00    +0.000 A 
ATOM     19  N   UNL     1       0.813  11.711  20.774  0.00  0.00    +0.000 NA
ENDBRANCH  13  14
ENDBRANCH  12  13
ENDBRANCH  11  12
ENDBRANCH   8  11
ENDBRANCH   6   7
BRANCH   1  20
ATOM     20  C   UNL     1       2.338   3.516  17.417  0.00  0.00    +0.000 C 
ATOM     21  O   UNL     1       1.202   3.967  17.328  0.00  0.00    +0.000 OA
BRANCH  20  23
ATOM     22  C   UNL     1       2.409   1.818  18.997  0.00  0.00    +0.000 C 
ATOM     23  O   UNL     1       2.630   2.209  17.634  0.00  0.00    +0.000 OA
ENDBRANCH  20  23
ENDBRANCH   1  20
BRANCH   3  24
ATOM     24  O   UNL     1       6.562   3.889  15.306  0.00  0.00    +0.000 OA
ATOM     25  C   UNL     1       6.260   4.060  13.926  0.00  0.00    +0.000 C 
ENDBRANCH   3  24
BRANCH   4  26
ATOM     26  O   UNL     1       7.143   6.421  16.532  0.00  0.00    +0.000 OA
ATOM     27  C   UNL     1       7.565   7.470  17.394  0.00  0.00    +0.000 C 
ENDBRANCH   4  26
TORSDOF 9
ENDMDL
MODEL 2
REMARK VINA RESULT:      -6.9      2.368      2.904
REMARK  Name = 
REMARK  12 active torsions:
REMARK  status: ('A' for Active; 'I' for Inactive)
REMARK    1  A    between atoms: C_1  and  O_2
REMARK    2  A    between atoms: O_2  and  C_3
REMARK    3  A    between atoms: C_3  and  C_5
REMARK    4  A    between atoms: C_7  and  O_8
REMARK    5  A    between atoms: O_8  and  C_9
REMARK    6  A    between atoms: C_10  and  O_11
REMARK    7  A    between atoms: O_11  and  C_12
REMARK    8  A    between atoms: C_14  and  N_15
REMARK    9  A    between atoms: C_16  and  C_18
REMARK   10  A    between atoms: C_18  and  C_19
REMARK   11  A    between atoms: C_19  and  S_20
REMARK   12  A    between atoms: S_20  and  C_21
REMARK                            x       y       z     vdW  Elec       q    Type
REMARK                         _______ _______ _______ _____ _____    ______ ____
ROOT
ATOM      1  C   UNL     1       3.079   5.155  17.829  0.00  0.00    +0.000 A 
ATOM      2  C   UNL     1       4.025   4.356  17.154  0.00  0.00    +0.000 A 
ATOM      3  C   UNL     1       5.275   4.848  16.768  0.00  0.00    +0.000 A 
ATOM      4  C   UNL     1       5.598   6.180  17.043  0.00  0.00    +0.000 A 
ATOM      5  C   UNL     1       4.662   6.971  17.728  0.00  0.00    +0.000 A 
ATOM      6  C   UNL     1       3.388   6.500  18.107  0.00  0.00    +0.000 A 
ENDROOT
BRANCH   6   7
ATOM      7  N   UNL     1       2.459   7.376  18.751  0.00  0.00    +0.000 N 
ATOM      8  C   UNL     1       2.015   8.599  18.260  0.00  0.00    +0.000 C 
ATOM      9  O   UNL     1       2.362   9.102  17.191  0.00  0.00    +0.000 OA
ATOM     10  H   UNL     1       1.961   6.980  19.546  0.00  0.00    +0.000 HD
BRANCH   8  11
ATOM     11  C   UNL     1       1.044   9.338  19.167  0.00  0.00    +0.000 C 
BRANCH  11  12
ATOM     12  C   UNL     1       0.047  10.119  18.304  0.00  0.00    +0.000 C 
BRANCH  12  13
ATOM     13  S   UNL     1      -0.924  11.309  19.292  0.00  0.00    +0.000 S 
BRANCH  13  14
ATOM     14  C   UNL     1      -2.414  11.421  18.299  0.00  0.00    +0.000 A 
ATOM     15  C   UNL     1      -3.608  11.787  18.913  0.00  0.00    +0.000 A 
ATOM     16  C   UNL     1      -4.779  11.809  18.155  0.00  0.00    +0.000 A 
ATOM     17  C   UNL     1      -4.723  11.475  16.808  0.00  0.00    +0.000 A 
ATOM     18  C   UNL     1      -3.490  11.142  16.274  0.00  0.00    +0.000 A 
ATOM     19  N   UNL     1      -2.342  11.107  16.987  0.00  0.00    +0.000 NA
ENDBRANCH  13  14
ENDBRANCH  12  13
ENDBRANCH  11  12
ENDBRANCH   8  11
ENDBRANCH   6   7
BRANCH   1  20
ATOM     20  C   UNL     1       1.798   4.447  18.147  0.00  0.00    +0.000 C 
ATOM     21  O   UNL     1       1.159   3.830  17.303  0.00  0.00    +0.000 OA
BRANCH  20  23
ATOM     22  C   UNL     1       1.482   3.323  20.151  0.00  0.00    +0.000 C 
ATOM     23  O   UNL     1       1.432   4.572  19.446  0.00  0.00    +0.000 OA
ENDBRANCH  20  23
ENDBRANCH   1  20
BRANCH   3  24
ATOM     24  O   UNL     1       6.035   3.930  16.093  0.00  0.00    +0.000 OA
ATOM     25  C   UNL     1       6.070   4.041  14.675  0.00  0.00    +0.000 C 
ENDBRANCH   3  24
BRANCH   4  26
ATOM     26  O   UNL     1       6.806   6.649  16.604  0.00  0.00    +0.000 OA
ATOM     27  C   UNL     1       7.603   7.414  17.499  0.00  0.00    +0.000 C 
ENDBRANCH   4  26
TORSDOF 9
ENDMDL
MODEL 3
REMARK VINA RESULT:      -6.8      1.572      2.008
REMARK  Name = 
REMARK  12 active torsions:
REMARK  status: ('A' for Active; 'I' for Inactive)
REMARK    1  A    between atoms: C_1  and  O_2
REMARK    2  A    between atoms: O_2  and  C_3
REMARK    3  A    between atoms: C_3  and  C_5
REMARK    4  A    between atoms: C_7  and  O_8
REMARK    5  A    between atoms: O_8  and  C_9
REMARK    6  A    between atoms: C_10  and  O_11
REMARK    7  A    between atoms: O_11  and  C_12
REMARK    8  A    between atoms: C_14  and  N_15
REMARK    9  A    between atoms: C_16  and  C_18
REMARK   10  A    between atoms: C_18  and  C_19
REMARK   11  A    between atoms: C_19  and  S_20
REMARK   12  A    between atoms: S_20  and  C_21
REMARK                            x       y       z     vdW  Elec       q    Type
REMARK                         _______ _______ _______ _____ _____    ______ ____
ROOT
ATOM      1  C   UNL     1       4.517   4.287  17.482  0.00  0.00    +0.000 A 
ATOM      2  C   UNL     1       5.493   4.048  16.491  0.00  0.00    +0.000 A 
ATOM      3  C   UNL     1       6.536   4.944  16.242  0.00  0.00    +0.000 A 
ATOM      4  C   UNL     1       6.613   6.125  16.984  0.00  0.00    +0.000 A 
ATOM      5  C   UNL     1       5.651   6.356  17.981  0.00  0.00    +0.000 A 
ATOM      6  C   UNL     1       4.578   5.476  18.233  0.00  0.00    +0.000 A 
ENDROOT
BRANCH   6   7
ATOM      7  N   UNL     1       3.599   5.800  19.224  0.00  0.00    +0.000 N 
ATOM      8  C   UNL     1       2.507   6.643  19.047  0.00  0.00    +0.000 C 
ATOM      9  O   UNL     1       2.227   7.231  18.003  0.00  0.00    +0.000 OA
ATOM     10  H   UNL     1       3.619   5.226  20.064  0.00  0.00    +0.000 HD
BRANCH   8  11
ATOM     11  C   UNL     1       1.639   6.831  20.281  0.00  0.00    +0.000 C 
BRANCH  11  12
ATOM     12  C   UNL     1       1.766   8.280  20.767  0.00  0.00    +0.000 C 
BRANCH  12  13
ATOM     13  S   UNL     1       0.783   9.430  19.744  0.00  0.00    +0.000 S 
BRANCH  13  14
ATOM     14  C   UNL     1      -0.143  10.291  21.017  0.00  0.00    +0.000 A 
ATOM     15  C   UNL     1      -0.180   9.757  22.302  0.00  0.00    +0.000 A 
ATOM     16  C   UNL     1      -0.954  10.390  23.275  0.00  0.00    +0.000 A 
ATOM     17  C   UNL     1      -1.659  11.539  22.941  0.00  0.00    +0.000 A 
ATOM     18  C   UNL     1      -1.551  12.012  21.645  0.00  0.00    +0.000 A 
ATOM     19  N   UNL     1      -0.812  11.415  20.682  0.00  0.00    +0.000 NA
ENDBRANCH  13  14
ENDBRANCH  12  13
ENDBRANCH  11  12
ENDBRANCH   8  11
ENDBRANCH   6   7
BRANCH   1  20
ATOM     20  C   UNL     1       3.479   3.214  17.588  0.00  0.00    +0.000 C 
ATOM     21  O   UNL     1       3.746   2.070  17.937  0.00  0.00    +0.000 OA
BRANCH  20  23
ATOM     22  C   UNL     1       1.261   3.334  18.258  0.00  0.00    +0.000 C 
ATOM     23  O   UNL     1       2.237   3.643  17.252  0.00  0.00    +0.000 OA
ENDBRANCH  20  23
ENDBRANCH   1  20
BRANCH   3  24
ATOM     24  O   UNL     1       7.357   4.550  15.217  0.00  0.00    +0.000 OA
ATOM     25  C   UNL     1       6.778   4.480  13.920  0.00  0.00    +0.000 C 
ENDBRANCH   3  24
BRANCH   4  26
ATOM     26  O   UNL     1       7.613   7.008  16.680  0.00  0.00    +0.000 OA
ATOM     27  C   UNL     1       7.892   8.058  17.597  0.00  0.00    +0.000 C 
ENDBRANCH   4  26
TORSDOF 9
ENDMDL
MODEL 4
REMARK VINA RESULT:      -6.8      3.887      7.000
REMARK  Name = 
REMARK  12 active torsions:
REMARK  status: ('A' for Active; 'I' for Inactive)
REMARK    1  A    between atoms: C_1  and  O_2
REMARK    2  A    between atoms: O_2  and  C_3
REMARK    3  A    between atoms: C_3  and  C_5
REMARK    4  A    between atoms: C_7  and  O_8
REMARK    5  A    between atoms: O_8  and  C_9
REMARK    6  A    between atoms: C_10  and  O_11
REMARK    7  A    between atoms: O_11  and  C_12
REMARK    8  A    between atoms: C_14  and  N_15
REMARK    9  A    between atoms: C_16  and  C_18
REMARK   10  A    between atoms: C_18  and  C_19
REMARK   11  A    between atoms: C_19  and  S_20
REMARK   12  A    between atoms: S_20  and  C_21
REMARK                            x       y       z     vdW  Elec       q    Type
REMARK                         _______ _______ _______ _____ _____    ______ ____
ROOT
ATOM      1  C   UNL     1       5.560   5.153  16.348  0.00  0.00    +0.000 A 
ATOM      2  C   UNL     1       4.702   4.036  16.438  0.00  0.00    +0.000 A 
ATOM      3  C   UNL     1       3.558   4.040  17.241  0.00  0.00    +0.000 A 
ATOM      4  C   UNL     1       3.256   5.178  17.994  0.00  0.00    +0.000 A 
ATOM      5  C   UNL     1       4.101   6.295  17.892  0.00  0.00    +0.000 A 
ATOM      6  C   UNL     1       5.271   6.304  17.106  0.00  0.00    +0.000 A 
ENDROOT
BRANCH   6   7
ATOM      7  N   UNL     1       6.120   7.455  17.092  0.00  0.00    +0.000 N 
ATOM      8  C   UNL     1       7.304   7.605  17.806  0.00  0.00    +0.000 C 
ATOM      9  O   UNL     1       7.792   6.758  18.555  0.00  0.00    +0.000 OA
ATOM     10  H   UNL     1       5.920   8.139  16.365  0.00  0.00    +0.000 HD
BRANCH   8  11
ATOM     11  C   UNL     1       7.994   8.948  17.625  0.00  0.00    +0.000 C 
BRANCH  11  12
ATOM     12  C   UNL     1       9.115   9.078  18.662  0.00  0.00    +0.000 C 
BRANCH  12  13
ATOM     13  S   UNL     1       8.903  10.558  19.712  0.00  0.00    +0.000 S 
BRANCH  13  14
ATOM     14  C   UNL     1       9.685  11.803  18.684  0.00  0.00    +0.000 A 
ATOM     15  C   UNL     1      10.891  11.502  18.058  0.00  0.00    +0.000 A 
ATOM     16  C   UNL     1      11.532  12.492  17.312  0.00  0.00    +0.000 A 
ATOM     17  C   UNL     1      10.949  13.748  17.208  0.00  0.00    +0.000 A 
ATOM     18  C   UNL     1       9.739  13.956  17.847  0.00  0.00    +0.000 A 
ATOM     19  N   UNL     1       9.100  13.016  18.579  0.00  0.00    +0.000 NA
ENDBRANCH  13  14
ENDBRANCH  12  13
ENDBRANCH  11  12
ENDBRANCH   8  11
ENDBRANCH   6   7
BRANCH   1  20
ATOM     20  C   UNL     1       6.735   4.948  15.444  0.00  0.00    +0.000 C 
ATOM     21  O   UNL     1       7.836   4.605  15.861  0.00  0.00    +0.000 OA
BRANCH  20  23
ATOM     22  C   UNL     1       6.523   4.000  13.337  0.00  0.00    +0.000 C 
ATOM     23  O   UNL     1       6.450   5.188  14.140  0.00  0.00    +0.000 OA
ENDBRANCH  20  23
ENDBRANCH   1  20
BRANCH   3  24
ATOM     24  O   UNL     1       2.878   2.850  17.222  0.00  0.00    +0.000 OA
ATOM     25  C   UNL     1       3.322   1.841  18.122  0.00  0.00    +0.000 C 
ENDBRANCH   3  24
BRANCH   4  26
ATOM     26  O   UNL     1       2.160   5.132  18.812  0.00  0.00    +0.000 OA
ATOM     27  C   UNL     1       2.279   5.639  20.135  0.00  0.00    +0.000 C 
ENDBRANCH   4  26
TORSDOF 9
ENDMDL
MODEL 5
REMARK VINA RESULT:      -6.7      1.050      1.050
REMARK  Name = 
REMARK  12 active torsions:
REMARK  status: ('A' for Active; 'I' for Inactive)
REMARK    1  A    between atoms: C_1  and  O_2
REMARK    2  A    between atoms: O_2  and  C_3
REMARK    3  A    between atoms: C_3  and  C_5
REMARK    4  A    between atoms: C_7  and  O_8
REMARK    5  A    between atoms: O_8  and  C_9
REMARK    6  A    between atoms: C_10  and  O_11
REMARK    7  A    between atoms: O_11  and  C_12
REMARK    8  A    between atoms: C_14  and  N_15
REMARK    9  A    between atoms: C_16  and  C_18
REMARK   10  A    between atoms: C_18  and  C_19
REMARK   11  A    between atoms: C_19  and  S_20
REMARK   12  A    between atoms: S_20  and  C_21
REMARK                            x       y       z     vdW  Elec       q    Type
REMARK                         _______ _______ _______ _____ _____    ______ ____
ROOT
ATOM      1  C   UNL     1       4.106   4.448  17.482  0.00  0.00    +0.000 A 
ATOM      2  C   UNL     1       4.990   4.231  16.405  0.00  0.00    +0.000 A 
ATOM      3  C   UNL     1       6.050   5.097  16.126  0.00  0.00    +0.000 A 
ATOM      4  C   UNL     1       6.239   6.226  16.928  0.00  0.00    +0.000 A 
ATOM      5  C   UNL     1       5.368   6.433  18.011  0.00  0.00    +0.000 A 
ATOM      6  C   UNL     1       4.279   5.585  18.295  0.00  0.00    +0.000 A 
ENDROOT
BRANCH   6   7
ATOM      7  N   UNL     1       3.396   5.886  19.379  0.00  0.00    +0.000 N 
ATOM      8  C   UNL     1       2.422   6.879  19.386  0.00  0.00    +0.000 C 
ATOM      9  O   UNL     1       2.181   7.643  18.451  0.00  0.00    +0.000 OA
ATOM     10  H   UNL     1       3.372   5.199  20.130  0.00  0.00    +0.000 HD
BRANCH   8  11
ATOM     11  C   UNL     1       1.640   6.998  20.684  0.00  0.00    +0.000 C 
BRANCH  11  12
ATOM     12  C   UNL     1       1.533   8.478  21.070  0.00  0.00    +0.000 C 
BRANCH  12  13
ATOM     13  S   UNL     1      -0.174   8.941  21.528  0.00  0.00    +0.000 S 
BRANCH  13  14
ATOM     14  C   UNL     1      -0.421  10.369  20.472  0.00  0.00    +0.000 A 
ATOM     15  C   UNL     1      -0.905  10.178  19.181  0.00  0.00    +0.000 A 
ATOM     16  C   UNL     1      -1.034  11.281  18.337  0.00  0.00    +0.000 A 
ATOM     17  C   UNL     1      -0.686  12.541  18.807  0.00  0.00    +0.000 A 
ATOM     18  C   UNL     1      -0.231  12.643  20.111  0.00  0.00    +0.000 A 
ATOM     19  N   UNL     1      -0.091  11.590  20.947  0.00  0.00    +0.000 NA
ENDBRANCH  13  14
ENDBRANCH  12  13
ENDBRANCH  11  12
ENDBRANCH   8  11
ENDBRANCH   6   7
BRANCH   1  20
ATOM     20  C   UNL     1       3.030   3.414  17.607  0.00  0.00    +0.000 C 
ATOM     21  O   UNL     1       2.213   3.203  16.719  0.00  0.00    +0.000 OA
BRANCH  20  23
ATOM     22  C   UNL     1       1.748   2.391  19.248  0.00  0.00    +0.000 C 
ATOM     23  O   UNL     1       3.059   2.760  18.795  0.00  0.00    +0.000 OA
ENDBRANCH  20  23
ENDBRANCH   1  20
BRANCH   3  24
ATOM     24  O   UNL     1       6.771   4.735  15.018  0.00  0.00    +0.000 OA
ATOM     25  C   UNL     1       6.114   3.905  14.066  0.00  0.00    +0.000 C 
ENDBRANCH   3  24
BRANCH   4  26
ATOM     26  O   UNL     1       7.252   7.084  16.598  0.00  0.00    +0.000 OA
ATOM     27  C   UNL     1       7.736   7.977  17.593  0.00  0.00    +0.000 C 
ENDBRANCH   4  26
TORSDOF 9
ENDMDL
MODEL 6
REMARK VINA RESULT:      -6.6      1.812      2.138
REMARK  Name = 
REMARK  12 active torsions:
REMARK  status: ('A' for Active; 'I' for Inactive)
REMARK    1  A    between atoms: C_1  and  O_2
REMARK    2  A    between atoms: O_2  and  C_3
REMARK    3  A    between atoms: C_3  and  C_5
REMARK    4  A    between atoms: C_7  and  O_8
REMARK    5  A    between atoms: O_8  and  C_9
REMARK    6  A    between atoms: C_10  and  O_11
REMARK    7  A    between atoms: O_11  and  C_12
REMARK    8  A    between atoms: C_14  and  N_15
REMARK    9  A    between atoms: C_16  and  C_18
REMARK   10  A    between atoms: C_18  and  C_19
REMARK   11  A    between atoms: C_19  and  S_20
REMARK   12  A    between atoms: S_20  and  C_21
REMARK                            x       y       z     vdW  Elec       q    Type
REMARK                         _______ _______ _______ _____ _____    ______ ____
ROOT
ATOM      1  C   UNL     1       3.258   5.065  17.768  0.00  0.00    +0.000 A 
ATOM      2  C   UNL     1       4.218   4.340  17.032  0.00  0.00    +0.000 A 
ATOM      3  C   UNL     1       5.428   4.908  16.625  0.00  0.00    +0.000 A 
ATOM      4  C   UNL     1       5.696   6.243  16.941  0.00  0.00    +0.000 A 
ATOM      5  C   UNL     1       4.747   6.960  17.687  0.00  0.00    +0.000 A 
ATOM      6  C   UNL     1       3.511   6.413  18.087  0.00  0.00    +0.000 A 
ENDROOT
BRANCH   6   7
ATOM      7  N   UNL     1       2.563   7.217  18.795  0.00  0.00    +0.000 N 
ATOM      8  C   UNL     1       2.041   8.431  18.364  0.00  0.00    +0.000 C 
ATOM      9  O   UNL     1       2.322   8.988  17.303  0.00  0.00    +0.000 OA
ATOM     10  H   UNL     1       2.116   6.768  19.592  0.00  0.00    +0.000 HD
BRANCH   8  11
ATOM     11  C   UNL     1       1.068   9.088  19.332  0.00  0.00    +0.000 C 
BRANCH  11  12
ATOM     12  C   UNL     1       0.916   8.197  20.570  0.00  0.00    +0.000 C 
BRANCH  12  13
ATOM     13  S   UNL     1       1.575   9.001  22.072  0.00  0.00    +0.000 S 
BRANCH  13  14
ATOM     14  C   UNL     1       0.415  10.356  22.256  0.00  0.00    +0.000 A 
ATOM     15  C   UNL     1      -0.723  10.169  23.035  0.00  0.00    +0.000 A 
ATOM     16  C   UNL     1      -1.659  11.200  23.124  0.00  0.00    +0.000 A 
ATOM     17  C   UNL     1      -1.429  12.387  22.442  0.00  0.00    +0.000 A 
ATOM     18  C   UNL     1      -0.261  12.496  21.705  0.00  0.00    +0.000 A 
ATOM     19  N   UNL     1       0.658  11.510  21.598  0.00  0.00    +0.000 NA
ENDBRANCH  13  14
ENDBRANCH  12  13
ENDBRANCH  11  12
ENDBRANCH   8  11
ENDBRANCH   6   7
BRANCH   1  20
ATOM     20  C   UNL     1       2.024   4.284  18.099  0.00  0.00    +0.000 C 
ATOM     21  O   UNL     1       1.061   4.221  17.344  0.00  0.00    +0.000 OA
BRANCH  20  23
ATOM     22  C   UNL     1       0.797   3.312  19.811  0.00  0.00    +0.000 C 
ATOM     23  O   UNL     1       2.092   3.673  19.308  0.00  0.00    +0.000 OA
ENDBRANCH  20  23
ENDBRANCH   1  20
BRANCH   3  24
ATOM     24  O   UNL     1       6.209   4.054  15.890  0.00  0.00    +0.000 OA
ATOM     25  C   UNL     1       6.024   4.066  14.479  0.00  0.00    +0.000 C 
ENDBRANCH   3  24
BRANCH   4  26
ATOM     26  O   UNL     1       6.865   6.787  16.482  0.00  0.00    +0.000 OA
ATOM     27  C   UNL     1       7.632   7.592  17.368  0.00  0.00    +0.000 C 
ENDBRANCH   4  26
TORSDOF 9
ENDMDL
MODEL 7
REMARK VINA RESULT:      -6.6      1.569      1.829
REMARK  Name = 
REMARK  12 active torsions:
REMARK  status: ('A' for Active; 'I' for Inactive)
REMARK    1  A    between atoms: C_1  and  O_2
REMARK    2  A    between atoms: O_2  and  C_3
REMARK    3  A    between atoms: C_3  and  C_5
REMARK    4  A    between atoms: C_7  and  O_8
REMARK    5  A    between atoms: O_8  and  C_9
REMARK    6  A    between atoms: C_10  and  O_11
REMARK    7  A    between atoms: O_11  and  C_12
REMARK    8  A    between atoms: C_14  and  N_15
REMARK    9  A    between atoms: C_16  and  C_18
REMARK   10  A    between atoms: C_18  and  C_19
REMARK   11  A    between atoms: C_19  and  S_20
REMARK   12  A    between atoms: S_20  and  C_21
REMARK                            x       y       z     vdW  Elec       q    Type
REMARK                         _______ _______ _______ _____ _____    ______ ____
ROOT
ATOM      1  C   UNL     1       3.915   3.971  17.801  0.00  0.00    +0.000 A 
ATOM      2  C   UNL     1       4.835   3.622  16.790  0.00  0.00    +0.000 A 
ATOM      3  C   UNL     1       5.834   4.498  16.358  0.00  0.00    +0.000 A 
ATOM      4  C   UNL     1       5.922   5.769  16.932  0.00  0.00    +0.000 A 
ATOM      5  C   UNL     1       5.016   6.111  17.950  0.00  0.00    +0.000 A 
ATOM      6  C   UNL     1       3.987   5.251  18.384  0.00  0.00    +0.000 A 
ENDROOT
BRANCH   6   7
ATOM      7  N   UNL     1       3.061   5.684  19.384  0.00  0.00    +0.000 N 
ATOM      8  C   UNL     1       2.386   6.899  19.399  0.00  0.00    +0.000 C 
ATOM      9  O   UNL     1       2.491   7.780  18.545  0.00  0.00    +0.000 OA
ATOM     10  H   UNL     1       2.751   4.965  20.035  0.00  0.00    +0.000 HD
BRANCH   8  11
ATOM     11  C   UNL     1       1.478   7.111  20.601  0.00  0.00    +0.000 C 
BRANCH  11  12
ATOM     12  C   UNL     1       0.980   8.561  20.602  0.00  0.00    +0.000 C 
BRANCH  12  13
ATOM     13  S   UNL     1       1.043   9.301  22.271  0.00  0.00    +0.000 S 
BRANCH  13  14
ATOM     14  C   UNL     1      -0.176  10.605  22.098  0.00  0.00    +0.000 A 
ATOM     15  C   UNL     1      -1.065  10.842  23.142  0.00  0.00    +0.000 A 
ATOM     16  C   UNL     1      -2.055  11.811  22.982  0.00  0.00    +0.000 A 
ATOM     17  C   UNL     1      -2.126  12.520  21.789  0.00  0.00    +0.000 A 
ATOM     18  C   UNL     1      -1.190  12.234  20.809  0.00  0.00    +0.000 A 
ATOM     19  N   UNL     1      -0.224  11.297  20.938  0.00  0.00    +0.000 NA
ENDBRANCH  13  14
ENDBRANCH  12  13
ENDBRANCH  11  12
ENDBRANCH   8  11
ENDBRANCH   6   7
BRANCH   1  20
ATOM     20  C   UNL     1       2.916   2.901  18.114  0.00  0.00    +0.000 C 
ATOM     21  O   UNL     1       3.245   1.754  18.393  0.00  0.00    +0.000 OA
BRANCH  20  23
ATOM     22  C   UNL     1       0.729   2.487  18.767  0.00  0.00    +0.000 C 
ATOM     23  O   UNL     1       1.633   3.336  18.046  0.00  0.00    +0.000 OA
ENDBRANCH  20  23
ENDBRANCH   1  20
BRANCH   3  24
ATOM     24  O   UNL     1       6.603   3.988  15.344  0.00  0.00    +0.000 OA
ATOM     25  C   UNL     1       6.056   4.044  14.032  0.00  0.00    +0.000 C 
ENDBRANCH   3  24
BRANCH   4  26
ATOM     26  O   UNL     1       6.876   6.624  16.451  0.00  0.00    +0.000 OA
ATOM     27  C   UNL     1       7.573   7.452  17.374  0.00  0.00    +0.000 C 
ENDBRANCH   4  26
TORSDOF 9
ENDMDL
MODEL 8
REMARK VINA RESULT:      -6.6      1.731      1.960
REMARK  Name = 
REMARK  12 active torsions:
REMARK  status: ('A' for Active; 'I' for Inactive)
REMARK    1  A    between atoms: C_1  and  O_2
REMARK    2  A    between atoms: O_2  and  C_3
REMARK    3  A    between atoms: C_3  and  C_5
REMARK    4  A    between atoms: C_7  and  O_8
REMARK    5  A    between atoms: O_8  and  C_9
REMARK    6  A    between atoms: C_10  and  O_11
REMARK    7  A    between atoms: O_11  and  C_12
REMARK    8  A    between atoms: C_14  and  N_15
REMARK    9  A    between atoms: C_16  and  C_18
REMARK   10  A    between atoms: C_18  and  C_19
REMARK   11  A    between atoms: C_19  and  S_20
REMARK   12  A    between atoms: S_20  and  C_21
REMARK                            x       y       z     vdW  Elec       q    Type
REMARK                         _______ _______ _______ _____ _____    ______ ____
ROOT
ATOM      1  C   UNL     1       3.098   4.508  18.133  0.00  0.00    +0.000 A 
ATOM      2  C   UNL     1       3.929   3.939  17.146  0.00  0.00    +0.000 A 
ATOM      3  C   UNL     1       5.288   4.250  17.046  0.00  0.00    +0.000 A 
ATOM      4  C   UNL     1       5.845   5.167  17.942  0.00  0.00    +0.000 A 
ATOM      5  C   UNL     1       5.021   5.722  18.935  0.00  0.00    +0.000 A 
ATOM      6  C   UNL     1       3.644   5.439  19.038  0.00  0.00    +0.000 A 
ENDROOT
BRANCH   6   7
ATOM      7  N   UNL     1       2.849   6.084  20.037  0.00  0.00    +0.000 N 
ATOM      8  C   UNL     1       2.151   7.276  19.879  0.00  0.00    +0.000 C 
ATOM      9  O   UNL     1       2.118   7.948  18.848  0.00  0.00    +0.000 OA
ATOM     10  H   UNL     1       2.647   5.526  20.864  0.00  0.00    +0.000 HD
BRANCH   8  11
ATOM     11  C   UNL     1       1.407   7.749  21.118  0.00  0.00    +0.000 C 
BRANCH  11  12
ATOM     12  C   UNL     1       1.327   9.280  21.100  0.00  0.00    +0.000 C 
BRANCH  12  13
ATOM     13  S   UNL     1      -0.296   9.870  20.505  0.00  0.00    +0.000 S 
BRANCH  13  14
ATOM     14  C   UNL     1      -0.430  11.419  21.399  0.00  0.00    +0.000 A 
ATOM     15  C   UNL     1      -1.230  11.475  22.537  0.00  0.00    +0.000 A 
ATOM     16  C   UNL     1      -1.386  12.696  23.194  0.00  0.00    +0.000 A 
ATOM     17  C   UNL     1      -0.736  13.820  22.703  0.00  0.00    +0.000 A 
ATOM     18  C   UNL     1       0.057  13.671  21.577  0.00  0.00    +0.000 A 
ATOM     19  N   UNL     1       0.220  12.501  20.919  0.00  0.00    +0.000 NA
ENDBRANCH  13  14
ENDBRANCH  12  13
ENDBRANCH  11  12
ENDBRANCH   8  11
ENDBRANCH   6   7
BRANCH   1  20
ATOM     20  C   UNL     1       1.673   4.055  18.066  0.00  0.00    +0.000 C 
ATOM     21  O   UNL     1       0.987   4.181  17.058  0.00  0.00    +0.000 OA
BRANCH  20  23
ATOM     22  C   UNL     1       1.576   2.119  19.340  0.00  0.00    +0.000 C 
ATOM     23  O   UNL     1       1.235   3.509  19.228  0.00  0.00    +0.000 OA
ENDBRANCH  20  23
ENDBRANCH   1  20
BRANCH   3  24
ATOM     24  O   UNL     1       5.914   3.623  16.001  0.00  0.00    +0.000 OA
ATOM     25  C   UNL     1       5.875   4.280  14.740  0.00  0.00    +0.000 C 
ENDBRANCH   3  24
BRANCH   4  26
ATOM     26  O   UNL     1       7.165   5.493  17.786  0.00  0.00    +0.000 OA
ATOM     27  C   UNL     1       7.526   6.868  17.767  0.00  0.00    +0.000 C 
ENDBRANCH   4  26
TORSDOF 9
ENDMDL
MODEL 9
REMARK VINA RESULT:      -6.6      1.403      1.624
REMARK  Name = 
REMARK  12 active torsions:
REMARK  status: ('A' for Active; 'I' for Inactive)
REMARK    1  A    between atoms: C_1  and  O_2
REMARK    2  A    between atoms: O_2  and  C_3
REMARK    3  A    between atoms: C_3  and  C_5
REMARK    4  A    between atoms: C_7  and  O_8
REMARK    5  A    between atoms: O_8  and  C_9
REMARK    6  A    between atoms: C_10  and  O_11
REMARK    7  A    between atoms: O_11  and  C_12
REMARK    8  A    between atoms: C_14  and  N_15
REMARK    9  A    between atoms: C_16  and  C_18
REMARK   10  A    between atoms: C_18  and  C_19
REMARK   11  A    between atoms: C_19  and  S_20
REMARK   12  A    between atoms: S_20  and  C_21
REMARK                            x       y       z     vdW  Elec       q    Type
REMARK                         _______ _______ _______ _____ _____    ______ ____
ROOT
ATOM      1  C   UNL     1       3.136   4.516  18.176  0.00  0.00    +0.000 A 
ATOM      2  C   UNL     1       3.990   3.983  17.189  0.00  0.00    +0.000 A 
ATOM      3  C   UNL     1       5.344   4.320  17.115  0.00  0.00    +0.000 A 
ATOM      4  C   UNL     1       5.873   5.227  18.038  0.00  0.00    +0.000 A 
ATOM      5  C   UNL     1       5.026   5.745  19.031  0.00  0.00    +0.000 A 
ATOM      6  C   UNL     1       3.652   5.435  19.109  0.00  0.00    +0.000 A 
ENDROOT
BRANCH   6   7
ATOM      7  N   UNL     1       2.833   6.044  20.111  0.00  0.00    +0.000 N 
ATOM      8  C   UNL     1       2.132   7.237  19.976  0.00  0.00    +0.000 C 
ATOM      9  O   UNL     1       2.118   7.942  18.967  0.00  0.00    +0.000 OA
ATOM     10  H   UNL     1       2.616   5.459  20.915  0.00  0.00    +0.000 HD
BRANCH   8  11
ATOM     11  C   UNL     1       1.359   7.667  21.213  0.00  0.00    +0.000 C 
BRANCH  11  12
ATOM     12  C   UNL     1       1.319   9.198  21.273  0.00  0.00    +0.000 C 
BRANCH  12  13
ATOM     13  S   UNL     1      -0.387   9.830  21.438  0.00  0.00    +0.000 S 
BRANCH  13  14
ATOM     14  C   UNL     1      -0.399  11.082  20.154  0.00  0.00    +0.000 A 
ATOM     15  C   UNL     1       0.757  11.820  19.921  0.00  0.00    +0.000 A 
ATOM     16  C   UNL     1       0.728  12.839  18.968  0.00  0.00    +0.000 A 
ATOM     17  C   UNL     1      -0.448  13.086  18.273  0.00  0.00    +0.000 A 
ATOM     18  C   UNL     1      -1.547  12.291  18.554  0.00  0.00    +0.000 A 
ATOM     19  N   UNL     1      -1.546  11.302  19.476  0.00  0.00    +0.000 NA
ENDBRANCH  13  14
ENDBRANCH  12  13
ENDBRANCH  11  12
ENDBRANCH   8  11
ENDBRANCH   6   7
BRANCH   1  20
ATOM     20  C   UNL     1       1.720   4.039  18.080  0.00  0.00    +0.000 C 
ATOM     21  O   UNL     1       1.053   4.156  17.059  0.00  0.00    +0.000 OA
BRANCH  20  23
ATOM     22  C   UNL     1       1.737   2.139  19.410  0.00  0.00    +0.000 C 
ATOM     23  O   UNL     1       1.268   3.483  19.232  0.00  0.00    +0.000 OA
ENDBRANCH  20  23
ENDBRANCH   1  20
BRANCH   3  24
ATOM     24  O   UNL     1       5.996   3.728  16.065  0.00  0.00    +0.000 OA
ATOM     25  C   UNL     1       5.754   4.267  14.771  0.00  0.00    +0.000 C 
ENDBRANCH   3  24
BRANCH   4  26
ATOM     26  O   UNL     1       7.188   5.580  17.908  0.00  0.00    +0.000 OA
ATOM     27  C   UNL     1       7.498   6.901  17.483  0.00  0.00    +0.000 C 
ENDBRANCH   4  26
TORSDOF 9
ENDMDL
