MODEL 1
REMARK VINA RESULT:      -7.7      0.000      0.000
REMARK  Name = 
REMARK  3 active torsions:
REMARK  status: ('A' for Active; 'I' for Inactive)
REMARK    1  A    between atoms: C_2  and  C_3
REMARK    2  A    between atoms: C_2  and  C_15
REMARK    3  A    between atoms: C_4  and  C_5
REMARK                            x       y       z     vdW  Elec       q    Type
REMARK                         _______ _______ _______ _____ _____    ______ ____
ROOT
ATOM      1  C   UNL     1       5.910   4.458  16.802  0.00  0.00    +0.000 C 
ATOM      2  C   UNL     1       4.577   4.608  16.770  0.00  0.00    +0.000 C 
ENDROOT
BRANCH   2   3
ATOM      3  C   UNL     1       3.702   3.956  17.758  0.00  0.00    +0.000 A 
ATOM      4  C   UNL     1       3.586   2.560  17.713  0.00  0.00    +0.000 A 
ATOM      5  C   UNL     1       2.773   1.899  18.628  0.00  0.00    +0.000 A 
ATOM      6  C   UNL     1       2.079   2.628  19.593  0.00  0.00    +0.000 A 
ATOM      7  C   UNL     1       2.172   4.009  19.673  0.00  0.00    +0.000 A 
ATOM      8  N   UNL     1       1.473   4.631  20.639  0.00  0.00    +0.000 NA
ATOM      9  C   UNL     1       1.561   5.975  20.724  0.00  0.00    +0.000 A 
ATOM     10  C   UNL     1       2.323   6.748  19.874  0.00  0.00    +0.000 A 
ATOM     11  C   UNL     1       3.042   6.100  18.874  0.00  0.00    +0.000 A 
ATOM     12  C   UNL     1       2.991   4.695  18.745  0.00  0.00    +0.000 A 
ENDBRANCH   2   3
BRANCH   1  14
ATOM     13  O   UNL     1       7.479   6.137  16.182  0.00  0.00    +0.000 OA
ATOM     14  C   UNL     1       6.763   5.207  15.834  0.00  0.00    +0.000 C 
BRANCH  14  15
ATOM     15  C   UNL     1       6.776   4.738  14.430  0.00  0.00    +0.000 A 
ATOM     16  C   UNL     1       5.864   3.767  14.014  0.00  0.00    +0.000 A 
ATOM     17  C   UNL     1       5.870   3.345  12.684  0.00  0.00    +0.000 A 
ATOM     18  C   UNL     1       6.802   3.902  11.823  0.00  0.00    +0.000 A 
ATOM     19  N   UNL     1       7.715   4.823  12.200  0.00  0.00    +0.000 NA
ATOM     20  C   UNL     1       7.688   5.215  13.498  0.00  0.00    +0.000 A 
ENDBRANCH  14  15
ENDBRANCH   1  14
TORSDOF 3
ENDMDL
MODEL 2
REMARK VINA RESULT:      -7.7      3.570      7.132
REMARK  Name = 
REMARK  3 active torsions:
REMARK  status: ('A' for Active; 'I' for Inactive)
REMARK    1  A    between atoms: C_2  and  C_3
REMARK    2  A    between atoms: C_2  and  C_15
REMARK    3  A    between atoms: C_4  and  C_5
REMARK                            x       y       z     vdW  Elec       q    Type
REMARK                         _______ _______ _______ _____ _____    ______ ____
ROOT
ATOM      1  C   UNL     1       1.930   7.742  18.026  0.00  0.00    +0.000 C 
ATOM      2  C   UNL     1       2.988   7.088  18.528  0.00  0.00    +0.000 C 
ENDROOT
BRANCH   2   3
ATOM      3  C   UNL     1       3.245   5.674  18.209  0.00  0.00    +0.000 A 
ATOM      4  C   UNL     1       4.125   5.386  17.158  0.00  0.00    +0.000 A 
ATOM      5  C   UNL     1       4.402   4.064  16.823  0.00  0.00    +0.000 A 
ATOM      6  C   UNL     1       3.804   3.028  17.539  0.00  0.00    +0.000 A 
ATOM      7  C   UNL     1       2.932   3.272  18.589  0.00  0.00    +0.000 A 
ATOM      8  N   UNL     1       2.406   2.213  19.229  0.00  0.00    +0.000 NA
ATOM      9  C   UNL     1       1.558   2.443  20.253  0.00  0.00    +0.000 A 
ATOM     10  C   UNL     1       1.196   3.703  20.679  0.00  0.00    +0.000 A 
ATOM     11  C   UNL     1       1.740   4.797  20.011  0.00  0.00    +0.000 A 
ATOM     12  C   UNL     1       2.638   4.612  18.937  0.00  0.00    +0.000 A 
ENDBRANCH   2   3
BRANCH   1  14
ATOM     13  O   UNL     1       2.167  10.060  17.540  0.00  0.00    +0.000 OA
ATOM     14  C   UNL     1       1.757   9.197  18.306  0.00  0.00    +0.000 C 
BRANCH  14  15
ATOM     15  C   UNL     1       0.997   9.574  19.519  0.00  0.00    +0.000 A 
ATOM     16  C   UNL     1       1.063   8.770  20.657  0.00  0.00    +0.000 A 
ATOM     17  C   UNL     1       0.360   9.142  21.803  0.00  0.00    +0.000 A 
ATOM     18  C   UNL     1      -0.399  10.301  21.760  0.00  0.00    +0.000 A 
ATOM     19  N   UNL     1      -0.506  11.087  20.665  0.00  0.00    +0.000 NA
ATOM     20  C   UNL     1       0.188  10.701  19.566  0.00  0.00    +0.000 A 
ENDBRANCH  14  15
ENDBRANCH   1  14
TORSDOF 3
ENDMDL
MODEL 3
REMARK VINA RESULT:      -7.6      3.520      7.917
REMARK  Name = 
REMARK  3 active torsions:
REMARK  status: ('A' for Active; 'I' for Inactive)
REMARK    1  A    between atoms: C_2  and  C_3
REMARK    2  A    between atoms: C_2  and  C_15
REMARK    3  A    between atoms: C_4  and  C_5
REMARK                            x       y       z     vdW  Elec       q    Type
REMARK                         _______ _______ _______ _____ _____    ______ ____
ROOT
ATOM      1  C   UNL     1       2.024   7.935  19.181  0.00  0.00    +0.000 C 
ATOM      2  C   UNL     1       2.498   7.518  17.998  0.00  0.00    +0.000 C 
ENDROOT
BRANCH   2   3
ATOM      3  C   UNL     1       3.002   6.148  17.807  0.00  0.00    +0.000 A 
ATOM      4  C   UNL     1       2.096   5.088  17.946  0.00  0.00    +0.000 A 
ATOM      5  C   UNL     1       2.526   3.776  17.772  0.00  0.00    +0.000 A 
ATOM      6  C   UNL     1       3.859   3.520  17.454  0.00  0.00    +0.000 A 
ATOM      7  C   UNL     1       4.784   4.541  17.303  0.00  0.00    +0.000 A 
ATOM      8  N   UNL     1       6.048   4.203  16.989  0.00  0.00    +0.000 NA
ATOM      9  C   UNL     1       6.953   5.192  16.838  0.00  0.00    +0.000 A 
ATOM     10  C   UNL     1       6.658   6.531  16.991  0.00  0.00    +0.000 A 
ATOM     11  C   UNL     1       5.350   6.875  17.319  0.00  0.00    +0.000 A 
ATOM     12  C   UNL     1       4.362   5.880  17.483  0.00  0.00    +0.000 A 
ENDBRANCH   2   3
BRANCH   1  14
ATOM     13  O   UNL     1       1.476  10.110  18.383  0.00  0.00    +0.000 OA
ATOM     14  C   UNL     1       1.444   9.304  19.305  0.00  0.00    +0.000 C 
BRANCH  14  15
ATOM     15  C   UNL     1       0.750   9.640  20.568  0.00  0.00    +0.000 A 
ATOM     16  C   UNL     1       0.200   8.624  21.350  0.00  0.00    +0.000 A 
ATOM     17  C   UNL     1      -0.434   8.947  22.549  0.00  0.00    +0.000 A 
ATOM     18  C   UNL     1      -0.510  10.282  22.913  0.00  0.00    +0.000 A 
ATOM     19  N   UNL     1      -0.013  11.293  22.165  0.00  0.00    +0.000 NA
ATOM     20  C   UNL     1       0.599  10.950  21.004  0.00  0.00    +0.000 A 
ENDBRANCH  14  15
ENDBRANCH   1  14
TORSDOF 3
ENDMDL
MODEL 4
REMARK VINA RESULT:      -7.6      0.863      2.442
REMARK  Name = 
REMARK  3 active torsions:
REMARK  status: ('A' for Active; 'I' for Inactive)
REMARK    1  A    between atoms: C_2  and  C_3
REMARK    2  A    between atoms: C_2  and  C_15
REMARK    3  A    between atoms: C_4  and  C_5
REMARK                            x       y       z     vdW  Elec       q    Type
REMARK                         _______ _______ _______ _____ _____    ______ ____
ROOT
ATOM      1  C   UNL     1       5.620   5.295  17.070  0.00  0.00    +0.000 C 
ATOM      2  C   UNL     1       4.460   5.968  17.116  0.00  0.00    +0.000 C 
ENDROOT
BRANCH   2   3
ATOM      3  C   UNL     1       3.458   5.709  18.164  0.00  0.00    +0.000 A 
ATOM      4  C   UNL     1       3.133   6.757  19.036  0.00  0.00    +0.000 A 
ATOM      5  C   UNL     1       2.190   6.561  20.039  0.00  0.00    +0.000 A 
ATOM      6  C   UNL     1       1.565   5.321  20.171  0.00  0.00    +0.000 A 
ATOM      7  C   UNL     1       1.855   4.262  19.325  0.00  0.00    +0.000 A 
ATOM      8  N   UNL     1       1.200   3.104  19.519  0.00  0.00    +0.000 NA
ATOM      9  C   UNL     1       1.475   2.070  18.698  0.00  0.00    +0.000 A 
ATOM     10  C   UNL     1       2.394   2.131  17.671  0.00  0.00    +0.000 A 
ATOM     11  C   UNL     1       3.072   3.331  17.475  0.00  0.00    +0.000 A 
ATOM     12  C   UNL     1       2.817   4.446  18.303  0.00  0.00    +0.000 A 
ENDBRANCH   2   3
BRANCH   1  14
ATOM     13  O   UNL     1       7.556   6.430  16.277  0.00  0.00    +0.000 OA
ATOM     14  C   UNL     1       6.641   5.651  16.042  0.00  0.00    +0.000 C 
BRANCH  14  15
ATOM     15  C   UNL     1       6.559   4.966  14.733  0.00  0.00    +0.000 A 
ATOM     16  C   UNL     1       5.506   4.088  14.472  0.00  0.00    +0.000 A 
ATOM     17  C   UNL     1       5.425   3.462  13.228  0.00  0.00    +0.000 A 
ATOM     18  C   UNL     1       6.414   3.727  12.295  0.00  0.00    +0.000 A 
ATOM     19  N   UNL     1       7.461   4.550  12.525  0.00  0.00    +0.000 NA
ATOM     20  C   UNL     1       7.515   5.145  13.742  0.00  0.00    +0.000 A 
ENDBRANCH  14  15
ENDBRANCH   1  14
TORSDOF 3
ENDMDL
MODEL 5
REMARK VINA RESULT:      -7.6      3.833      7.702
REMARK  Name = 
REMARK  3 active torsions:
REMARK  status: ('A' for Active; 'I' for Inactive)
REMARK    1  A    between atoms: C_2  and  C_3
REMARK    2  A    between atoms: C_2  and  C_15
REMARK    3  A    between atoms: C_4  and  C_5
REMARK                            x       y       z     vdW  Elec       q    Type
REMARK                         _______ _______ _______ _____ _____    ______ ____
ROOT
ATOM      1  C   UNL     1       2.191   8.220  19.124  0.00  0.00    +0.000 C 
ATOM      2  C   UNL     1       1.975   7.132  18.370  0.00  0.00    +0.000 C 
ENDROOT
BRANCH   2   3
ATOM      3  C   UNL     1       2.897   5.985  18.385  0.00  0.00    +0.000 A 
ATOM      4  C   UNL     1       3.947   5.973  17.457  0.00  0.00    +0.000 A 
ATOM      5  C   UNL     1       4.847   4.912  17.436  0.00  0.00    +0.000 A 
ATOM      6  C   UNL     1       4.703   3.864  18.343  0.00  0.00    +0.000 A 
ATOM      7  C   UNL     1       3.681   3.841  19.280  0.00  0.00    +0.000 A 
ATOM      8  N   UNL     1       3.621   2.794  20.121  0.00  0.00    +0.000 NA
ATOM      9  C   UNL     1       2.631   2.767  21.037  0.00  0.00    +0.000 A 
ATOM     10  C   UNL     1       1.672   3.751  21.157  0.00  0.00    +0.000 A 
ATOM     11  C   UNL     1       1.736   4.832  20.282  0.00  0.00    +0.000 A 
ATOM     12  C   UNL     1       2.756   4.912  19.309  0.00  0.00    +0.000 A 
ENDBRANCH   2   3
BRANCH   1  14
ATOM     13  O   UNL     1       0.799   9.865  18.115  0.00  0.00    +0.000 OA
ATOM     14  C   UNL     1       1.185   9.321  19.142  0.00  0.00    +0.000 C 
BRANCH  14  15
ATOM     15  C   UNL     1       0.600   9.692  20.449  0.00  0.00    +0.000 A 
ATOM     16  C   UNL     1       0.075   8.703  21.281  0.00  0.00    +0.000 A 
ATOM     17  C   UNL     1      -0.456   9.058  22.521  0.00  0.00    +0.000 A 
ATOM     18  C   UNL     1      -0.454  10.398  22.876  0.00  0.00    +0.000 A 
ATOM     19  N   UNL     1       0.021  11.383  22.083  0.00  0.00    +0.000 NA
ATOM     20  C   UNL     1       0.531  11.009  20.883  0.00  0.00    +0.000 A 
ENDBRANCH  14  15
ENDBRANCH   1  14
TORSDOF 3
ENDMDL
MODEL 6
REMARK VINA RESULT:      -7.6      4.506      7.035
REMARK  Name = 
REMARK  3 active torsions:
REMARK  status: ('A' for Active; 'I' for Inactive)
REMARK    1  A    between atoms: C_2  and  C_3
REMARK    2  A    between atoms: C_2  and  C_15
REMARK    3  A    between atoms: C_4  and  C_5
REMARK                            x       y       z     vdW  Elec       q    Type
REMARK                         _______ _______ _______ _____ _____    ______ ____
ROOT
ATOM      1  C   UNL     1       2.709   7.207  19.177  0.00  0.00    +0.000 C 
ATOM      2  C   UNL     1       1.826   7.645  20.087  0.00  0.00    +0.000 C 
ENDROOT
BRANCH   2   3
ATOM      3  C   UNL     1       1.125   8.930  19.927  0.00  0.00    +0.000 A 
ATOM      4  C   UNL     1       1.151   9.541  18.667  0.00  0.00    +0.000 A 
ATOM      5  C   UNL     1       0.500  10.754  18.467  0.00  0.00    +0.000 A 
ATOM      6  C   UNL     1      -0.182  11.357  19.523  0.00  0.00    +0.000 A 
ATOM      7  C   UNL     1      -0.236  10.781  20.783  0.00  0.00    +0.000 A 
ATOM      8  N   UNL     1      -0.923  11.428  21.741  0.00  0.00    +0.000 NA
ATOM      9  C   UNL     1      -0.982  10.871  22.969  0.00  0.00    +0.000 A 
ATOM     10  C   UNL     1      -0.374   9.679  23.299  0.00  0.00    +0.000 A 
ATOM     11  C   UNL     1       0.338   9.014  22.305  0.00  0.00    +0.000 A 
ATOM     12  C   UNL     1       0.426   9.549  21.001  0.00  0.00    +0.000 A 
ENDBRANCH   2   3
BRANCH   1  14
ATOM     13  O   UNL     1       4.523   5.718  19.578  0.00  0.00    +0.000 OA
ATOM     14  C   UNL     1       3.330   5.860  19.337  0.00  0.00    +0.000 C 
BRANCH  14  15
ATOM     15  C   UNL     1       2.436   4.683  19.270  0.00  0.00    +0.000 A 
ATOM     16  C   UNL     1       2.036   4.047  20.445  0.00  0.00    +0.000 A 
ATOM     17  C   UNL     1       1.177   2.950  20.375  0.00  0.00    +0.000 A 
ATOM     18  C   UNL     1       0.762   2.521  19.124  0.00  0.00    +0.000 A 
ATOM     19  N   UNL     1       1.152   3.097  17.966  0.00  0.00    +0.000 NA
ATOM     20  C   UNL     1       1.988   4.161  18.064  0.00  0.00    +0.000 A 
ENDBRANCH  14  15
ENDBRANCH   1  14
TORSDOF 3
ENDMDL
MODEL 7
REMARK VINA RESULT:      -7.6      0.605      1.078
REMARK  Name = 
REMARK  3 active torsions:
REMARK  status: ('A' for Active; 'I' for Inactive)
REMARK    1  A    between atoms: C_2  and  C_3
REMARK    2  A    between atoms: C_2  and  C_15
REMARK    3  A    between atoms: C_4  and  C_5
REMARK                            x       y       z     vdW  Elec       q    Type
REMARK                         _______ _______ _______ _____ _____    ______ ____
ROOT
ATOM      1  C   UNL     1       5.932   4.429  16.795  0.00  0.00    +0.000 C 
ATOM      2  C   UNL     1       4.601   4.597  16.783  0.00  0.00    +0.000 C 
ENDROOT
BRANCH   2   3
ATOM      3  C   UNL     1       3.726   3.906  17.745  0.00  0.00    +0.000 A 
ATOM      4  C   UNL     1       3.621   2.512  17.655  0.00  0.00    +0.000 A 
ATOM      5  C   UNL     1       2.810   1.815  18.545  0.00  0.00    +0.000 A 
ATOM      6  C   UNL     1       2.105   2.508  19.528  0.00  0.00    +0.000 A 
ATOM      7  C   UNL     1       2.187   3.886  19.653  0.00  0.00    +0.000 A 
ATOM      8  N   UNL     1       1.479   4.472  20.635  0.00  0.00    +0.000 NA
ATOM      9  C   UNL     1       1.555   5.813  20.764  0.00  0.00    +0.000 A 
ATOM     10  C   UNL     1       2.316   6.619  19.943  0.00  0.00    +0.000 A 
ATOM     11  C   UNL     1       3.045   6.009  18.926  0.00  0.00    +0.000 A 
ATOM     12  C   UNL     1       3.005   4.608  18.752  0.00  0.00    +0.000 A 
ENDBRANCH   2   3
BRANCH   1  14
ATOM     13  O   UNL     1       7.486   6.145  16.240  0.00  0.00    +0.000 OA
ATOM     14  C   UNL     1       6.786   5.215  15.858  0.00  0.00    +0.000 C 
BRANCH  14  15
ATOM     15  C   UNL     1       6.823   4.783  14.443  0.00  0.00    +0.000 A 
ATOM     16  C   UNL     1       7.712   5.390  13.555  0.00  0.00    +0.000 A 
ATOM     17  C   UNL     1       7.755   4.964  12.228  0.00  0.00    +0.000 A 
ATOM     18  C   UNL     1       6.892   3.954  11.835  0.00  0.00    +0.000 A 
ATOM     19  N   UNL     1       6.001   3.364  12.662  0.00  0.00    +0.000 NA
ATOM     20  C   UNL     1       5.980   3.799  13.947  0.00  0.00    +0.000 A 
ENDBRANCH  14  15
ENDBRANCH   1  14
TORSDOF 3
ENDMDL
MODEL 8
REMARK VINA RESULT:      -7.5      4.295      6.822
REMARK  Name = 
REMARK  3 active torsions:
REMARK  status: ('A' for Active; 'I' for Inactive)
REMARK    1  A    between atoms: C_2  and  C_3
REMARK    2  A    between atoms: C_2  and  C_15
REMARK    3  A    between atoms: C_4  and  C_5
REMARK                            x       y       z     vdW  Elec       q    Type
REMARK                         _______ _______ _______ _____ _____    ______ ____
ROOT
ATOM      1  C   UNL     1       2.363   7.912  18.111  0.00  0.00    +0.000 C 
ATOM      2  C   UNL     1       1.906   8.272  19.320  0.00  0.00    +0.000 C 
ENDROOT
BRANCH   2   3
ATOM      3  C   UNL     1       0.915   9.348  19.483  0.00  0.00    +0.000 A 
ATOM      4  C   UNL     1       0.501  10.040  18.338  0.00  0.00    +0.000 A 
ATOM      5  C   UNL     1      -0.436  11.063  18.442  0.00  0.00    +0.000 A 
ATOM      6  C   UNL     1      -0.966  11.393  19.688  0.00  0.00    +0.000 A 
ATOM      7  C   UNL     1      -0.587  10.729  20.844  0.00  0.00    +0.000 A 
ATOM      8  N   UNL     1      -1.154  11.108  22.003  0.00  0.00    +0.000 NA
ATOM      9  C   UNL     1      -0.791  10.464  23.132  0.00  0.00    +0.000 A 
ATOM     10  C   UNL     1       0.133   9.440  23.166  0.00  0.00    +0.000 A 
ATOM     11  C   UNL     1       0.719   9.053  21.964  0.00  0.00    +0.000 A 
ATOM     12  C   UNL     1       0.370   9.690  20.753  0.00  0.00    +0.000 A 
ENDBRANCH   2   3
BRANCH   1  14
ATOM     13  O   UNL     1       4.430   6.886  17.528  0.00  0.00    +0.000 OA
ATOM     14  C   UNL     1       3.301   6.759  17.987  0.00  0.00    +0.000 C 
BRANCH  14  15
ATOM     15  C   UNL     1       2.850   5.452  18.513  0.00  0.00    +0.000 A 
ATOM     16  C   UNL     1       1.840   4.749  17.854  0.00  0.00    +0.000 A 
ATOM     17  C   UNL     1       1.435   3.508  18.344  0.00  0.00    +0.000 A 
ATOM     18  C   UNL     1       2.048   3.022  19.488  0.00  0.00    +0.000 A 
ATOM     19  N   UNL     1       3.008   3.689  20.165  0.00  0.00    +0.000 NA
ATOM     20  C   UNL     1       3.383   4.894  19.667  0.00  0.00    +0.000 A 
ENDBRANCH  14  15
ENDBRANCH   1  14
TORSDOF 3
ENDMDL
MODEL 9
REMARK VINA RESULT:      -7.5      4.373      7.066
REMARK  Name = 
REMARK  3 active torsions:
REMARK  status: ('A' for Active; 'I' for Inactive)
REMARK    1  A    between atoms: C_2  and  C_3
REMARK    2  A    between atoms: C_2  and  C_15
REMARK    3  A    between atoms: C_4  and  C_5
REMARK                            x       y       z     vdW  Elec       q    Type
REMARK                         _______ _______ _______ _____ _____    ______ ____
ROOT
ATOM      1  C   UNL     1       2.701   7.492  18.802  0.00  0.00    +0.000 C 
ATOM      2  C   UNL     1       1.660   8.250  18.424  0.00  0.00    +0.000 C 
ENDROOT
BRANCH   2   3
ATOM      3  C   UNL     1       1.436   9.590  18.990  0.00  0.00    +0.000 A 
ATOM      4  C   UNL     1       1.847  10.699  18.238  0.00  0.00    +0.000 A 
ATOM      5  C   UNL     1       1.652  11.985  18.729  0.00  0.00    +0.000 A 
ATOM      6  C   UNL     1       1.042  12.169  19.970  0.00  0.00    +0.000 A 
ATOM      7  C   UNL     1       0.617  11.099  20.741  0.00  0.00    +0.000 A 
ATOM      8  N   UNL     1       0.033  11.367  21.922  0.00  0.00    +0.000 NA
ATOM      9  C   UNL     1      -0.386  10.330  22.677  0.00  0.00    +0.000 A 
ATOM     10  C   UNL     1      -0.245   9.009  22.309  0.00  0.00    +0.000 A 
ATOM     11  C   UNL     1       0.363   8.736  21.087  0.00  0.00    +0.000 A 
ATOM     12  C   UNL     1       0.814   9.784  20.255  0.00  0.00    +0.000 A 
ENDBRANCH   2   3
BRANCH   1  14
ATOM     13  O   UNL     1       3.771   6.034  17.254  0.00  0.00    +0.000 OA
ATOM     14  C   UNL     1       2.937   6.176  18.140  0.00  0.00    +0.000 C 
BRANCH  14  15
ATOM     15  C   UNL     1       2.177   5.011  18.644  0.00  0.00    +0.000 A 
ATOM     16  C   UNL     1       1.856   4.925  19.999  0.00  0.00    +0.000 A 
ATOM     17  C   UNL     1       1.121   3.834  20.462  0.00  0.00    +0.000 A 
ATOM     18  C   UNL     1       0.747   2.859  19.551  0.00  0.00    +0.000 A 
ATOM     19  N   UNL     1       1.066   2.899  18.238  0.00  0.00    +0.000 NA
ATOM     20  C   UNL     1       1.781   3.970  17.815  0.00  0.00    +0.000 A 
ENDBRANCH  14  15
ENDBRANCH   1  14
TORSDOF 3
ENDMDL
