MODEL 1
REMARK VINA RESULT:      -6.4      0.000      0.000
REMARK  Name = 
REMARK  4 active torsions:
REMARK  status: ('A' for Active; 'I' for Inactive)
REMARK    1  A    between atoms: C_2  and  C_3
REMARK    2  A    between atoms: C_2  and  O_10
REMARK    3  A    between atoms: C_4  and  C_5
REMARK    4  A    between atoms: O_10  and  C_11
REMARK                            x       y       z     vdW  Elec       q    Type
REMARK                         _______ _______ _______ _____ _____    ______ ____
ROOT
ATOM      1  O   UNL     1       7.536   5.784  18.904  0.00  0.00    +0.000 OA
ATOM      2  C   UNL     1       6.847   4.873  18.472  0.00  0.00    +0.000 C 
ENDROOT
BRANCH   2   3
ATOM      3  C   UNL     1       6.853   4.474  17.046  0.00  0.00    +0.000 C 
ATOM      4  C   UNL     1       7.055   5.332  16.035  0.00  0.00    +0.000 C 
BRANCH   4   5
ATOM      5  C   UNL     1       6.993   4.903  14.683  0.00  0.00    +0.000 A 
ATOM      6  C   UNL     1       6.211   3.893  14.134  0.00  0.00    +0.000 A 
ATOM      7  C   UNL     1       6.492   3.825  12.749  0.00  0.00    +0.000 A 
ATOM      8  C   UNL     1       7.433   4.793  12.513  0.00  0.00    +0.000 A 
ATOM      9  O   UNL     1       7.741   5.444  13.660  0.00  0.00    +0.000 OA
ENDBRANCH   4   5
ENDBRANCH   2   3
BRANCH   2  10
ATOM     10  O   UNL     1       5.994   4.060  19.200  0.00  0.00    +0.000 OA
BRANCH  10  11
ATOM     11  C   UNL     1       4.621   4.341  19.244  0.00  0.00    +0.000 A 
ATOM     12  C   UNL     1       3.747   3.261  19.223  0.00  0.00    +0.000 A 
ATOM     13  N   UNL     1       2.413   3.377  19.413  0.00  0.00    +0.000 NA
ATOM     14  C   UNL     1       1.944   4.628  19.644  0.00  0.00    +0.000 A 
ATOM     15  C   UNL     1       2.748   5.761  19.680  0.00  0.00    +0.000 A 
ATOM     16 CL   UNL     1       2.075   7.305  20.011  0.00  0.00    +0.000 Cl
ATOM     17  C   UNL     1       4.116   5.617  19.477  0.00  0.00    +0.000 A 
ENDBRANCH  10  11
ENDBRANCH   2  10
TORSDOF 4
ENDMDL
MODEL 2
REMARK VINA RESULT:      -6.4      4.768      6.084
REMARK  Name = 
REMARK  4 active torsions:
REMARK  status: ('A' for Active; 'I' for Inactive)
REMARK    1  A    between atoms: C_2  and  C_3
REMARK    2  A    between atoms: C_2  and  O_10
REMARK    3  A    between atoms: C_4  and  C_5
REMARK    4  A    between atoms: O_10  and  C_11
REMARK                            x       y       z     vdW  Elec       q    Type
REMARK                         _______ _______ _______ _____ _____    ______ ____
ROOT
ATOM      1  O   UNL     1       8.000   6.707  18.648  0.00  0.00    +0.000 OA
ATOM      2  C   UNL     1       7.686   7.537  17.810  0.00  0.00    +0.000 C 
ENDROOT
BRANCH   2   3
ATOM      3  C   UNL     1       8.134   8.947  17.876  0.00  0.00    +0.000 C 
ATOM      4  C   UNL     1       8.954   9.422  18.826  0.00  0.00    +0.000 C 
BRANCH   4   5
ATOM      5  C   UNL     1       9.305  10.798  18.873  0.00  0.00    +0.000 A 
ATOM      6  C   UNL     1       9.951  11.488  19.893  0.00  0.00    +0.000 A 
ATOM      7  C   UNL     1      10.079  12.840  19.495  0.00  0.00    +0.000 A 
ATOM      8  C   UNL     1       9.505  12.917  18.252  0.00  0.00    +0.000 A 
ATOM      9  O   UNL     1       9.039  11.703  17.869  0.00  0.00    +0.000 OA
ENDBRANCH   4   5
ENDBRANCH   2   3
BRANCH   2  10
ATOM     10  O   UNL     1       6.917   7.326  16.678  0.00  0.00    +0.000 OA
BRANCH  10  11
ATOM     11  C   UNL     1       5.965   6.296  16.656  0.00  0.00    +0.000 A 
ATOM     12  C   UNL     1       6.366   5.068  16.144  0.00  0.00    +0.000 A 
ATOM     13  N   UNL     1       5.605   3.951  16.202  0.00  0.00    +0.000 NA
ATOM     14  C   UNL     1       4.398   4.077  16.809  0.00  0.00    +0.000 A 
ATOM     15  C   UNL     1       3.921   5.267  17.344  0.00  0.00    +0.000 A 
ATOM     16 CL   UNL     1       2.393   5.328  18.124  0.00  0.00    +0.000 Cl
ATOM     17  C   UNL     1       4.720   6.402  17.269  0.00  0.00    +0.000 A 
ENDBRANCH  10  11
ENDBRANCH   2  10
TORSDOF 4
ENDMDL
MODEL 3
REMARK VINA RESULT:      -6.4      3.349      6.354
REMARK  Name = 
REMARK  4 active torsions:
REMARK  status: ('A' for Active; 'I' for Inactive)
REMARK    1  A    between atoms: C_2  and  C_3
REMARK    2  A    between atoms: C_2  and  O_10
REMARK    3  A    between atoms: C_4  and  C_5
REMARK    4  A    between atoms: O_10  and  C_11
REMARK                            x       y       z     vdW  Elec       q    Type
REMARK                         _______ _______ _______ _____ _____    ______ ____
ROOT
ATOM      1  O   UNL     1       3.041   8.121  17.037  0.00  0.00    +0.000 OA
ATOM      2  C   UNL     1       3.776   7.338  17.619  0.00  0.00    +0.000 C 
ENDROOT
BRANCH   2   3
ATOM      3  C   UNL     1       3.262   6.241  18.470  0.00  0.00    +0.000 C 
ATOM      4  C   UNL     1       2.379   5.324  18.047  0.00  0.00    +0.000 C 
BRANCH   4   5
ATOM      5  C   UNL     1       1.876   4.328  18.926  0.00  0.00    +0.000 A 
ATOM      6  C   UNL     1       1.484   4.466  20.253  0.00  0.00    +0.000 A 
ATOM      7  C   UNL     1       1.059   3.200  20.718  0.00  0.00    +0.000 A 
ATOM      8  C   UNL     1       1.212   2.343  19.658  0.00  0.00    +0.000 A 
ATOM      9  O   UNL     1       1.699   3.005  18.582  0.00  0.00    +0.000 OA
ENDBRANCH   4   5
ENDBRANCH   2   3
BRANCH   2  10
ATOM     10  O   UNL     1       5.160   7.308  17.573  0.00  0.00    +0.000 OA
BRANCH  10  11
ATOM     11  C   UNL     1       5.817   6.351  16.785  0.00  0.00    +0.000 A 
ATOM     12  C   UNL     1       6.964   5.771  17.312  0.00  0.00    +0.000 A 
ATOM     13  N   UNL     1       7.608   4.731  16.733  0.00  0.00    +0.000 NA
ATOM     14  C   UNL     1       7.068   4.254  15.585  0.00  0.00    +0.000 A 
ATOM     15  C   UNL     1       5.926   4.777  14.990  0.00  0.00    +0.000 A 
ATOM     16 CL   UNL     1       5.291   4.088  13.551  0.00  0.00    +0.000 Cl
ATOM     17  C   UNL     1       5.284   5.848  15.603  0.00  0.00    +0.000 A 
ENDBRANCH  10  11
ENDBRANCH   2  10
TORSDOF 4
ENDMDL
MODEL 4
REMARK VINA RESULT:      -6.3      2.145      2.651
REMARK  Name = 
REMARK  4 active torsions:
REMARK  status: ('A' for Active; 'I' for Inactive)
REMARK    1  A    between atoms: C_2  and  C_3
REMARK    2  A    between atoms: C_2  and  O_10
REMARK    3  A    between atoms: C_4  and  C_5
REMARK    4  A    between atoms: O_10  and  C_11
REMARK                            x       y       z     vdW  Elec       q    Type
REMARK                         _______ _______ _______ _____ _____    ______ ____
ROOT
ATOM      1  O   UNL     1       7.467   6.176  16.293  0.00  0.00    +0.000 OA
ATOM      2  C   UNL     1       6.309   5.791  16.256  0.00  0.00    +0.000 C 
ENDROOT
BRANCH   2   3
ATOM      3  C   UNL     1       5.778   4.959  15.152  0.00  0.00    +0.000 C 
ATOM      4  C   UNL     1       6.523   4.531  14.121  0.00  0.00    +0.000 C 
BRANCH   4   5
ATOM      5  C   UNL     1       5.947   3.783  13.059  0.00  0.00    +0.000 A 
ATOM      6  C   UNL     1       6.552   2.824  12.254  0.00  0.00    +0.000 A 
ATOM      7  C   UNL     1       5.587   2.357  11.330  0.00  0.00    +0.000 A 
ATOM      8  C   UNL     1       4.438   3.052  11.608  0.00  0.00    +0.000 A 
ATOM      9  O   UNL     1       4.641   3.907  12.639  0.00  0.00    +0.000 OA
ENDBRANCH   4   5
ENDBRANCH   2   3
BRANCH   2  10
ATOM     10  O   UNL     1       5.327   6.019  17.206  0.00  0.00    +0.000 OA
BRANCH  10  11
ATOM     11  C   UNL     1       4.721   4.939  17.866  0.00  0.00    +0.000 A 
ATOM     12  C   UNL     1       5.485   4.255  18.802  0.00  0.00    +0.000 A 
ATOM     13  N   UNL     1       4.986   3.297  19.618  0.00  0.00    +0.000 NA
ATOM     14  C   UNL     1       3.663   3.029  19.489  0.00  0.00    +0.000 A 
ATOM     15  C   UNL     1       2.829   3.665  18.577  0.00  0.00    +0.000 A 
ATOM     16 CL   UNL     1       1.156   3.285  18.504  0.00  0.00    +0.000 Cl
ATOM     17  C   UNL     1       3.367   4.642  17.748  0.00  0.00    +0.000 A 
ENDBRANCH  10  11
ENDBRANCH   2  10
TORSDOF 4
ENDMDL
MODEL 5
REMARK VINA RESULT:      -6.3      4.165      5.557
REMARK  Name = 
REMARK  4 active torsions:
REMARK  status: ('A' for Active; 'I' for Inactive)
REMARK    1  A    between atoms: C_2  and  C_3
REMARK    2  A    between atoms: C_2  and  O_10
REMARK    3  A    between atoms: C_4  and  C_5
REMARK    4  A    between atoms: O_10  and  C_11
REMARK                            x       y       z     vdW  Elec       q    Type
REMARK                         _______ _______ _______ _____ _____    ______ ____
ROOT
ATOM      1  O   UNL     1       7.560   6.302  16.301  0.00  0.00    +0.000 OA
ATOM      2  C   UNL     1       7.168   7.130  17.109  0.00  0.00    +0.000 C 
ENDROOT
BRANCH   2   3
ATOM      3  C   UNL     1       7.921   8.368  17.413  0.00  0.00    +0.000 C 
ATOM      4  C   UNL     1       8.396   8.668  18.632  0.00  0.00    +0.000 C 
BRANCH   4   5
ATOM      5  C   UNL     1       9.062   9.898  18.879  0.00  0.00    +0.000 A 
ATOM      6  C   UNL     1       9.525  10.829  17.954  0.00  0.00    +0.000 A 
ATOM      7  C   UNL     1      10.126  11.893  18.668  0.00  0.00    +0.000 A 
ATOM      8  C   UNL     1      10.006  11.566  19.994  0.00  0.00    +0.000 A 
ATOM      9  O   UNL     1       9.372  10.376  20.133  0.00  0.00    +0.000 OA
ENDBRANCH   4   5
ENDBRANCH   2   3
BRANCH   2  10
ATOM     10  O   UNL     1       5.990   7.087  17.836  0.00  0.00    +0.000 OA
BRANCH  10  11
ATOM     11  C   UNL     1       5.335   5.864  18.044  0.00  0.00    +0.000 A 
ATOM     12  C   UNL     1       5.955   4.944  18.880  0.00  0.00    +0.000 A 
ATOM     13  N   UNL     1       5.369   3.794  19.289  0.00  0.00    +0.000 NA
ATOM     14  C   UNL     1       4.107   3.572  18.845  0.00  0.00    +0.000 A 
ATOM     15  C   UNL     1       3.418   4.438  18.006  0.00  0.00    +0.000 A 
ATOM     16 CL   UNL     1       1.809   4.093  17.517  0.00  0.00    +0.000 Cl
ATOM     17  C   UNL     1       4.043   5.611  17.596  0.00  0.00    +0.000 A 
ENDBRANCH  10  11
ENDBRANCH   2  10
TORSDOF 4
ENDMDL
MODEL 6
REMARK VINA RESULT:      -6.2      2.228      2.493
REMARK  Name = 
REMARK  4 active torsions:
REMARK  status: ('A' for Active; 'I' for Inactive)
REMARK    1  A    between atoms: C_2  and  C_3
REMARK    2  A    between atoms: C_2  and  O_10
REMARK    3  A    between atoms: C_4  and  C_5
REMARK    4  A    between atoms: O_10  and  C_11
REMARK                            x       y       z     vdW  Elec       q    Type
REMARK                         _______ _______ _______ _____ _____    ______ ____
ROOT
ATOM      1  O   UNL     1       4.038   6.970  17.724  0.00  0.00    +0.000 OA
ATOM      2  C   UNL     1       4.455   5.886  17.347  0.00  0.00    +0.000 C 
ENDROOT
BRANCH   2   3
ATOM      3  C   UNL     1       5.123   5.697  16.039  0.00  0.00    +0.000 C 
ATOM      4  C   UNL     1       5.326   4.497  15.475  0.00  0.00    +0.000 C 
BRANCH   4   5
ATOM      5  C   UNL     1       6.024   4.372  14.244  0.00  0.00    +0.000 A 
ATOM      6  C   UNL     1       7.198   5.005  13.850  0.00  0.00    +0.000 A 
ATOM      7  C   UNL     1       7.509   4.574  12.539  0.00  0.00    +0.000 A 
ATOM      8  C   UNL     1       6.513   3.700  12.188  0.00  0.00    +0.000 A 
ATOM      9  O   UNL     1       5.620   3.570  13.199  0.00  0.00    +0.000 OA
ENDBRANCH   4   5
ENDBRANCH   2   3
BRANCH   2  10
ATOM     10  O   UNL     1       4.414   4.691  18.047  0.00  0.00    +0.000 OA
BRANCH  10  11
ATOM     11  C   UNL     1       3.197   4.215  18.555  0.00  0.00    +0.000 A 
ATOM     12  C   UNL     1       2.181   3.959  17.643  0.00  0.00    +0.000 A 
ATOM     13  N   UNL     1       1.016   3.356  17.973  0.00  0.00    +0.000 NA
ATOM     14  C   UNL     1       0.875   2.990  19.271  0.00  0.00    +0.000 A 
ATOM     15  C   UNL     1       1.839   3.211  20.246  0.00  0.00    +0.000 A 
ATOM     16 CL   UNL     1       1.590   2.684  21.861  0.00  0.00    +0.000 Cl
ATOM     17  C   UNL     1       3.027   3.835  19.883  0.00  0.00    +0.000 A 
ENDBRANCH  10  11
ENDBRANCH   2  10
TORSDOF 4
ENDMDL
MODEL 7
REMARK VINA RESULT:      -6.2      2.502      3.218
REMARK  Name = 
REMARK  4 active torsions:
REMARK  status: ('A' for Active; 'I' for Inactive)
REMARK    1  A    between atoms: C_2  and  C_3
REMARK    2  A    between atoms: C_2  and  O_10
REMARK    3  A    between atoms: C_4  and  C_5
REMARK    4  A    between atoms: O_10  and  C_11
REMARK                            x       y       z     vdW  Elec       q    Type
REMARK                         _______ _______ _______ _____ _____    ______ ____
ROOT
ATOM      1  O   UNL     1       7.290   6.009  15.942  0.00  0.00    +0.000 OA
ATOM      2  C   UNL     1       6.375   5.271  15.610  0.00  0.00    +0.000 C 
ENDROOT
BRANCH   2   3
ATOM      3  C   UNL     1       6.540   4.200  14.601  0.00  0.00    +0.000 C 
ATOM      4  C   UNL     1       6.182   4.330  13.314  0.00  0.00    +0.000 C 
BRANCH   4   5
ATOM      5  C   UNL     1       6.310   3.248  12.403  0.00  0.00    +0.000 A 
ATOM      6  C   UNL     1       7.433   2.855  11.684  0.00  0.00    +0.000 A 
ATOM      7  C   UNL     1       7.081   1.729  10.902  0.00  0.00    +0.000 A 
ATOM      8  C   UNL     1       5.759   1.486  11.175  0.00  0.00    +0.000 A 
ATOM      9  O   UNL     1       5.287   2.386  12.070  0.00  0.00    +0.000 OA
ENDBRANCH   4   5
ENDBRANCH   2   3
BRANCH   2  10
ATOM     10  O   UNL     1       5.083   5.273  16.108  0.00  0.00    +0.000 OA
BRANCH  10  11
ATOM     11  C   UNL     1       4.725   4.391  17.138  0.00  0.00    +0.000 A 
ATOM     12  C   UNL     1       5.562   4.329  18.245  0.00  0.00    +0.000 A 
ATOM     13  N   UNL     1       5.261   3.642  19.371  0.00  0.00    +0.000 NA
ATOM     14  C   UNL     1       4.066   3.001  19.383  0.00  0.00    +0.000 A 
ATOM     15  C   UNL     1       3.172   3.010  18.319  0.00  0.00    +0.000 A 
ATOM     16 CL   UNL     1       1.664   2.197  18.432  0.00  0.00    +0.000 Cl
ATOM     17  C   UNL     1       3.506   3.721  17.171  0.00  0.00    +0.000 A 
ENDBRANCH  10  11
ENDBRANCH   2  10
TORSDOF 4
ENDMDL
MODEL 8
REMARK VINA RESULT:      -6.2      1.671      1.943
REMARK  Name = 
REMARK  4 active torsions:
REMARK  status: ('A' for Active; 'I' for Inactive)
REMARK    1  A    between atoms: C_2  and  C_3
REMARK    2  A    between atoms: C_2  and  O_10
REMARK    3  A    between atoms: C_4  and  C_5
REMARK    4  A    between atoms: O_10  and  C_11
REMARK                            x       y       z     vdW  Elec       q    Type
REMARK                         _______ _______ _______ _____ _____    ______ ____
ROOT
ATOM      1  O   UNL     1       7.484   6.545  17.909  0.00  0.00    +0.000 OA
ATOM      2  C   UNL     1       7.010   5.425  17.805  0.00  0.00    +0.000 C 
ENDROOT
BRANCH   2   3
ATOM      3  C   UNL     1       6.801   4.764  16.496  0.00  0.00    +0.000 C 
ATOM      4  C   UNL     1       7.102   5.334  15.320  0.00  0.00    +0.000 C 
BRANCH   4   5
ATOM      5  C   UNL     1       6.827   4.676  14.092  0.00  0.00    +0.000 A 
ATOM      6  C   UNL     1       5.838   3.736  13.820  0.00  0.00    +0.000 A 
ATOM      7  C   UNL     1       5.954   3.359  12.461  0.00  0.00    +0.000 A 
ATOM      8  C   UNL     1       7.008   4.082  11.963  0.00  0.00    +0.000 A 
ATOM      9  O   UNL     1       7.537   4.872  12.928  0.00  0.00    +0.000 OA
ENDBRANCH   4   5
ENDBRANCH   2   3
BRANCH   2  10
ATOM     10  O   UNL     1       6.624   4.587  18.838  0.00  0.00    +0.000 OA
BRANCH  10  11
ATOM     11  C   UNL     1       5.266   4.452  19.165  0.00  0.00    +0.000 A 
ATOM     12  C   UNL     1       4.548   5.618  19.399  0.00  0.00    +0.000 A 
ATOM     13  N   UNL     1       3.206   5.646  19.572  0.00  0.00    +0.000 NA
ATOM     14  C   UNL     1       2.566   4.453  19.497  0.00  0.00    +0.000 A 
ATOM     15  C   UNL     1       3.208   3.242  19.269  0.00  0.00    +0.000 A 
ATOM     16 CL   UNL     1       2.314   1.781  19.157  0.00  0.00    +0.000 Cl
ATOM     17  C   UNL     1       4.588   3.239  19.098  0.00  0.00    +0.000 A 
ENDBRANCH  10  11
ENDBRANCH   2  10
TORSDOF 4
ENDMDL
MODEL 9
REMARK VINA RESULT:      -6.2      3.619      6.399
REMARK  Name = 
REMARK  4 active torsions:
REMARK  status: ('A' for Active; 'I' for Inactive)
REMARK    1  A    between atoms: C_2  and  C_3
REMARK    2  A    between atoms: C_2  and  O_10
REMARK    3  A    between atoms: C_4  and  C_5
REMARK    4  A    between atoms: O_10  and  C_11
REMARK                            x       y       z     vdW  Elec       q    Type
REMARK                         _______ _______ _______ _____ _____    ______ ____
ROOT
ATOM      1  O   UNL     1       5.965   4.559  19.426  0.00  0.00    +0.000 OA
ATOM      2  C   UNL     1       5.008   4.765  18.696  0.00  0.00    +0.000 C 
ENDROOT
BRANCH   2   3
ATOM      3  C   UNL     1       3.982   5.791  18.994  0.00  0.00    +0.000 C 
ATOM      4  C   UNL     1       3.560   6.699  18.101  0.00  0.00    +0.000 C 
BRANCH   4   5
ATOM      5  C   UNL     1       2.615   7.697  18.459  0.00  0.00    +0.000 A 
ATOM      6  C   UNL     1       2.078   8.701  17.661  0.00  0.00    +0.000 A 
ATOM      7  C   UNL     1       1.182   9.458  18.453  0.00  0.00    +0.000 A 
ATOM      8  C   UNL     1       1.213   8.886  19.699  0.00  0.00    +0.000 A 
ATOM      9  O   UNL     1       2.065   7.832  19.715  0.00  0.00    +0.000 OA
ENDBRANCH   4   5
ENDBRANCH   2   3
BRANCH   2  10
ATOM     10  O   UNL     1       4.727   4.132  17.496  0.00  0.00    +0.000 OA
BRANCH  10  11
ATOM     11  C   UNL     1       5.472   4.439  16.348  0.00  0.00    +0.000 A 
ATOM     12  C   UNL     1       6.645   5.163  16.524  0.00  0.00    +0.000 A 
ATOM     13  N   UNL     1       7.534   5.396  15.531  0.00  0.00    +0.000 NA
ATOM     14  C   UNL     1       7.232   4.870  14.318  0.00  0.00    +0.000 A 
ATOM     15  C   UNL     1       6.081   4.136  14.057  0.00  0.00    +0.000 A 
ATOM     16 CL   UNL     1       5.793   3.479  12.497  0.00  0.00    +0.000 Cl
ATOM     17  C   UNL     1       5.181   3.914  15.093  0.00  0.00    +0.000 A 
ENDBRANCH  10  11
ENDBRANCH   2  10
TORSDOF 4
ENDMDL
