MODEL 1
REMARK VINA RESULT:      -8.7      0.000      0.000
REMARK  Name = 
REMARK  9 active torsions:
REMARK  status: ('A' for Active; 'I' for Inactive)
REMARK    1  A    between atoms: C_2  and  C_3
REMARK    2  A    between atoms: C_3  and  O_4
REMARK    3  A    between atoms: O_4  and  C_5
REMARK    4  A    between atoms: C_5  and  C_7
REMARK    5  A    between atoms: C_8  and  C_9
REMARK    6  A    between atoms: C_13  and  C_14
REMARK    7  A    between atoms: N_19  and  C_20
REMARK    8  A    between atoms: C_24  and  S_25
REMARK    9  A    between atoms: S_25  and  N_28
REMARK                            x       y       z     vdW  Elec       q    Type
REMARK                         _______ _______ _______ _____ _____    ______ ____
ROOT
ATOM      1  O   UNL     1       0.621   4.546  20.024  0.00  0.00    +0.000 OA
ATOM      2  C   UNL     1       1.674   4.696  20.642  0.00  0.00    +0.000 C 
ATOM      3  N   UNL     1       2.505   5.810  20.570  0.00  0.00    +0.000 N 
ATOM      4  H   UNL     1       3.414   5.756  21.016  0.00  0.00    +0.000 HD
ENDROOT
BRANCH   3   5
ATOM      5  C   UNL     1       2.205   7.028  19.905  0.00  0.00    +0.000 A 
ATOM      6  C   UNL     1       2.510   7.234  18.557  0.00  0.00    +0.000 A 
ATOM      7  C   UNL     1       2.162   8.422  17.908  0.00  0.00    +0.000 A 
ATOM      8  C   UNL     1       1.489   9.428  18.596  0.00  0.00    +0.000 A 
ATOM      9  C   UNL     1       1.189   9.240  19.946  0.00  0.00    +0.000 A 
ATOM     10  C   UNL     1       1.544   8.047  20.608  0.00  0.00    +0.000 A 
BRANCH   9  11
ATOM     11  S   UNL     1       0.364  10.546  20.828  0.00  0.00    +0.000 S 
ATOM     12  O   UNL     1      -0.718   9.944  21.578  0.00  0.00    +0.000 OA
ATOM     13  O   UNL     1       1.358  11.361  21.501  0.00  0.00    +0.000 OA
BRANCH  11  14
ATOM     14  N   UNL     1      -0.358  11.546  19.685  0.00  0.00    +0.000 N 
ATOM     15  C   UNL     1      -1.269  11.082  18.744  0.00  0.00    +0.000 C 
ATOM     16  N   UNL     1      -1.993  10.039  18.965  0.00  0.00    +0.000 NA
ATOM     17  C   UNL     1      -2.788   9.821  17.749  0.00  0.00    +0.000 C 
ATOM     18  C   UNL     1      -2.731  11.131  16.988  0.00  0.00    +0.000 C 
ATOM     19  C   UNL     1      -1.423  11.755  17.427  0.00  0.00    +0.000 C 
ATOM     20  H   UNL     1       0.212  12.363  19.493  0.00  0.00    +0.000 HD
ENDBRANCH  11  14
ENDBRANCH   9  11
ENDBRANCH   3   5
BRANCH   2  21
ATOM     21  C   UNL     1       2.199   3.576  21.548  0.00  0.00    +0.000 C 
BRANCH  21  22
ATOM     22  O   UNL     1       3.314   2.880  20.983  0.00  0.00    +0.000 OA
BRANCH  22  23
ATOM     23  C   UNL     1       3.067   2.388  19.748  0.00  0.00    +0.000 C 
ATOM     24  O   UNL     1       2.110   1.690  19.429  0.00  0.00    +0.000 OA
BRANCH  23  25
ATOM     25  C   UNL     1       4.182   2.754  18.856  0.00  0.00    +0.000 C 
ATOM     26  C   UNL     1       4.135   3.900  18.158  0.00  0.00    +0.000 C 
BRANCH  26  27
ATOM     27  C   UNL     1       5.168   4.302  17.195  0.00  0.00    +0.000 A 
ATOM     28  C   UNL     1       6.207   5.144  17.610  0.00  0.00    +0.000 A 
ATOM     29  C   UNL     1       7.185   5.564  16.706  0.00  0.00    +0.000 A 
ATOM     30  C   UNL     1       7.128   5.160  15.373  0.00  0.00    +0.000 A 
ATOM     31  C   UNL     1       6.086   4.338  14.928  0.00  0.00    +0.000 A 
ATOM     32  C   UNL     1       5.109   3.921  15.847  0.00  0.00    +0.000 A 
BRANCH  31  33
ATOM     33  C   UNL     1       5.990   3.906  13.487  0.00  0.00    +0.000 C 
ATOM     34  F   UNL     1       4.757   4.101  12.940  0.00  0.00    +0.000 F 
ATOM     35  F   UNL     1       6.864   4.573  12.684  0.00  0.00    +0.000 F 
ATOM     36  F   UNL     1       6.266   2.583  13.320  0.00  0.00    +0.000 F 
ENDBRANCH  31  33
ENDBRANCH  26  27
ENDBRANCH  23  25
ENDBRANCH  22  23
ENDBRANCH  21  22
ENDBRANCH   2  21
TORSDOF 9
ENDMDL
MODEL 2
REMARK VINA RESULT:      -8.5      0.815      1.229
REMARK  Name = 
REMARK  9 active torsions:
REMARK  status: ('A' for Active; 'I' for Inactive)
REMARK    1  A    between atoms: C_2  and  C_3
REMARK    2  A    between atoms: C_3  and  O_4
REMARK    3  A    between atoms: O_4  and  C_5
REMARK    4  A    between atoms: C_5  and  C_7
REMARK    5  A    between atoms: C_8  and  C_9
REMARK    6  A    between atoms: C_13  and  C_14
REMARK    7  A    between atoms: N_19  and  C_20
REMARK    8  A    between atoms: C_24  and  S_25
REMARK    9  A    between atoms: S_25  and  N_28
REMARK                            x       y       z     vdW  Elec       q    Type
REMARK                         _______ _______ _______ _____ _____    ______ ____
ROOT
ATOM      1  O   UNL     1       0.499   4.928  20.248  0.00  0.00    +0.000 OA
ATOM      2  C   UNL     1       1.682   4.968  20.585  0.00  0.00    +0.000 C 
ATOM      3  N   UNL     1       2.579   5.987  20.275  0.00  0.00    +0.000 N 
ATOM      4  H   UNL     1       3.559   5.838  20.486  0.00  0.00    +0.000 HD
ENDROOT
BRANCH   3   5
ATOM      5  C   UNL     1       2.249   7.226  19.666  0.00  0.00    +0.000 A 
ATOM      6  C   UNL     1       2.551   7.500  18.329  0.00  0.00    +0.000 A 
ATOM      7  C   UNL     1       2.175   8.708  17.734  0.00  0.00    +0.000 A 
ATOM      8  C   UNL     1       1.477   9.664  18.465  0.00  0.00    +0.000 A 
ATOM      9  C   UNL     1       1.180   9.408  19.804  0.00  0.00    +0.000 A 
ATOM     10  C   UNL     1       1.562   8.195  20.412  0.00  0.00    +0.000 A 
BRANCH   9  11
ATOM     11  S   UNL     1       0.321  10.652  20.742  0.00  0.00    +0.000 S 
ATOM     12  O   UNL     1      -0.698   9.979  21.521  0.00  0.00    +0.000 OA
ATOM     13  O   UNL     1       1.295  11.507  21.393  0.00  0.00    +0.000 OA
BRANCH  11  14
ATOM     14  N   UNL     1      -0.498  11.631  19.648  0.00  0.00    +0.000 N 
ATOM     15  C   UNL     1      -1.388  11.130  18.705  0.00  0.00    +0.000 C 
ATOM     16  N   UNL     1      -2.025  10.027  18.900  0.00  0.00    +0.000 NA
ATOM     17  C   UNL     1      -2.824   9.789  17.690  0.00  0.00    +0.000 C 
ATOM     18  C   UNL     1      -2.882  11.125  16.976  0.00  0.00    +0.000 C 
ATOM     19  C   UNL     1      -1.618  11.834  17.416  0.00  0.00    +0.000 C 
ATOM     20  H   UNL     1       0.004  12.496  19.475  0.00  0.00    +0.000 HD
ENDBRANCH  11  14
ENDBRANCH   9  11
ENDBRANCH   3   5
BRANCH   2  21
ATOM     21  C   UNL     1       2.296   3.803  21.369  0.00  0.00    +0.000 C 
BRANCH  21  22
ATOM     22  O   UNL     1       2.614   2.681  20.541  0.00  0.00    +0.000 OA
BRANCH  22  23
ATOM     23  C   UNL     1       3.922   2.338  20.584  0.00  0.00    +0.000 C 
ATOM     24  O   UNL     1       4.470   1.701  21.476  0.00  0.00    +0.000 OA
BRANCH  23  25
ATOM     25  C   UNL     1       4.608   2.930  19.421  0.00  0.00    +0.000 C 
ATOM     26  C   UNL     1       5.313   4.065  19.562  0.00  0.00    +0.000 C 
BRANCH  26  27
ATOM     27  C   UNL     1       5.964   4.757  18.443  0.00  0.00    +0.000 A 
ATOM     28  C   UNL     1       6.739   5.896  18.695  0.00  0.00    +0.000 A 
ATOM     29  C   UNL     1       7.345   6.589  17.644  0.00  0.00    +0.000 A 
ATOM     30  C   UNL     1       7.172   6.159  16.329  0.00  0.00    +0.000 A 
ATOM     31  C   UNL     1       6.383   5.037  16.050  0.00  0.00    +0.000 A 
ATOM     32  C   UNL     1       5.779   4.348  17.115  0.00  0.00    +0.000 A 
BRANCH  31  33
ATOM     33  C   UNL     1       6.162   4.567  14.635  0.00  0.00    +0.000 C 
ATOM     34  F   UNL     1       7.039   5.101  13.740  0.00  0.00    +0.000 F 
ATOM     35  F   UNL     1       6.279   3.216  14.511  0.00  0.00    +0.000 F 
ATOM     36  F   UNL     1       4.920   4.877  14.170  0.00  0.00    +0.000 F 
ENDBRANCH  31  33
ENDBRANCH  26  27
ENDBRANCH  23  25
ENDBRANCH  22  23
ENDBRANCH  21  22
ENDBRANCH   2  21
TORSDOF 9
ENDMDL
MODEL 3
REMARK VINA RESULT:      -8.5      1.415      1.841
REMARK  Name = 
REMARK  9 active torsions:
REMARK  status: ('A' for Active; 'I' for Inactive)
REMARK    1  A    between atoms: C_2  and  C_3
REMARK    2  A    between atoms: C_3  and  O_4
REMARK    3  A    between atoms: O_4  and  C_5
REMARK    4  A    between atoms: C_5  and  C_7
REMARK    5  A    between atoms: C_8  and  C_9
REMARK    6  A    between atoms: C_13  and  C_14
REMARK    7  A    between atoms: N_19  and  C_20
REMARK    8  A    between atoms: C_24  and  S_25
REMARK    9  A    between atoms: S_25  and  N_28
REMARK                            x       y       z     vdW  Elec       q    Type
REMARK                         _______ _______ _______ _____ _____    ______ ____
ROOT
ATOM      1  O   UNL     1       1.215   4.194  17.829  0.00  0.00    +0.000 OA
ATOM      2  C   UNL     1       1.468   4.317  19.027  0.00  0.00    +0.000 C 
ATOM      3  N   UNL     1       2.012   5.448  19.629  0.00  0.00    +0.000 N 
ATOM      4  H   UNL     1       2.306   5.378  20.596  0.00  0.00    +0.000 HD
ENDROOT
BRANCH   3   5
ATOM      5  C   UNL     1       2.213   6.706  19.002  0.00  0.00    +0.000 A 
ATOM      6  C   UNL     1       3.241   6.921  18.080  0.00  0.00    +0.000 A 
ATOM      7  C   UNL     1       3.393   8.154  17.438  0.00  0.00    +0.000 A 
ATOM      8  C   UNL     1       2.507   9.195  17.698  0.00  0.00    +0.000 A 
ATOM      9  C   UNL     1       1.484   8.998  18.626  0.00  0.00    +0.000 A 
ATOM     10  C   UNL     1       1.330   7.760  19.282  0.00  0.00    +0.000 A 
BRANCH   9  11
ATOM     11  S   UNL     1       0.381  10.347  18.981  0.00  0.00    +0.000 S 
ATOM     12  O   UNL     1      -0.305  10.030  20.216  0.00  0.00    +0.000 OA
ATOM     13  O   UNL     1       1.105  11.597  18.844  0.00  0.00    +0.000 OA
BRANCH  11  14
ATOM     14  N   UNL     1      -0.799  10.361  17.783  0.00  0.00    +0.000 N 
ATOM     15  C   UNL     1      -2.084  10.848  17.993  0.00  0.00    +0.000 C 
ATOM     16  N   UNL     1      -2.326  11.744  18.887  0.00  0.00    +0.000 NA
ATOM     17  C   UNL     1      -3.777  11.974  18.860  0.00  0.00    +0.000 C 
ATOM     18  C   UNL     1      -4.252  11.406  17.538  0.00  0.00    +0.000 C 
ATOM     19  C   UNL     1      -3.238  10.329  17.214  0.00  0.00    +0.000 C 
ATOM     20  H   UNL     1      -0.625   9.648  17.082  0.00  0.00    +0.000 HD
ENDBRANCH  11  14
ENDBRANCH   9  11
ENDBRANCH   3   5
BRANCH   2  21
ATOM     21  C   UNL     1       1.237   3.143  19.985  0.00  0.00    +0.000 C 
BRANCH  21  22
ATOM     22  O   UNL     1       2.152   2.063  19.774  0.00  0.00    +0.000 OA
BRANCH  22  23
ATOM     23  C   UNL     1       3.359   2.266  20.348  0.00  0.00    +0.000 C 
ATOM     24  O   UNL     1       3.634   2.086  21.529  0.00  0.00    +0.000 OA
BRANCH  23  25
ATOM     25  C   UNL     1       4.279   2.822  19.340  0.00  0.00    +0.000 C 
ATOM     26  C   UNL     1       4.933   3.969  19.586  0.00  0.00    +0.000 C 
BRANCH  26  27
ATOM     27  C   UNL     1       5.809   4.627  18.609  0.00  0.00    +0.000 A 
ATOM     28  C   UNL     1       6.720   5.598  19.044  0.00  0.00    +0.000 A 
ATOM     29  C   UNL     1       7.544   6.259  18.131  0.00  0.00    +0.000 A 
ATOM     30  C   UNL     1       7.458   5.967  16.769  0.00  0.00    +0.000 A 
ATOM     31  C   UNL     1       6.538   5.019  16.307  0.00  0.00    +0.000 A 
ATOM     32  C   UNL     1       5.715   4.360  17.236  0.00  0.00    +0.000 A 
BRANCH  31  33
ATOM     33  C   UNL     1       6.410   4.703  14.839  0.00  0.00    +0.000 C 
ATOM     34  F   UNL     1       7.459   5.145  14.092  0.00  0.00    +0.000 F 
ATOM     35  F   UNL     1       6.319   3.365  14.600  0.00  0.00    +0.000 F 
ATOM     36  F   UNL     1       5.297   5.256  14.282  0.00  0.00    +0.000 F 
ENDBRANCH  31  33
ENDBRANCH  26  27
ENDBRANCH  23  25
ENDBRANCH  22  23
ENDBRANCH  21  22
ENDBRANCH   2  21
TORSDOF 9
ENDMDL
MODEL 4
REMARK VINA RESULT:      -8.4      1.709      2.233
REMARK  Name = 
REMARK  9 active torsions:
REMARK  status: ('A' for Active; 'I' for Inactive)
REMARK    1  A    between atoms: C_2  and  C_3
REMARK    2  A    between atoms: C_3  and  O_4
REMARK    3  A    between atoms: O_4  and  C_5
REMARK    4  A    between atoms: C_5  and  C_7
REMARK    5  A    between atoms: C_8  and  C_9
REMARK    6  A    between atoms: C_13  and  C_14
REMARK    7  A    between atoms: N_19  and  C_20
REMARK    8  A    between atoms: C_24  and  S_25
REMARK    9  A    between atoms: S_25  and  N_28
REMARK                            x       y       z     vdW  Elec       q    Type
REMARK                         _______ _______ _______ _____ _____    ______ ____
ROOT
ATOM      1  O   UNL     1       0.620   4.810  20.437  0.00  0.00    +0.000 OA
ATOM      2  C   UNL     1       1.823   4.912  20.671  0.00  0.00    +0.000 C 
ATOM      3  N   UNL     1       2.634   5.981  20.299  0.00  0.00    +0.000 N 
ATOM      4  H   UNL     1       3.635   5.884  20.423  0.00  0.00    +0.000 HD
ENDROOT
BRANCH   3   5
ATOM      5  C   UNL     1       2.186   7.205  19.736  0.00  0.00    +0.000 A 
ATOM      6  C   UNL     1       2.426   7.541  18.401  0.00  0.00    +0.000 A 
ATOM      7  C   UNL     1       1.935   8.730  17.853  0.00  0.00    +0.000 A 
ATOM      8  C   UNL     1       1.182   9.604  18.632  0.00  0.00    +0.000 A 
ATOM      9  C   UNL     1       0.945   9.286  19.970  0.00  0.00    +0.000 A 
ATOM     10  C   UNL     1       1.443   8.092  20.529  0.00  0.00    +0.000 A 
BRANCH   9  11
ATOM     11  S   UNL     1       0.015  10.427  20.967  0.00  0.00    +0.000 S 
ATOM     12  O   UNL     1      -1.060  10.942  20.145  0.00  0.00    +0.000 OA
ATOM     13  O   UNL     1      -0.274   9.807  22.247  0.00  0.00    +0.000 OA
BRANCH  11  14
ATOM     14  N   UNL     1       1.016  11.735  21.302  0.00  0.00    +0.000 N 
ATOM     15  C   UNL     1       1.291  12.733  20.374  0.00  0.00    +0.000 C 
ATOM     16  N   UNL     1       0.465  13.017  19.427  0.00  0.00    +0.000 NA
ATOM     17  C   UNL     1       1.102  14.069  18.623  0.00  0.00    +0.000 C 
ATOM     18  C   UNL     1       2.201  14.638  19.499  0.00  0.00    +0.000 C 
ATOM     19  C   UNL     1       2.569  13.492  20.419  0.00  0.00    +0.000 C 
ATOM     20  H   UNL     1       1.681  11.516  22.036  0.00  0.00    +0.000 HD
ENDBRANCH  11  14
ENDBRANCH   9  11
ENDBRANCH   3   5
BRANCH   2  21
ATOM     21  C   UNL     1       2.566   3.776  21.385  0.00  0.00    +0.000 C 
BRANCH  21  22
ATOM     22  O   UNL     1       2.919   2.704  20.506  0.00  0.00    +0.000 OA
BRANCH  22  23
ATOM     23  C   UNL     1       4.252   2.484  20.440  0.00  0.00    +0.000 C 
ATOM     24  O   UNL     1       4.890   1.711  21.147  0.00  0.00    +0.000 OA
BRANCH  23  25
ATOM     25  C   UNL     1       4.836   3.388  19.433  0.00  0.00    +0.000 C 
ATOM     26  C   UNL     1       4.266   3.505  18.223  0.00  0.00    +0.000 C 
BRANCH  26  27
ATOM     27  C   UNL     1       4.825   4.326  17.142  0.00  0.00    +0.000 A 
ATOM     28  C   UNL     1       5.032   5.695  17.353  0.00  0.00    +0.000 A 
ATOM     29  C   UNL     1       5.535   6.503  16.331  0.00  0.00    +0.000 A 
ATOM     30  C   UNL     1       5.824   5.955  15.081  0.00  0.00    +0.000 A 
ATOM     31  C   UNL     1       5.602   4.595  14.838  0.00  0.00    +0.000 A 
ATOM     32  C   UNL     1       5.097   3.792  15.874  0.00  0.00    +0.000 A 
BRANCH  31  33
ATOM     33  C   UNL     1       5.884   3.984  13.489  0.00  0.00    +0.000 C 
ATOM     34  F   UNL     1       4.778   3.858  12.704  0.00  0.00    +0.000 F 
ATOM     35  F   UNL     1       6.776   4.713  12.763  0.00  0.00    +0.000 F 
ATOM     36  F   UNL     1       6.417   2.734  13.584  0.00  0.00    +0.000 F 
ENDBRANCH  31  33
ENDBRANCH  26  27
ENDBRANCH  23  25
ENDBRANCH  22  23
ENDBRANCH  21  22
ENDBRANCH   2  21
TORSDOF 9
ENDMDL
MODEL 5
REMARK VINA RESULT:      -8.4      2.745      3.481
REMARK  Name = 
REMARK  9 active torsions:
REMARK  status: ('A' for Active; 'I' for Inactive)
REMARK    1  A    between atoms: C_2  and  C_3
REMARK    2  A    between atoms: C_3  and  O_4
REMARK    3  A    between atoms: O_4  and  C_5
REMARK    4  A    between atoms: C_5  and  C_7
REMARK    5  A    between atoms: C_8  and  C_9
REMARK    6  A    between atoms: C_13  and  C_14
REMARK    7  A    between atoms: N_19  and  C_20
REMARK    8  A    between atoms: C_24  and  S_25
REMARK    9  A    between atoms: S_25  and  N_28
REMARK                            x       y       z     vdW  Elec       q    Type
REMARK                         _______ _______ _______ _____ _____    ______ ____
ROOT
ATOM      1  O   UNL     1       1.988   7.561  19.576  0.00  0.00    +0.000 OA
ATOM      2  C   UNL     1       1.616   6.964  20.586  0.00  0.00    +0.000 C 
ATOM      3  N   UNL     1       0.953   7.535  21.668  0.00  0.00    +0.000 N 
ATOM      4  H   UNL     1       0.826   6.971  22.500  0.00  0.00    +0.000 HD
ENDROOT
BRANCH   3   5
ATOM      5  C   UNL     1       0.444   8.859  21.724  0.00  0.00    +0.000 A 
ATOM      6  C   UNL     1      -0.228   9.350  22.846  0.00  0.00    +0.000 A 
ATOM      7  C   UNL     1      -0.679  10.672  22.901  0.00  0.00    +0.000 A 
ATOM      8  C   UNL     1      -0.455  11.536  21.833  0.00  0.00    +0.000 A 
ATOM      9  C   UNL     1       0.204  11.055  20.701  0.00  0.00    +0.000 A 
ATOM     10  C   UNL     1       0.655   9.721  20.638  0.00  0.00    +0.000 A 
BRANCH   9  11
ATOM     11  S   UNL     1       0.453  12.155  19.326  0.00  0.00    +0.000 S 
ATOM     12  O   UNL     1      -0.348  13.336  19.567  0.00  0.00    +0.000 OA
ATOM     13  O   UNL     1       1.876  12.274  19.068  0.00  0.00    +0.000 OA
BRANCH  11  14
ATOM     14  N   UNL     1      -0.204  11.415  17.966  0.00  0.00    +0.000 N 
ATOM     15  C   UNL     1      -1.558  11.127  17.842  0.00  0.00    +0.000 C 
ATOM     16  N   UNL     1      -2.451  11.811  18.469  0.00  0.00    +0.000 NA
ATOM     17  C   UNL     1      -3.747  11.199  18.144  0.00  0.00    +0.000 C 
ATOM     18  C   UNL     1      -3.496  10.354  16.910  0.00  0.00    +0.000 C 
ATOM     19  C   UNL     1      -2.028   9.993  17.003  0.00  0.00    +0.000 C 
ATOM     20  H   UNL     1       0.489  10.860  17.474  0.00  0.00    +0.000 HD
ENDBRANCH  11  14
ENDBRANCH   9  11
ENDBRANCH   3   5
BRANCH   2  21
ATOM     21  C   UNL     1       1.926   5.472  20.752  0.00  0.00    +0.000 C 
BRANCH  21  22
ATOM     22  O   UNL     1       0.891   4.628  20.236  0.00  0.00    +0.000 OA
BRANCH  22  23
ATOM     23  C   UNL     1       1.331   3.754  19.302  0.00  0.00    +0.000 C 
ATOM     24  O   UNL     1       0.693   2.817  18.837  0.00  0.00    +0.000 OA
BRANCH  23  25
ATOM     25  C   UNL     1       2.740   4.056  18.992  0.00  0.00    +0.000 C 
ATOM     26  C   UNL     1       3.142   4.145  17.714  0.00  0.00    +0.000 C 
BRANCH  26  27
ATOM     27  C   UNL     1       4.539   4.369  17.319  0.00  0.00    +0.000 A 
ATOM     28  C   UNL     1       4.958   4.010  16.032  0.00  0.00    +0.000 A 
ATOM     29  C   UNL     1       6.287   4.187  15.642  0.00  0.00    +0.000 A 
ATOM     30  C   UNL     1       7.217   4.713  16.540  0.00  0.00    +0.000 A 
ATOM     31  C   UNL     1       6.828   5.057  17.839  0.00  0.00    +0.000 A 
ATOM     32  C   UNL     1       5.488   4.875  18.219  0.00  0.00    +0.000 A 
BRANCH  31  33
ATOM     33  C   UNL     1       7.819   5.605  18.834  0.00  0.00    +0.000 C 
ATOM     34  F   UNL     1       8.329   6.818  18.484  0.00  0.00    +0.000 F 
ATOM     35  F   UNL     1       7.276   5.771  20.072  0.00  0.00    +0.000 F 
ATOM     36  F   UNL     1       8.893   4.785  19.006  0.00  0.00    +0.000 F 
ENDBRANCH  31  33
ENDBRANCH  26  27
ENDBRANCH  23  25
ENDBRANCH  22  23
ENDBRANCH  21  22
ENDBRANCH   2  21
TORSDOF 9
ENDMDL
MODEL 6
REMARK VINA RESULT:      -8.3      2.677      3.415
REMARK  Name = 
REMARK  9 active torsions:
REMARK  status: ('A' for Active; 'I' for Inactive)
REMARK    1  A    between atoms: C_2  and  C_3
REMARK    2  A    between atoms: C_3  and  O_4
REMARK    3  A    between atoms: O_4  and  C_5
REMARK    4  A    between atoms: C_5  and  C_7
REMARK    5  A    between atoms: C_8  and  C_9
REMARK    6  A    between atoms: C_13  and  C_14
REMARK    7  A    between atoms: N_19  and  C_20
REMARK    8  A    between atoms: C_24  and  S_25
REMARK    9  A    between atoms: S_25  and  N_28
REMARK                            x       y       z     vdW  Elec       q    Type
REMARK                         _______ _______ _______ _____ _____    ______ ____
ROOT
ATOM      1  O   UNL     1       0.976   4.461  19.562  0.00  0.00    +0.000 OA
ATOM      2  C   UNL     1       1.819   4.727  20.418  0.00  0.00    +0.000 C 
ATOM      3  N   UNL     1       2.510   5.930  20.529  0.00  0.00    +0.000 N 
ATOM      4  H   UNL     1       3.280   5.977  21.187  0.00  0.00    +0.000 HD
ENDROOT
BRANCH   3   5
ATOM      5  C   UNL     1       2.248   7.110  19.785  0.00  0.00    +0.000 A 
ATOM      6  C   UNL     1       2.613   7.238  18.442  0.00  0.00    +0.000 A 
ATOM      7  C   UNL     1       2.302   8.390  17.713  0.00  0.00    +0.000 A 
ATOM      8  C   UNL     1       1.607   9.435  18.313  0.00  0.00    +0.000 A 
ATOM      9  C   UNL     1       1.246   9.325  19.656  0.00  0.00    +0.000 A 
ATOM     10  C   UNL     1       1.563   8.169  20.399  0.00  0.00    +0.000 A 
BRANCH   9  11
ATOM     11  S   UNL     1       0.392  10.682  20.426  0.00  0.00    +0.000 S 
ATOM     12  O   UNL     1      -0.967  10.249  20.678  0.00  0.00    +0.000 OA
ATOM     13  O   UNL     1       1.209  11.200  21.508  0.00  0.00    +0.000 OA
BRANCH  11  14
ATOM     14  N   UNL     1       0.286  11.918  19.292  0.00  0.00    +0.000 N 
ATOM     15  C   UNL     1       1.144  13.012  19.284  0.00  0.00    +0.000 C 
ATOM     16  N   UNL     1       2.334  12.937  19.773  0.00  0.00    +0.000 NA
ATOM     17  C   UNL     1       2.922  14.277  19.639  0.00  0.00    +0.000 C 
ATOM     18  C   UNL     1       2.062  14.996  18.619  0.00  0.00    +0.000 C 
ATOM     19  C   UNL     1       0.710  14.325  18.739  0.00  0.00    +0.000 C 
ATOM     20  H   UNL     1      -0.652  11.995  18.912  0.00  0.00    +0.000 HD
ENDBRANCH  11  14
ENDBRANCH   9  11
ENDBRANCH   3   5
BRANCH   2  21
ATOM     21  C   UNL     1       2.226   3.668  21.449  0.00  0.00    +0.000 C 
BRANCH  21  22
ATOM     22  O   UNL     1       2.635   2.435  20.849  0.00  0.00    +0.000 OA
BRANCH  22  23
ATOM     23  C   UNL     1       3.946   2.411  20.517  0.00  0.00    +0.000 C 
ATOM     24  O   UNL     1       4.822   1.774  21.090  0.00  0.00    +0.000 OA
BRANCH  23  25
ATOM     25  C   UNL     1       4.172   3.346  19.400  0.00  0.00    +0.000 C 
ATOM     26  C   UNL     1       5.372   3.928  19.243  0.00  0.00    +0.000 C 
BRANCH  26  27
ATOM     27  C   UNL     1       5.659   4.923  18.203  0.00  0.00    +0.000 A 
ATOM     28  C   UNL     1       5.067   4.791  16.940  0.00  0.00    +0.000 A 
ATOM     29  C   UNL     1       5.346   5.708  15.925  0.00  0.00    +0.000 A 
ATOM     30  C   UNL     1       6.231   6.762  16.156  0.00  0.00    +0.000 A 
ATOM     31  C   UNL     1       6.854   6.901  17.401  0.00  0.00    +0.000 A 
ATOM     32  C   UNL     1       6.565   5.973  18.415  0.00  0.00    +0.000 A 
BRANCH  31  33
ATOM     33  C   UNL     1       7.831   8.018  17.668  0.00  0.00    +0.000 C 
ATOM     34  F   UNL     1       7.238   9.230  17.851  0.00  0.00    +0.000 F 
ATOM     35  F   UNL     1       8.582   7.797  18.782  0.00  0.00    +0.000 F 
ATOM     36  F   UNL     1       8.719   8.187  16.649  0.00  0.00    +0.000 F 
ENDBRANCH  31  33
ENDBRANCH  26  27
ENDBRANCH  23  25
ENDBRANCH  22  23
ENDBRANCH  21  22
ENDBRANCH   2  21
TORSDOF 9
ENDMDL
MODEL 7
REMARK VINA RESULT:      -8.2      3.595      4.988
REMARK  Name = 
REMARK  9 active torsions:
REMARK  status: ('A' for Active; 'I' for Inactive)
REMARK    1  A    between atoms: C_2  and  C_3
REMARK    2  A    between atoms: C_3  and  O_4
REMARK    3  A    between atoms: O_4  and  C_5
REMARK    4  A    between atoms: C_5  and  C_7
REMARK    5  A    between atoms: C_8  and  C_9
REMARK    6  A    between atoms: C_13  and  C_14
REMARK    7  A    between atoms: N_19  and  C_20
REMARK    8  A    between atoms: C_24  and  S_25
REMARK    9  A    between atoms: S_25  and  N_28
REMARK                            x       y       z     vdW  Elec       q    Type
REMARK                         _______ _______ _______ _____ _____    ______ ____
ROOT
ATOM      1  O   UNL     1       5.694   7.149  17.645  0.00  0.00    +0.000 OA
ATOM      2  C   UNL     1       4.894   6.986  16.726  0.00  0.00    +0.000 C 
ATOM      3  N   UNL     1       3.507   7.047  16.837  0.00  0.00    +0.000 N 
ATOM      4  H   UNL     1       2.953   6.754  16.040  0.00  0.00    +0.000 HD
ENDROOT
BRANCH   3   5
ATOM      5  C   UNL     1       2.785   7.470  17.983  0.00  0.00    +0.000 A 
ATOM      6  C   UNL     1       2.882   6.808  19.209  0.00  0.00    +0.000 A 
ATOM      7  C   UNL     1       2.200   7.269  20.339  0.00  0.00    +0.000 A 
ATOM      8  C   UNL     1       1.412   8.413  20.265  0.00  0.00    +0.000 A 
ATOM      9  C   UNL     1       1.296   9.078  19.044  0.00  0.00    +0.000 A 
ATOM     10  C   UNL     1       1.976   8.614  17.900  0.00  0.00    +0.000 A 
BRANCH   9  11
ATOM     11  S   UNL     1       0.256  10.518  18.949  0.00  0.00    +0.000 S 
ATOM     12  O   UNL     1      -0.656  10.466  20.072  0.00  0.00    +0.000 OA
ATOM     13  O   UNL     1       1.089  11.687  18.733  0.00  0.00    +0.000 OA
BRANCH  11  14
ATOM     14  N   UNL     1      -0.692  10.363  17.569  0.00  0.00    +0.000 N 
ATOM     15  C   UNL     1      -2.038  10.709  17.535  0.00  0.00    +0.000 C 
ATOM     16  N   UNL     1      -2.524  11.599  18.329  0.00  0.00    +0.000 NA
ATOM     17  C   UNL     1      -3.964  11.665  18.046  0.00  0.00    +0.000 C 
ATOM     18  C   UNL     1      -4.141  11.006  16.692  0.00  0.00    +0.000 C 
ATOM     19  C   UNL     1      -2.979  10.040  16.598  0.00  0.00    +0.000 C 
ATOM     20  H   UNL     1      -0.326   9.652  16.944  0.00  0.00    +0.000 HD
ENDBRANCH  11  14
ENDBRANCH   9  11
ENDBRANCH   3   5
BRANCH   2  21
ATOM     21  C   UNL     1       5.399   6.629  15.323  0.00  0.00    +0.000 C 
BRANCH  21  22
ATOM     22  O   UNL     1       6.502   5.717  15.343  0.00  0.00    +0.000 OA
BRANCH  22  23
ATOM     23  C   UNL     1       6.127   4.423  15.237  0.00  0.00    +0.000 C 
ATOM     24  O   UNL     1       6.027   3.785  14.194  0.00  0.00    +0.000 OA
BRANCH  23  25
ATOM     25  C   UNL     1       5.772   3.917  16.575  0.00  0.00    +0.000 C 
ATOM     26  C   UNL     1       4.483   3.750  16.911  0.00  0.00    +0.000 C 
BRANCH  26  27
ATOM     27  C   UNL     1       4.043   3.322  18.245  0.00  0.00    +0.000 A 
ATOM     28  C   UNL     1       4.955   2.696  19.103  0.00  0.00    +0.000 A 
ATOM     29  C   UNL     1       4.554   2.253  20.365  0.00  0.00    +0.000 A 
ATOM     30  C   UNL     1       3.232   2.418  20.779  0.00  0.00    +0.000 A 
ATOM     31  C   UNL     1       2.296   3.019  19.929  0.00  0.00    +0.000 A 
ATOM     32  C   UNL     1       2.711   3.461  18.663  0.00  0.00    +0.000 A 
BRANCH  31  33
ATOM     33  C   UNL     1       0.856   3.188  20.345  0.00  0.00    +0.000 C 
ATOM     34  F   UNL     1       0.466   4.490  20.441  0.00  0.00    +0.000 F 
ATOM     35  F   UNL     1      -0.009   2.602  19.473  0.00  0.00    +0.000 F 
ATOM     36  F   UNL     1       0.595   2.630  21.560  0.00  0.00    +0.000 F 
ENDBRANCH  31  33
ENDBRANCH  26  27
ENDBRANCH  23  25
ENDBRANCH  22  23
ENDBRANCH  21  22
ENDBRANCH   2  21
TORSDOF 9
ENDMDL
MODEL 8
REMARK VINA RESULT:      -8.2      2.357      2.953
REMARK  Name = 
REMARK  9 active torsions:
REMARK  status: ('A' for Active; 'I' for Inactive)
REMARK    1  A    between atoms: C_2  and  C_3
REMARK    2  A    between atoms: C_3  and  O_4
REMARK    3  A    between atoms: O_4  and  C_5
REMARK    4  A    between atoms: C_5  and  C_7
REMARK    5  A    between atoms: C_8  and  C_9
REMARK    6  A    between atoms: C_13  and  C_14
REMARK    7  A    between atoms: N_19  and  C_20
REMARK    8  A    between atoms: C_24  and  S_25
REMARK    9  A    between atoms: S_25  and  N_28
REMARK                            x       y       z     vdW  Elec       q    Type
REMARK                         _______ _______ _______ _____ _____    ______ ____
ROOT
ATOM      1  O   UNL     1       0.448   4.879  20.545  0.00  0.00    +0.000 OA
ATOM      2  C   UNL     1       1.672   4.775  20.606  0.00  0.00    +0.000 C 
ATOM      3  N   UNL     1       2.590   5.711  20.137  0.00  0.00    +0.000 N 
ATOM      4  H   UNL     1       3.569   5.448  20.116  0.00  0.00    +0.000 HD
ENDROOT
BRANCH   3   5
ATOM      5  C   UNL     1       2.280   7.012  19.662  0.00  0.00    +0.000 A 
ATOM      6  C   UNL     1       2.609   7.430  18.370  0.00  0.00    +0.000 A 
ATOM      7  C   UNL     1       2.251   8.699  17.904  0.00  0.00    +0.000 A 
ATOM      8  C   UNL     1       1.544   9.574  18.724  0.00  0.00    +0.000 A 
ATOM      9  C   UNL     1       1.219   9.174  20.021  0.00  0.00    +0.000 A 
ATOM     10  C   UNL     1       1.583   7.898  20.497  0.00  0.00    +0.000 A 
BRANCH   9  11
ATOM     11  S   UNL     1       0.349  10.313  21.073  0.00  0.00    +0.000 S 
ATOM     12  O   UNL     1      -0.502   9.531  21.946  0.00  0.00    +0.000 OA
ATOM     13  O   UNL     1       1.298  11.259  21.631  0.00  0.00    +0.000 OA
BRANCH  11  14
ATOM     14  N   UNL     1      -0.683  11.212  20.097  0.00  0.00    +0.000 N 
ATOM     15  C   UNL     1      -1.617  12.106  20.607  0.00  0.00    +0.000 C 
ATOM     16  N   UNL     1      -1.444  12.683  21.747  0.00  0.00    +0.000 NA
ATOM     17  C   UNL     1      -2.638  13.507  21.979  0.00  0.00    +0.000 C 
ATOM     18  C   UNL     1      -3.300  13.652  20.623  0.00  0.00    +0.000 C 
ATOM     19  C   UNL     1      -2.871  12.411  19.869  0.00  0.00    +0.000 C 
ATOM     20  H   UNL     1      -0.837  10.759  19.203  0.00  0.00    +0.000 HD
ENDBRANCH  11  14
ENDBRANCH   9  11
ENDBRANCH   3   5
BRANCH   2  21
ATOM     21  C   UNL     1       2.307   3.508  21.190  0.00  0.00    +0.000 C 
BRANCH  21  22
ATOM     22  O   UNL     1       2.889   2.665  20.190  0.00  0.00    +0.000 OA
BRANCH  22  23
ATOM     23  C   UNL     1       4.184   2.361  20.436  0.00  0.00    +0.000 C 
ATOM     24  O   UNL     1       4.588   1.537  21.249  0.00  0.00    +0.000 OA
BRANCH  23  25
ATOM     25  C   UNL     1       5.043   3.243  19.626  0.00  0.00    +0.000 C 
ATOM     26  C   UNL     1       4.655   3.615  18.395  0.00  0.00    +0.000 C 
BRANCH  26  27
ATOM     27  C   UNL     1       5.483   4.430  17.498  0.00  0.00    +0.000 A 
ATOM     28  C   UNL     1       5.680   4.016  16.175  0.00  0.00    +0.000 A 
ATOM     29  C   UNL     1       6.487   4.758  15.310  0.00  0.00    +0.000 A 
ATOM     30  C   UNL     1       7.118   5.917  15.762  0.00  0.00    +0.000 A 
ATOM     31  C   UNL     1       6.957   6.339  17.087  0.00  0.00    +0.000 A 
ATOM     32  C   UNL     1       6.142   5.584  17.947  0.00  0.00    +0.000 A 
BRANCH  31  33
ATOM     33  C   UNL     1       7.647   7.575  17.605  0.00  0.00    +0.000 C 
ATOM     34  F   UNL     1       6.805   8.627  17.803  0.00  0.00    +0.000 F 
ATOM     35  F   UNL     1       8.267   7.364  18.798  0.00  0.00    +0.000 F 
ATOM     36  F   UNL     1       8.614   8.026  16.758  0.00  0.00    +0.000 F 
ENDBRANCH  31  33
ENDBRANCH  26  27
ENDBRANCH  23  25
ENDBRANCH  22  23
ENDBRANCH  21  22
ENDBRANCH   2  21
TORSDOF 9
ENDMDL
MODEL 9
REMARK VINA RESULT:      -8.1      1.995      2.737
REMARK  Name = 
REMARK  9 active torsions:
REMARK  status: ('A' for Active; 'I' for Inactive)
REMARK    1  A    between atoms: C_2  and  C_3
REMARK    2  A    between atoms: C_3  and  O_4
REMARK    3  A    between atoms: O_4  and  C_5
REMARK    4  A    between atoms: C_5  and  C_7
REMARK    5  A    between atoms: C_8  and  C_9
REMARK    6  A    between atoms: C_13  and  C_14
REMARK    7  A    between atoms: N_19  and  C_20
REMARK    8  A    between atoms: C_24  and  S_25
REMARK    9  A    between atoms: S_25  and  N_28
REMARK                            x       y       z     vdW  Elec       q    Type
REMARK                         _______ _______ _______ _____ _____    ______ ____
ROOT
ATOM      1  O   UNL     1       2.170   8.549  19.322  0.00  0.00    +0.000 OA
ATOM      2  C   UNL     1       1.820   7.661  20.098  0.00  0.00    +0.000 C 
ATOM      3  N   UNL     1       0.992   7.829  21.204  0.00  0.00    +0.000 N 
ATOM      4  H   UNL     1       0.892   7.051  21.846  0.00  0.00    +0.000 HD
ENDROOT
BRANCH   3   5
ATOM      5  C   UNL     1       0.277   9.010  21.532  0.00  0.00    +0.000 A 
ATOM      6  C   UNL     1      -0.010   9.362  22.854  0.00  0.00    +0.000 A 
ATOM      7  C   UNL     1      -0.673  10.554  23.160  0.00  0.00    +0.000 A 
ATOM      8  C   UNL     1      -1.055  11.426  22.144  0.00  0.00    +0.000 A 
ATOM      9  C   UNL     1      -0.786  11.081  20.819  0.00  0.00    +0.000 A 
ATOM     10  C   UNL     1      -0.124   9.877  20.505  0.00  0.00    +0.000 A 
BRANCH   9  11
ATOM     11  S   UNL     1      -1.312  12.182  19.526  0.00  0.00    +0.000 S 
ATOM     12  O   UNL     1      -2.733  12.403  19.697  0.00  0.00    +0.000 OA
ATOM     13  O   UNL     1      -0.398  13.307  19.464  0.00  0.00    +0.000 OA
BRANCH  11  14
ATOM     14  N   UNL     1      -1.139  11.364  18.067  0.00  0.00    +0.000 N 
ATOM     15  C   UNL     1      -2.221  10.993  17.276  0.00  0.00    +0.000 C 
ATOM     16  N   UNL     1      -3.333  11.642  17.309  0.00  0.00    +0.000 NA
ATOM     17  C   UNL     1      -4.247  10.945  16.395  0.00  0.00    +0.000 C 
ATOM     18  C   UNL     1      -3.363  10.079  15.521  0.00  0.00    +0.000 C 
ATOM     19  C   UNL     1      -2.146   9.808  16.381  0.00  0.00    +0.000 C 
ATOM     20  H   UNL     1      -0.273  10.836  18.038  0.00  0.00    +0.000 HD
ENDBRANCH  11  14
ENDBRANCH   9  11
ENDBRANCH   3   5
BRANCH   2  21
ATOM     21  C   UNL     1       2.349   6.233  19.917  0.00  0.00    +0.000 C 
BRANCH  21  22
ATOM     22  O   UNL     1       1.341   5.237  20.118  0.00  0.00    +0.000 OA
BRANCH  22  23
ATOM     23  C   UNL     1       1.473   4.170  19.297  0.00  0.00    +0.000 C 
ATOM     24  O   UNL     1       0.807   3.142  19.340  0.00  0.00    +0.000 OA
BRANCH  23  25
ATOM     25  C   UNL     1       2.609   4.406  18.388  0.00  0.00    +0.000 C 
ATOM     26  C   UNL     1       3.811   3.873  18.662  0.00  0.00    +0.000 C 
BRANCH  26  27
ATOM     27  C   UNL     1       5.009   4.118  17.849  0.00  0.00    +0.000 A 
ATOM     28  C   UNL     1       6.192   4.531  18.473  0.00  0.00    +0.000 A 
ATOM     29  C   UNL     1       7.337   4.798  17.719  0.00  0.00    +0.000 A 
ATOM     30  C   UNL     1       7.308   4.670  16.330  0.00  0.00    +0.000 A 
ATOM     31  C   UNL     1       6.129   4.283  15.681  0.00  0.00    +0.000 A 
ATOM     32  C   UNL     1       4.985   4.015  16.450  0.00  0.00    +0.000 A 
BRANCH  31  33
ATOM     33  C   UNL     1       6.066   4.159  14.180  0.00  0.00    +0.000 C 
ATOM     34  F   UNL     1       4.815   4.337  13.670  0.00  0.00    +0.000 F 
ATOM     35  F   UNL     1       6.859   5.069  13.549  0.00  0.00    +0.000 F 
ATOM     36  F   UNL     1       6.478   2.938  13.739  0.00  0.00    +0.000 F 
ENDBRANCH  31  33
ENDBRANCH  26  27
ENDBRANCH  23  25
ENDBRANCH  22  23
ENDBRANCH  21  22
ENDBRANCH   2  21
TORSDOF 9
ENDMDL
