MODEL 1
REMARK VINA RESULT:      -5.9      0.000      0.000
REMARK  Name = 
REMARK  25 active torsions:
REMARK  status: ('A' for Active; 'I' for Inactive)
REMARK    1  A    between atoms: C_1  and  C_2
REMARK    2  A    between atoms: C_2  and  C_3
REMARK    3  A    between atoms: C_3  and  C_4
REMARK    4  A    between atoms: C_4  and  C_5
REMARK    5  A    between atoms: C_5  and  C_6
REMARK    6  A    between atoms: C_6  and  C_7
REMARK    7  A    between atoms: C_7  and  C_8
REMARK    8  A    between atoms: C_8  and  C_9
REMARK    9  A    between atoms: C_9  and  C_10
REMARK   10  A    between atoms: C_10  and  C_11
REMARK   11  A    between atoms: C_11  and  C_12
REMARK   12  A    between atoms: C_12  and  C_13
REMARK   13  A    between atoms: C_13  and  C_14
REMARK   14  A    between atoms: C_14  and  S_15
REMARK   15  A    between atoms: S_15  and  N_18
REMARK   16  A    between atoms: N_18  and  C_19
REMARK   17  A    between atoms: N_18  and  C_20
REMARK   18  A    between atoms: C_20  and  C_21
REMARK   19  A    between atoms: C_21  and  N_22
REMARK   20  A    between atoms: N_22  and  C_23
REMARK   21  A    between atoms: N_22  and  C_25
REMARK   22  A    between atoms: N_22  and  C_27
REMARK   23  A    between atoms: C_23  and  C_24
REMARK   24  A    between atoms: C_25  and  C_26
REMARK   25  A    between atoms: C_27  and  C_28
REMARK                            x       y       z     vdW  Elec       q    Type
REMARK                         _______ _______ _______ _____ _____    ______ ____
ROOT
ATOM      1  C   UNL     1       8.071   7.220  18.449  0.00  0.00    +0.000 C 
ENDROOT
BRANCH   1   2
ATOM      2  S   UNL     1       7.224   5.843  17.721  0.00  0.00    +0.000 S 
ATOM      3  O   UNL     1       7.381   6.004  16.266  0.00  0.00    +0.000 OA
ATOM      4  O   UNL     1       7.579   4.622  18.346  0.00  0.00    +0.000 OA
BRANCH   2   5
ATOM      5  N   UNL     1       5.565   6.110  18.096  0.00  0.00    +0.000 NA
ATOM      6  C   UNL     1       4.724   6.615  16.951  0.00  0.00    +0.000 C 
BRANCH   5   7
ATOM      7  C   UNL     1       4.925   4.901  18.679  0.00  0.00    +0.000 C 
BRANCH   7   8
ATOM      8  C   UNL     1       3.462   5.114  19.145  0.00  0.00    +0.000 C 
BRANCH   8   9
ATOM      9  N   UNL     1       2.770   3.757  19.529  0.00  0.00    +0.000 N 
BRANCH   9  10
ATOM     10  C   UNL     1       1.710   3.442  18.443  0.00  0.00    +0.000 C 
ATOM     11  C   UNL     1       1.418   4.630  17.531  0.00  0.00    +0.000 C 
ENDBRANCH   9  10
BRANCH   9  12
ATOM     12  C   UNL     1       2.043   3.900  20.916  0.00  0.00    +0.000 C 
ATOM     13  C   UNL     1       2.193   2.722  21.877  0.00  0.00    +0.000 C 
ENDBRANCH   9  12
BRANCH   9  14
ATOM     14  C   UNL     1       3.834   2.619  19.573  0.00  0.00    +0.000 C 
ATOM     15  C   UNL     1       3.615   1.548  18.528  0.00  0.00    +0.000 C 
ENDBRANCH   9  14
ENDBRANCH   8   9
ENDBRANCH   7   8
ENDBRANCH   5   7
ENDBRANCH   2   5
ENDBRANCH   1   2
BRANCH   1  16
ATOM     16  C   UNL     1       8.197   8.333  17.449  0.00  0.00    +0.000 C 
BRANCH  16  17
ATOM     17  C   UNL     1       8.034   9.678  18.138  0.00  0.00    +0.000 C 
BRANCH  17  18
ATOM     18  C   UNL     1       9.299  10.037  18.870  0.00  0.00    +0.000 C 
BRANCH  18  19
ATOM     19  C   UNL     1       9.917  11.257  18.215  0.00  0.00    +0.000 C 
BRANCH  19  20
ATOM     20  C   UNL     1      10.039  12.362  19.242  0.00  0.00    +0.000 C 
BRANCH  20  21
ATOM     21  C   UNL     1      10.370  11.766  20.597  0.00  0.00    +0.000 C 
BRANCH  21  22
ATOM     22  C   UNL     1       9.494  12.396  21.662  0.00  0.00    +0.000 C 
BRANCH  22  23
ATOM     23  C   UNL     1       8.476  11.385  22.156  0.00  0.00    +0.000 C 
BRANCH  23  24
ATOM     24  C   UNL     1       7.660  11.981  23.290  0.00  0.00    +0.000 C 
BRANCH  24  25
ATOM     25  C   UNL     1       8.488  12.020  24.566  0.00  0.00    +0.000 C 
BRANCH  25  26
ATOM     26  C   UNL     1       7.581  12.179  25.777  0.00  0.00    +0.000 C 
BRANCH  26  28
ATOM     27  C   UNL     1       5.208  11.952  26.509  0.00  0.00    +0.000 C 
ATOM     28  C   UNL     1       6.280  11.424  25.574  0.00  0.00    +0.000 C 
ENDBRANCH  26  28
ENDBRANCH  25  26
ENDBRANCH  24  25
ENDBRANCH  23  24
ENDBRANCH  22  23
ENDBRANCH  21  22
ENDBRANCH  20  21
ENDBRANCH  19  20
ENDBRANCH  18  19
ENDBRANCH  17  18
ENDBRANCH  16  17
ENDBRANCH   1  16
TORSDOF 20
ENDMDL
MODEL 2
REMARK VINA RESULT:      -5.8      2.756      3.997
REMARK  Name = 
REMARK  25 active torsions:
REMARK  status: ('A' for Active; 'I' for Inactive)
REMARK    1  A    between atoms: C_1  and  C_2
REMARK    2  A    between atoms: C_2  and  C_3
REMARK    3  A    between atoms: C_3  and  C_4
REMARK    4  A    between atoms: C_4  and  C_5
REMARK    5  A    between atoms: C_5  and  C_6
REMARK    6  A    between atoms: C_6  and  C_7
REMARK    7  A    between atoms: C_7  and  C_8
REMARK    8  A    between atoms: C_8  and  C_9
REMARK    9  A    between atoms: C_9  and  C_10
REMARK   10  A    between atoms: C_10  and  C_11
REMARK   11  A    between atoms: C_11  and  C_12
REMARK   12  A    between atoms: C_12  and  C_13
REMARK   13  A    between atoms: C_13  and  C_14
REMARK   14  A    between atoms: C_14  and  S_15
REMARK   15  A    between atoms: S_15  and  N_18
REMARK   16  A    between atoms: N_18  and  C_19
REMARK   17  A    between atoms: N_18  and  C_20
REMARK   18  A    between atoms: C_20  and  C_21
REMARK   19  A    between atoms: C_21  and  N_22
REMARK   20  A    between atoms: N_22  and  C_23
REMARK   21  A    between atoms: N_22  and  C_25
REMARK   22  A    between atoms: N_22  and  C_27
REMARK   23  A    between atoms: C_23  and  C_24
REMARK   24  A    between atoms: C_25  and  C_26
REMARK   25  A    between atoms: C_27  and  C_28
REMARK                            x       y       z     vdW  Elec       q    Type
REMARK                         _______ _______ _______ _____ _____    ______ ____
ROOT
ATOM      1  C   UNL     1       7.651   7.625  17.200  0.00  0.00    +0.000 C 
ENDROOT
BRANCH   1   2
ATOM      2  S   UNL     1       7.374   6.062  17.990  0.00  0.00    +0.000 S 
ATOM      3  O   UNL     1       7.806   5.044  17.019  0.00  0.00    +0.000 OA
ATOM      4  O   UNL     1       7.883   6.049  19.313  0.00  0.00    +0.000 OA
BRANCH   2   5
ATOM      5  N   UNL     1       5.662   5.949  18.133  0.00  0.00    +0.000 NA
ATOM      6  C   UNL     1       4.881   6.767  17.135  0.00  0.00    +0.000 C 
BRANCH   5   7
ATOM      7  C   UNL     1       5.192   4.539  18.086  0.00  0.00    +0.000 C 
BRANCH   7   8
ATOM      8  C   UNL     1       4.706   3.981  19.448  0.00  0.00    +0.000 C 
BRANCH   8   9
ATOM      9  N   UNL     1       3.224   3.466  19.371  0.00  0.00    +0.000 N 
BRANCH   9  10
ATOM     10  C   UNL     1       2.307   4.696  19.152  0.00  0.00    +0.000 C 
ATOM     11  C   UNL     1       1.593   4.677  17.804  0.00  0.00    +0.000 C 
ENDBRANCH   9  10
BRANCH   9  12
ATOM     12  C   UNL     1       2.826   2.775  20.727  0.00  0.00    +0.000 C 
ATOM     13  C   UNL     1       1.366   2.927  21.154  0.00  0.00    +0.000 C 
ENDBRANCH   9  12
BRANCH   9  14
ATOM     14  C   UNL     1       3.073   2.476  18.178  0.00  0.00    +0.000 C 
ATOM     15  C   UNL     1       3.710   1.128  18.428  0.00  0.00    +0.000 C 
ENDBRANCH   9  14
ENDBRANCH   8   9
ENDBRANCH   7   8
ENDBRANCH   5   7
ENDBRANCH   2   5
ENDBRANCH   1   2
BRANCH   1  16
ATOM     16  C   UNL     1       8.058   8.650  18.219  0.00  0.00    +0.000 C 
BRANCH  16  17
ATOM     17  C   UNL     1       8.725   9.833  17.535  0.00  0.00    +0.000 C 
BRANCH  17  18
ATOM     18  C   UNL     1       8.482  11.089  18.329  0.00  0.00    +0.000 C 
BRANCH  18  19
ATOM     19  C   UNL     1       8.139  12.216  17.374  0.00  0.00    +0.000 C 
BRANCH  19  20
ATOM     20  C   UNL     1       8.422  13.540  18.049  0.00  0.00    +0.000 C 
BRANCH  20  21
ATOM     21  C   UNL     1       8.588  13.328  19.541  0.00  0.00    +0.000 C 
BRANCH  21  22
ATOM     22  C   UNL     1       9.616  14.300  20.087  0.00  0.00    +0.000 C 
BRANCH  22  23
ATOM     23  C   UNL     1      10.574  13.573  21.012  0.00  0.00    +0.000 C 
BRANCH  23  24
ATOM     24  C   UNL     1      11.114  12.331  20.327  0.00  0.00    +0.000 C 
BRANCH  24  25
ATOM     25  C   UNL     1      12.169  12.715  19.301  0.00  0.00    +0.000 C 
BRANCH  25  26
ATOM     26  C   UNL     1      11.832  12.108  17.947  0.00  0.00    +0.000 C 
BRANCH  26  28
ATOM     27  C   UNL     1      12.084  14.530  17.408  0.00  0.00    +0.000 C 
ATOM     28  C   UNL     1      12.037  13.125  16.838  0.00  0.00    +0.000 C 
ENDBRANCH  26  28
ENDBRANCH  25  26
ENDBRANCH  24  25
ENDBRANCH  23  24
ENDBRANCH  22  23
ENDBRANCH  21  22
ENDBRANCH  20  21
ENDBRANCH  19  20
ENDBRANCH  18  19
ENDBRANCH  17  18
ENDBRANCH  16  17
ENDBRANCH   1  16
TORSDOF 20
ENDMDL
MODEL 3
REMARK VINA RESULT:      -5.8      1.581      2.957
REMARK  Name = 
REMARK  25 active torsions:
REMARK  status: ('A' for Active; 'I' for Inactive)
REMARK    1  A    between atoms: C_1  and  C_2
REMARK    2  A    between atoms: C_2  and  C_3
REMARK    3  A    between atoms: C_3  and  C_4
REMARK    4  A    between atoms: C_4  and  C_5
REMARK    5  A    between atoms: C_5  and  C_6
REMARK    6  A    between atoms: C_6  and  C_7
REMARK    7  A    between atoms: C_7  and  C_8
REMARK    8  A    between atoms: C_8  and  C_9
REMARK    9  A    between atoms: C_9  and  C_10
REMARK   10  A    between atoms: C_10  and  C_11
REMARK   11  A    between atoms: C_11  and  C_12
REMARK   12  A    between atoms: C_12  and  C_13
REMARK   13  A    between atoms: C_13  and  C_14
REMARK   14  A    between atoms: C_14  and  S_15
REMARK   15  A    between atoms: S_15  and  N_18
REMARK   16  A    between atoms: N_18  and  C_19
REMARK   17  A    between atoms: N_18  and  C_20
REMARK   18  A    between atoms: C_20  and  C_21
REMARK   19  A    between atoms: C_21  and  N_22
REMARK   20  A    between atoms: N_22  and  C_23
REMARK   21  A    between atoms: N_22  and  C_25
REMARK   22  A    between atoms: N_22  and  C_27
REMARK   23  A    between atoms: C_23  and  C_24
REMARK   24  A    between atoms: C_25  and  C_26
REMARK   25  A    between atoms: C_27  and  C_28
REMARK                            x       y       z     vdW  Elec       q    Type
REMARK                         _______ _______ _______ _____ _____    ______ ____
ROOT
ATOM      1  C   UNL     1       7.815   7.037  18.036  0.00  0.00    +0.000 C 
ENDROOT
BRANCH   1   2
ATOM      2  S   UNL     1       6.848   6.030  16.942  0.00  0.00    +0.000 S 
ATOM      3  O   UNL     1       6.025   6.969  16.162  0.00  0.00    +0.000 OA
ATOM      4  O   UNL     1       7.645   5.062  16.283  0.00  0.00    +0.000 OA
BRANCH   2   5
ATOM      5  N   UNL     1       5.791   5.156  17.983  0.00  0.00    +0.000 NA
ATOM      6  C   UNL     1       6.103   5.272  19.454  0.00  0.00    +0.000 C 
BRANCH   5   7
ATOM      7  C   UNL     1       4.366   5.510  17.754  0.00  0.00    +0.000 C 
BRANCH   7   8
ATOM      8  C   UNL     1       3.457   4.307  17.396  0.00  0.00    +0.000 C 
BRANCH   8   9
ATOM      9  N   UNL     1       2.591   3.845  18.623  0.00  0.00    +0.000 N 
BRANCH   9  10
ATOM     10  C   UNL     1       3.352   2.695  19.331  0.00  0.00    +0.000 C 
ATOM     11  C   UNL     1       3.706   1.545  18.391  0.00  0.00    +0.000 C 
ENDBRANCH   9  10
BRANCH   9  12
ATOM     12  C   UNL     1       1.203   3.300  18.125  0.00  0.00    +0.000 C 
ATOM     13  C   UNL     1       0.469   2.361  19.081  0.00  0.00    +0.000 C 
ENDBRANCH   9  12
BRANCH   9  14
ATOM     14  C   UNL     1       2.400   5.036  19.609  0.00  0.00    +0.000 C 
ATOM     15  C   UNL     1       2.335   4.614  21.060  0.00  0.00    +0.000 C 
ENDBRANCH   9  14
ENDBRANCH   8   9
ENDBRANCH   7   8
ENDBRANCH   5   7
ENDBRANCH   2   5
ENDBRANCH   1   2
BRANCH   1  16
ATOM     16  C   UNL     1       7.692   8.482  17.647  0.00  0.00    +0.000 C 
BRANCH  16  17
ATOM     17  C   UNL     1       8.659   9.328  18.460  0.00  0.00    +0.000 C 
BRANCH  17  18
ATOM     18  C   UNL     1       8.721  10.722  17.895  0.00  0.00    +0.000 C 
BRANCH  18  19
ATOM     19  C   UNL     1      10.153  11.214  17.956  0.00  0.00    +0.000 C 
BRANCH  19  20
ATOM     20  C   UNL     1      10.156  12.692  18.283  0.00  0.00    +0.000 C 
BRANCH  20  21
ATOM     21  C   UNL     1       8.831  13.307  17.879  0.00  0.00    +0.000 C 
BRANCH  21  22
ATOM     22  C   UNL     1       8.510  14.478  18.788  0.00  0.00    +0.000 C 
BRANCH  22  23
ATOM     23  C   UNL     1       9.788  15.204  19.165  0.00  0.00    +0.000 C 
BRANCH  23  24
ATOM     24  C   UNL     1       9.852  15.393  20.670  0.00  0.00    +0.000 C 
BRANCH  24  25
ATOM     25  C   UNL     1       8.836  14.492  21.355  0.00  0.00    +0.000 C 
BRANCH  25  26
ATOM     26  C   UNL     1       9.539  13.330  22.040  0.00  0.00    +0.000 C 
BRANCH  26  28
ATOM     27  C   UNL     1       8.034  11.615  23.046  0.00  0.00    +0.000 C 
ATOM     28  C   UNL     1       8.789  12.032  21.798  0.00  0.00    +0.000 C 
ENDBRANCH  26  28
ENDBRANCH  25  26
ENDBRANCH  24  25
ENDBRANCH  23  24
ENDBRANCH  22  23
ENDBRANCH  21  22
ENDBRANCH  20  21
ENDBRANCH  19  20
ENDBRANCH  18  19
ENDBRANCH  17  18
ENDBRANCH  16  17
ENDBRANCH   1  16
TORSDOF 20
ENDMDL
MODEL 4
REMARK VINA RESULT:      -5.7      2.750      3.765
REMARK  Name = 
REMARK  25 active torsions:
REMARK  status: ('A' for Active; 'I' for Inactive)
REMARK    1  A    between atoms: C_1  and  C_2
REMARK    2  A    between atoms: C_2  and  C_3
REMARK    3  A    between atoms: C_3  and  C_4
REMARK    4  A    between atoms: C_4  and  C_5
REMARK    5  A    between atoms: C_5  and  C_6
REMARK    6  A    between atoms: C_6  and  C_7
REMARK    7  A    between atoms: C_7  and  C_8
REMARK    8  A    between atoms: C_8  and  C_9
REMARK    9  A    between atoms: C_9  and  C_10
REMARK   10  A    between atoms: C_10  and  C_11
REMARK   11  A    between atoms: C_11  and  C_12
REMARK   12  A    between atoms: C_12  and  C_13
REMARK   13  A    between atoms: C_13  and  C_14
REMARK   14  A    between atoms: C_14  and  S_15
REMARK   15  A    between atoms: S_15  and  N_18
REMARK   16  A    between atoms: N_18  and  C_19
REMARK   17  A    between atoms: N_18  and  C_20
REMARK   18  A    between atoms: C_20  and  C_21
REMARK   19  A    between atoms: C_21  and  N_22
REMARK   20  A    between atoms: N_22  and  C_23
REMARK   21  A    between atoms: N_22  and  C_25
REMARK   22  A    between atoms: N_22  and  C_27
REMARK   23  A    between atoms: C_23  and  C_24
REMARK   24  A    between atoms: C_25  and  C_26
REMARK   25  A    between atoms: C_27  and  C_28
REMARK                            x       y       z     vdW  Elec       q    Type
REMARK                         _______ _______ _______ _____ _____    ______ ____
ROOT
ATOM      1  C   UNL     1       7.749   7.237  17.317  0.00  0.00    +0.000 C 
ENDROOT
BRANCH   1   2
ATOM      2  S   UNL     1       7.268   5.641  17.920  0.00  0.00    +0.000 S 
ATOM      3  O   UNL     1       7.723   4.679  16.903  0.00  0.00    +0.000 OA
ATOM      4  O   UNL     1       7.628   5.466  19.279  0.00  0.00    +0.000 OA
BRANCH   2   5
ATOM      5  N   UNL     1       5.547   5.665  17.878  0.00  0.00    +0.000 NA
ATOM      6  C   UNL     1       4.944   6.729  16.995  0.00  0.00    +0.000 C 
BRANCH   5   7
ATOM      7  C   UNL     1       4.980   4.342  17.508  0.00  0.00    +0.000 C 
BRANCH   7   8
ATOM      8  C   UNL     1       3.433   4.272  17.558  0.00  0.00    +0.000 C 
BRANCH   8   9
ATOM      9  N   UNL     1       2.915   3.819  18.971  0.00  0.00    +0.000 N 
BRANCH   9  10
ATOM     10  C   UNL     1       3.732   2.573  19.396  0.00  0.00    +0.000 C 
ATOM     11  C   UNL     1       3.503   1.369  18.487  0.00  0.00    +0.000 C 
ENDBRANCH   9  10
BRANCH   9  12
ATOM     12  C   UNL     1       1.397   3.421  18.883  0.00  0.00    +0.000 C 
ATOM     13  C   UNL     1       0.719   3.064  20.206  0.00  0.00    +0.000 C 
ENDBRANCH   9  12
BRANCH   9  14
ATOM     14  C   UNL     1       3.131   4.968  20.002  0.00  0.00    +0.000 C 
ATOM     15  C   UNL     1       2.420   6.251  19.633  0.00  0.00    +0.000 C 
ENDBRANCH   9  14
ENDBRANCH   8   9
ENDBRANCH   7   8
ENDBRANCH   5   7
ENDBRANCH   2   5
ENDBRANCH   1   2
BRANCH   1  16
ATOM     16  C   UNL     1       8.347   8.048  18.430  0.00  0.00    +0.000 C 
BRANCH  16  17
ATOM     17  C   UNL     1       8.365   9.521  18.057  0.00  0.00    +0.000 C 
BRANCH  17  18
ATOM     18  C   UNL     1       9.306  10.269  18.963  0.00  0.00    +0.000 C 
BRANCH  18  19
ATOM     19  C   UNL     1      10.062  11.298  18.145  0.00  0.00    +0.000 C 
BRANCH  19  20
ATOM     20  C   UNL     1      11.175  11.880  18.989  0.00  0.00    +0.000 C 
BRANCH  20  21
ATOM     21  C   UNL     1      10.594  12.501  20.244  0.00  0.00    +0.000 C 
BRANCH  21  22
ATOM     22  C   UNL     1      11.187  13.880  20.457  0.00  0.00    +0.000 C 
BRANCH  22  23
ATOM     23  C   UNL     1      10.281  14.698  21.358  0.00  0.00    +0.000 C 
BRANCH  23  24
ATOM     24  C   UNL     1      10.320  16.158  20.944  0.00  0.00    +0.000 C 
BRANCH  24  25
ATOM     25  C   UNL     1      10.159  16.280  19.436  0.00  0.00    +0.000 C 
BRANCH  25  26
ATOM     26  C   UNL     1       8.741  15.914  19.027  0.00  0.00    +0.000 C 
BRANCH  26  28
ATOM     27  C   UNL     1       7.507  14.044  17.931  0.00  0.00    +0.000 C 
ATOM     28  C   UNL     1       8.754  14.907  17.891  0.00  0.00    +0.000 C 
ENDBRANCH  26  28
ENDBRANCH  25  26
ENDBRANCH  24  25
ENDBRANCH  23  24
ENDBRANCH  22  23
ENDBRANCH  21  22
ENDBRANCH  20  21
ENDBRANCH  19  20
ENDBRANCH  18  19
ENDBRANCH  17  18
ENDBRANCH  16  17
ENDBRANCH   1  16
TORSDOF 20
ENDMDL
MODEL 5
REMARK VINA RESULT:      -5.7      2.501      3.841
REMARK  Name = 
REMARK  25 active torsions:
REMARK  status: ('A' for Active; 'I' for Inactive)
REMARK    1  A    between atoms: C_1  and  C_2
REMARK    2  A    between atoms: C_2  and  C_3
REMARK    3  A    between atoms: C_3  and  C_4
REMARK    4  A    between atoms: C_4  and  C_5
REMARK    5  A    between atoms: C_5  and  C_6
REMARK    6  A    between atoms: C_6  and  C_7
REMARK    7  A    between atoms: C_7  and  C_8
REMARK    8  A    between atoms: C_8  and  C_9
REMARK    9  A    between atoms: C_9  and  C_10
REMARK   10  A    between atoms: C_10  and  C_11
REMARK   11  A    between atoms: C_11  and  C_12
REMARK   12  A    between atoms: C_12  and  C_13
REMARK   13  A    between atoms: C_13  and  C_14
REMARK   14  A    between atoms: C_14  and  S_15
REMARK   15  A    between atoms: S_15  and  N_18
REMARK   16  A    between atoms: N_18  and  C_19
REMARK   17  A    between atoms: N_18  and  C_20
REMARK   18  A    between atoms: C_20  and  C_21
REMARK   19  A    between atoms: C_21  and  N_22
REMARK   20  A    between atoms: N_22  and  C_23
REMARK   21  A    between atoms: N_22  and  C_25
REMARK   22  A    between atoms: N_22  and  C_27
REMARK   23  A    between atoms: C_23  and  C_24
REMARK   24  A    between atoms: C_25  and  C_26
REMARK   25  A    between atoms: C_27  and  C_28
REMARK                            x       y       z     vdW  Elec       q    Type
REMARK                         _______ _______ _______ _____ _____    ______ ____
ROOT
ATOM      1  C   UNL     1       7.087   6.313  18.161  0.00  0.00    +0.000 C 
ENDROOT
BRANCH   1   2
ATOM      2  S   UNL     1       6.581   6.161  16.468  0.00  0.00    +0.000 S 
ATOM      3  O   UNL     1       5.760   7.350  16.191  0.00  0.00    +0.000 OA
ATOM      4  O   UNL     1       7.672   5.834  15.625  0.00  0.00    +0.000 OA
BRANCH   2   5
ATOM      5  N   UNL     1       5.535   4.793  16.452  0.00  0.00    +0.000 NA
ATOM      6  C   UNL     1       6.018   3.629  15.624  0.00  0.00    +0.000 C 
BRANCH   5   7
ATOM      7  C   UNL     1       5.217   4.320  17.825  0.00  0.00    +0.000 C 
BRANCH   7   8
ATOM      8  C   UNL     1       3.798   4.701  18.321  0.00  0.00    +0.000 C 
BRANCH   8   9
ATOM      9  N   UNL     1       3.084   3.492  19.026  0.00  0.00    +0.000 N 
BRANCH   9  10
ATOM     10  C   UNL     1       2.479   4.012  20.355  0.00  0.00    +0.000 C 
ATOM     11  C   UNL     1       2.245   5.520  20.357  0.00  0.00    +0.000 C 
ENDBRANCH   9  10
BRANCH   9  12
ATOM     12  C   UNL     1       4.133   2.367  19.355  0.00  0.00    +0.000 C 
ATOM     13  C   UNL     1       4.308   2.025  20.834  0.00  0.00    +0.000 C 
ENDBRANCH   9  12
BRANCH   9  14
ATOM     14  C   UNL     1       1.950   2.944  18.108  0.00  0.00    +0.000 C 
ATOM     15  C   UNL     1       0.781   2.366  18.874  0.00  0.00    +0.000 C 
ENDBRANCH   9  14
ENDBRANCH   8   9
ENDBRANCH   7   8
ENDBRANCH   5   7
ENDBRANCH   2   5
ENDBRANCH   1   2
BRANCH   1  16
ATOM     16  C   UNL     1       8.111   7.402  18.295  0.00  0.00    +0.000 C 
BRANCH  16  17
ATOM     17  C   UNL     1       7.537   8.725  17.815  0.00  0.00    +0.000 C 
BRANCH  17  18
ATOM     18  C   UNL     1       8.594   9.796  17.875  0.00  0.00    +0.000 C 
BRANCH  18  19
ATOM     19  C   UNL     1       9.089   9.919  19.302  0.00  0.00    +0.000 C 
BRANCH  19  20
ATOM     20  C   UNL     1      10.183  10.962  19.359  0.00  0.00    +0.000 C 
BRANCH  20  21
ATOM     21  C   UNL     1      10.421  11.528  17.972  0.00  0.00    +0.000 C 
BRANCH  21  22
ATOM     22  C   UNL     1      11.797  12.163  17.906  0.00  0.00    +0.000 C 
BRANCH  22  23
ATOM     23  C   UNL     1      11.772  13.353  16.966  0.00  0.00    +0.000 C 
BRANCH  23  24
ATOM     24  C   UNL     1      10.562  14.221  17.260  0.00  0.00    +0.000 C 
BRANCH  24  25
ATOM     25  C   UNL     1      10.884  15.209  18.371  0.00  0.00    +0.000 C 
BRANCH  25  26
ATOM     26  C   UNL     1       9.927  15.021  19.537  0.00  0.00    +0.000 C 
BRANCH  26  28
ATOM     27  C   UNL     1       9.654  13.807  21.698  0.00  0.00    +0.000 C 
ATOM     28  C   UNL     1      10.648  14.423  20.731  0.00  0.00    +0.000 C 
ENDBRANCH  26  28
ENDBRANCH  25  26
ENDBRANCH  24  25
ENDBRANCH  23  24
ENDBRANCH  22  23
ENDBRANCH  21  22
ENDBRANCH  20  21
ENDBRANCH  19  20
ENDBRANCH  18  19
ENDBRANCH  17  18
ENDBRANCH  16  17
ENDBRANCH   1  16
TORSDOF 20
ENDMDL
MODEL 6
REMARK VINA RESULT:      -5.6      3.211      4.324
REMARK  Name = 
REMARK  25 active torsions:
REMARK  status: ('A' for Active; 'I' for Inactive)
REMARK    1  A    between atoms: C_1  and  C_2
REMARK    2  A    between atoms: C_2  and  C_3
REMARK    3  A    between atoms: C_3  and  C_4
REMARK    4  A    between atoms: C_4  and  C_5
REMARK    5  A    between atoms: C_5  and  C_6
REMARK    6  A    between atoms: C_6  and  C_7
REMARK    7  A    between atoms: C_7  and  C_8
REMARK    8  A    between atoms: C_8  and  C_9
REMARK    9  A    between atoms: C_9  and  C_10
REMARK   10  A    between atoms: C_10  and  C_11
REMARK   11  A    between atoms: C_11  and  C_12
REMARK   12  A    between atoms: C_12  and  C_13
REMARK   13  A    between atoms: C_13  and  C_14
REMARK   14  A    between atoms: C_14  and  S_15
REMARK   15  A    between atoms: S_15  and  N_18
REMARK   16  A    between atoms: N_18  and  C_19
REMARK   17  A    between atoms: N_18  and  C_20
REMARK   18  A    between atoms: C_20  and  C_21
REMARK   19  A    between atoms: C_21  and  N_22
REMARK   20  A    between atoms: N_22  and  C_23
REMARK   21  A    between atoms: N_22  and  C_25
REMARK   22  A    between atoms: N_22  and  C_27
REMARK   23  A    between atoms: C_23  and  C_24
REMARK   24  A    between atoms: C_25  and  C_26
REMARK   25  A    between atoms: C_27  and  C_28
REMARK                            x       y       z     vdW  Elec       q    Type
REMARK                         _______ _______ _______ _____ _____    ______ ____
ROOT
ATOM      1  C   UNL     1       7.772   6.811  16.992  0.00  0.00    +0.000 C 
ENDROOT
BRANCH   1   2
ATOM      2  S   UNL     1       7.345   5.366  17.926  0.00  0.00    +0.000 S 
ATOM      3  O   UNL     1       7.999   4.240  17.238  0.00  0.00    +0.000 OA
ATOM      4  O   UNL     1       7.544   5.564  19.315  0.00  0.00    +0.000 OA
BRANCH   2   5
ATOM      5  N   UNL     1       5.647   5.195  17.704  0.00  0.00    +0.000 NA
ATOM      6  C   UNL     1       5.232   4.071  16.787  0.00  0.00    +0.000 C 
BRANCH   5   7
ATOM      7  C   UNL     1       4.927   5.063  18.998  0.00  0.00    +0.000 C 
BRANCH   7   8
ATOM      8  C   UNL     1       4.550   3.607  19.375  0.00  0.00    +0.000 C 
BRANCH   8   9
ATOM      9  N   UNL     1       3.004   3.447  19.607  0.00  0.00    +0.000 N 
BRANCH   9  10
ATOM     10  C   UNL     1       2.306   4.697  19.012  0.00  0.00    +0.000 C 
ATOM     11  C   UNL     1       1.568   4.406  17.708  0.00  0.00    +0.000 C 
ENDBRANCH   9  10
BRANCH   9  12
ATOM     12  C   UNL     1       2.697   3.384  21.148  0.00  0.00    +0.000 C 
ATOM     13  C   UNL     1       1.409   2.665  21.546  0.00  0.00    +0.000 C 
ENDBRANCH   9  12
BRANCH   9  14
ATOM     14  C   UNL     1       2.494   2.164  18.885  0.00  0.00    +0.000 C 
ATOM     15  C   UNL     1       3.600   1.203  18.510  0.00  0.00    +0.000 C 
ENDBRANCH   9  14
ENDBRANCH   8   9
ENDBRANCH   7   8
ENDBRANCH   5   7
ENDBRANCH   2   5
ENDBRANCH   1   2
BRANCH   1  16
ATOM     16  C   UNL     1       7.378   8.046  17.749  0.00  0.00    +0.000 C 
BRANCH  16  17
ATOM     17  C   UNL     1       8.593   8.658  18.426  0.00  0.00    +0.000 C 
BRANCH  17  18
ATOM     18  C   UNL     1       8.596  10.150  18.225  0.00  0.00    +0.000 C 
BRANCH  18  19
ATOM     19  C   UNL     1       9.683  10.761  19.088  0.00  0.00    +0.000 C 
BRANCH  19  20
ATOM     20  C   UNL     1      10.670  11.488  18.201  0.00  0.00    +0.000 C 
BRANCH  20  21
ATOM     21  C   UNL     1      11.177  12.729  18.911  0.00  0.00    +0.000 C 
BRANCH  21  22
ATOM     22  C   UNL     1      10.424  13.947  18.414  0.00  0.00    +0.000 C 
BRANCH  22  23
ATOM     23  C   UNL     1      11.382  15.112  18.245  0.00  0.00    +0.000 C 
BRANCH  23  24
ATOM     24  C   UNL     1      11.027  15.898  16.996  0.00  0.00    +0.000 C 
BRANCH  24  25
ATOM     25  C   UNL     1      11.143  17.391  17.267  0.00  0.00    +0.000 C 
BRANCH  25  26
ATOM     26  C   UNL     1      10.387  17.756  18.535  0.00  0.00    +0.000 C 
BRANCH  26  28
ATOM     27  C   UNL     1       8.126  17.340  19.501  0.00  0.00    +0.000 C 
ATOM     28  C   UNL     1       8.892  17.799  18.274  0.00  0.00    +0.000 C 
ENDBRANCH  26  28
ENDBRANCH  25  26
ENDBRANCH  24  25
ENDBRANCH  23  24
ENDBRANCH  22  23
ENDBRANCH  21  22
ENDBRANCH  20  21
ENDBRANCH  19  20
ENDBRANCH  18  19
ENDBRANCH  17  18
ENDBRANCH  16  17
ENDBRANCH   1  16
TORSDOF 20
ENDMDL
MODEL 7
REMARK VINA RESULT:      -5.5      6.272     10.012
REMARK  Name = 
REMARK  25 active torsions:
REMARK  status: ('A' for Active; 'I' for Inactive)
REMARK    1  A    between atoms: C_1  and  C_2
REMARK    2  A    between atoms: C_2  and  C_3
REMARK    3  A    between atoms: C_3  and  C_4
REMARK    4  A    between atoms: C_4  and  C_5
REMARK    5  A    between atoms: C_5  and  C_6
REMARK    6  A    between atoms: C_6  and  C_7
REMARK    7  A    between atoms: C_7  and  C_8
REMARK    8  A    between atoms: C_8  and  C_9
REMARK    9  A    between atoms: C_9  and  C_10
REMARK   10  A    between atoms: C_10  and  C_11
REMARK   11  A    between atoms: C_11  and  C_12
REMARK   12  A    between atoms: C_12  and  C_13
REMARK   13  A    between atoms: C_13  and  C_14
REMARK   14  A    between atoms: C_14  and  S_15
REMARK   15  A    between atoms: S_15  and  N_18
REMARK   16  A    between atoms: N_18  and  C_19
REMARK   17  A    between atoms: N_18  and  C_20
REMARK   18  A    between atoms: C_20  and  C_21
REMARK   19  A    between atoms: C_21  and  N_22
REMARK   20  A    between atoms: N_22  and  C_23
REMARK   21  A    between atoms: N_22  and  C_25
REMARK   22  A    between atoms: N_22  and  C_27
REMARK   23  A    between atoms: C_23  and  C_24
REMARK   24  A    between atoms: C_25  and  C_26
REMARK   25  A    between atoms: C_27  and  C_28
REMARK                            x       y       z     vdW  Elec       q    Type
REMARK                         _______ _______ _______ _____ _____    ______ ____
ROOT
ATOM      1  C   UNL     1       1.542   8.260  20.014  0.00  0.00    +0.000 C 
ENDROOT
BRANCH   1   2
ATOM      2  S   UNL     1       0.845   9.135  21.390  0.00  0.00    +0.000 S 
ATOM      3  O   UNL     1      -0.481   8.534  21.612  0.00  0.00    +0.000 OA
ATOM      4  O   UNL     1       1.767   9.243  22.460  0.00  0.00    +0.000 OA
BRANCH   2   5
ATOM      5  N   UNL     1       0.598  10.735  20.804  0.00  0.00    +0.000 NA
ATOM      6  C   UNL     1       1.126  10.995  19.415  0.00  0.00    +0.000 C 
BRANCH   5   7
ATOM      7  C   UNL     1      -0.831  11.137  20.869  0.00  0.00    +0.000 C 
BRANCH   7   8
ATOM      8  C   UNL     1      -1.184  12.051  22.070  0.00  0.00    +0.000 C 
BRANCH   8   9
ATOM      9  N   UNL     1      -2.167  13.205  21.655  0.00  0.00    +0.000 N 
BRANCH   9  10
ATOM     10  C   UNL     1      -2.699  12.883  20.235  0.00  0.00    +0.000 C 
ATOM     11  C   UNL     1      -4.214  12.710  20.190  0.00  0.00    +0.000 C 
ENDBRANCH   9  10
BRANCH   9  12
ATOM     12  C   UNL     1      -1.395  14.574  21.607  0.00  0.00    +0.000 C 
ATOM     13  C   UNL     1      -0.659  14.975  22.884  0.00  0.00    +0.000 C 
ENDBRANCH   9  12
BRANCH   9  14
ATOM     14  C   UNL     1      -3.355  13.271  22.662  0.00  0.00    +0.000 C 
ATOM     15  C   UNL     1      -3.276  12.230  23.756  0.00  0.00    +0.000 C 
ENDBRANCH   9  14
ENDBRANCH   8   9
ENDBRANCH   7   8
ENDBRANCH   5   7
ENDBRANCH   2   5
ENDBRANCH   1   2
BRANCH   1  16
ATOM     16  C   UNL     1       1.887   6.856  20.419  0.00  0.00    +0.000 C 
BRANCH  16  17
ATOM     17  C   UNL     1       3.067   6.350  19.605  0.00  0.00    +0.000 C 
BRANCH  17  18
ATOM     18  C   UNL     1       3.107   7.046  18.271  0.00  0.00    +0.000 C 
BRANCH  18  19
ATOM     19  C   UNL     1       4.381   6.653  17.550  0.00  0.00    +0.000 C 
BRANCH  19  20
ATOM     20  C   UNL     1       5.028   5.497  18.281  0.00  0.00    +0.000 C 
BRANCH  20  21
ATOM     21  C   UNL     1       5.106   4.292  17.364  0.00  0.00    +0.000 C 
BRANCH  21  22
ATOM     22  C   UNL     1       4.048   3.279  17.756  0.00  0.00    +0.000 C 
BRANCH  22  23
ATOM     23  C   UNL     1       2.819   3.452  16.883  0.00  0.00    +0.000 C 
BRANCH  23  24
ATOM     24  C   UNL     1       1.580   3.581  17.751  0.00  0.00    +0.000 C 
BRANCH  24  25
ATOM     25  C   UNL     1       1.708   2.694  18.981  0.00  0.00    +0.000 C 
BRANCH  25  26
ATOM     26  C   UNL     1       0.686   3.100  20.032  0.00  0.00    +0.000 C 
BRANCH  26  28
ATOM     27  C   UNL     1       2.781   3.069  21.384  0.00  0.00    +0.000 C 
ATOM     28  C   UNL     1       1.268   2.961  21.427  0.00  0.00    +0.000 C 
ENDBRANCH  26  28
ENDBRANCH  25  26
ENDBRANCH  24  25
ENDBRANCH  23  24
ENDBRANCH  22  23
ENDBRANCH  21  22
ENDBRANCH  20  21
ENDBRANCH  19  20
ENDBRANCH  18  19
ENDBRANCH  17  18
ENDBRANCH  16  17
ENDBRANCH   1  16
TORSDOF 20
ENDMDL
MODEL 8
REMARK VINA RESULT:      -5.5      5.127      8.431
REMARK  Name = 
REMARK  25 active torsions:
REMARK  status: ('A' for Active; 'I' for Inactive)
REMARK    1  A    between atoms: C_1  and  C_2
REMARK    2  A    between atoms: C_2  and  C_3
REMARK    3  A    between atoms: C_3  and  C_4
REMARK    4  A    between atoms: C_4  and  C_5
REMARK    5  A    between atoms: C_5  and  C_6
REMARK    6  A    between atoms: C_6  and  C_7
REMARK    7  A    between atoms: C_7  and  C_8
REMARK    8  A    between atoms: C_8  and  C_9
REMARK    9  A    between atoms: C_9  and  C_10
REMARK   10  A    between atoms: C_10  and  C_11
REMARK   11  A    between atoms: C_11  and  C_12
REMARK   12  A    between atoms: C_12  and  C_13
REMARK   13  A    between atoms: C_13  and  C_14
REMARK   14  A    between atoms: C_14  and  S_15
REMARK   15  A    between atoms: S_15  and  N_18
REMARK   16  A    between atoms: N_18  and  C_19
REMARK   17  A    between atoms: N_18  and  C_20
REMARK   18  A    between atoms: C_20  and  C_21
REMARK   19  A    between atoms: C_21  and  N_22
REMARK   20  A    between atoms: N_22  and  C_23
REMARK   21  A    between atoms: N_22  and  C_25
REMARK   22  A    between atoms: N_22  and  C_27
REMARK   23  A    between atoms: C_23  and  C_24
REMARK   24  A    between atoms: C_25  and  C_26
REMARK   25  A    between atoms: C_27  and  C_28
REMARK                            x       y       z     vdW  Elec       q    Type
REMARK                         _______ _______ _______ _____ _____    ______ ____
ROOT
ATOM      1  C   UNL     1       2.706   5.154  20.253  0.00  0.00    +0.000 C 
ENDROOT
BRANCH   1   2
ATOM      2  S   UNL     1       1.883   3.827  19.413  0.00  0.00    +0.000 S 
ATOM      3  O   UNL     1       1.068   3.153  20.437  0.00  0.00    +0.000 OA
ATOM      4  O   UNL     1       1.289   4.265  18.203  0.00  0.00    +0.000 OA
BRANCH   2   5
ATOM      5  N   UNL     1       3.149   2.750  18.964  0.00  0.00    +0.000 NA
ATOM      6  C   UNL     1       2.919   1.994  17.680  0.00  0.00    +0.000 C 
BRANCH   5   7
ATOM      7  C   UNL     1       4.466   3.435  18.901  0.00  0.00    +0.000 C 
BRANCH   7   8
ATOM      8  C   UNL     1       4.801   4.053  17.519  0.00  0.00    +0.000 C 
BRANCH   8   9
ATOM      9  N   UNL     1       6.050   5.003  17.593  0.00  0.00    +0.000 N 
BRANCH   9  10
ATOM     10  C   UNL     1       6.534   5.034  19.065  0.00  0.00    +0.000 C 
ATOM     11  C   UNL     1       7.730   5.956  19.282  0.00  0.00    +0.000 C 
ENDBRANCH   9  10
BRANCH   9  12
ATOM     12  C   UNL     1       5.640   6.461  17.167  0.00  0.00    +0.000 C 
ATOM     13  C   UNL     1       4.140   6.754  17.136  0.00  0.00    +0.000 C 
ENDBRANCH   9  12
BRANCH   9  14
ATOM     14  C   UNL     1       7.183   4.454  16.676  0.00  0.00    +0.000 C 
ATOM     15  C   UNL     1       7.068   4.905  15.237  0.00  0.00    +0.000 C 
ENDBRANCH   9  14
ENDBRANCH   8   9
ENDBRANCH   7   8
ENDBRANCH   5   7
ENDBRANCH   2   5
ENDBRANCH   1   2
BRANCH   1  16
ATOM     16  C   UNL     1       1.700   6.154  20.744  0.00  0.00    +0.000 C 
BRANCH  16  17
ATOM     17  C   UNL     1       1.980   7.521  20.139  0.00  0.00    +0.000 C 
BRANCH  17  18
ATOM     18  C   UNL     1       1.741   8.595  21.166  0.00  0.00    +0.000 C 
BRANCH  18  19
ATOM     19  C   UNL     1       0.261   8.921  21.202  0.00  0.00    +0.000 C 
BRANCH  19  20
ATOM     20  C   UNL     1       0.061  10.240  21.916  0.00  0.00    +0.000 C 
BRANCH  20  21
ATOM     21  C   UNL     1      -0.736  11.183  21.036  0.00  0.00    +0.000 C 
BRANCH  21  22
ATOM     22  C   UNL     1      -0.020  11.380  19.714  0.00  0.00    +0.000 C 
BRANCH  22  23
ATOM     23  C   UNL     1      -0.819  12.317  18.829  0.00  0.00    +0.000 C 
BRANCH  23  24
ATOM     24  C   UNL     1      -2.297  12.206  19.156  0.00  0.00    +0.000 C 
BRANCH  24  25
ATOM     25  C   UNL     1      -2.961  11.187  18.243  0.00  0.00    +0.000 C 
BRANCH  25  26
ATOM     26  C   UNL     1      -2.122  10.976  16.992  0.00  0.00    +0.000 C 
BRANCH  26  28
ATOM     27  C   UNL     1      -3.011  10.197  14.796  0.00  0.00    +0.000 C 
ATOM     28  C   UNL     1      -2.627   9.781  16.203  0.00  0.00    +0.000 C 
ENDBRANCH  26  28
ENDBRANCH  25  26
ENDBRANCH  24  25
ENDBRANCH  23  24
ENDBRANCH  22  23
ENDBRANCH  21  22
ENDBRANCH  20  21
ENDBRANCH  19  20
ENDBRANCH  18  19
ENDBRANCH  17  18
ENDBRANCH  16  17
ENDBRANCH   1  16
TORSDOF 20
ENDMDL
MODEL 9
REMARK VINA RESULT:      -5.5      2.566      4.413
REMARK  Name = 
REMARK  25 active torsions:
REMARK  status: ('A' for Active; 'I' for Inactive)
REMARK    1  A    between atoms: C_1  and  C_2
REMARK    2  A    between atoms: C_2  and  C_3
REMARK    3  A    between atoms: C_3  and  C_4
REMARK    4  A    between atoms: C_4  and  C_5
REMARK    5  A    between atoms: C_5  and  C_6
REMARK    6  A    between atoms: C_6  and  C_7
REMARK    7  A    between atoms: C_7  and  C_8
REMARK    8  A    between atoms: C_8  and  C_9
REMARK    9  A    between atoms: C_9  and  C_10
REMARK   10  A    between atoms: C_10  and  C_11
REMARK   11  A    between atoms: C_11  and  C_12
REMARK   12  A    between atoms: C_12  and  C_13
REMARK   13  A    between atoms: C_13  and  C_14
REMARK   14  A    between atoms: C_14  and  S_15
REMARK   15  A    between atoms: S_15  and  N_18
REMARK   16  A    between atoms: N_18  and  C_19
REMARK   17  A    between atoms: N_18  and  C_20
REMARK   18  A    between atoms: C_20  and  C_21
REMARK   19  A    between atoms: C_21  and  N_22
REMARK   20  A    between atoms: N_22  and  C_23
REMARK   21  A    between atoms: N_22  and  C_25
REMARK   22  A    between atoms: N_22  and  C_27
REMARK   23  A    between atoms: C_23  and  C_24
REMARK   24  A    between atoms: C_25  and  C_26
REMARK   25  A    between atoms: C_27  and  C_28
REMARK                            x       y       z     vdW  Elec       q    Type
REMARK                         _______ _______ _______ _____ _____    ______ ____
ROOT
ATOM      1  C   UNL     1       7.931   7.204  18.546  0.00  0.00    +0.000 C 
ENDROOT
BRANCH   1   2
ATOM      2  S   UNL     1       7.334   5.975  17.415  0.00  0.00    +0.000 S 
ATOM      3  O   UNL     1       7.736   6.438  16.077  0.00  0.00    +0.000 OA
ATOM      4  O   UNL     1       7.664   4.666  17.846  0.00  0.00    +0.000 OA
BRANCH   2   5
ATOM      5  N   UNL     1       5.619   6.096  17.513  0.00  0.00    +0.000 NA
ATOM      6  C   UNL     1       4.962   6.807  16.357  0.00  0.00    +0.000 C 
BRANCH   5   7
ATOM      7  C   UNL     1       4.978   4.768  17.700  0.00  0.00    +0.000 C 
BRANCH   7   8
ATOM      8  C   UNL     1       3.429   4.796  17.673  0.00  0.00    +0.000 C 
BRANCH   8   9
ATOM      9  N   UNL     1       2.810   3.870  18.781  0.00  0.00    +0.000 N 
BRANCH   9  10
ATOM     10  C   UNL     1       3.592   2.533  18.770  0.00  0.00    +0.000 C 
ATOM     11  C   UNL     1       4.326   2.258  20.079  0.00  0.00    +0.000 C 
ENDBRANCH   9  10
BRANCH   9  12
ATOM     12  C   UNL     1       1.301   3.575  18.451  0.00  0.00    +0.000 C 
ATOM     13  C   UNL     1       0.761   2.227  18.928  0.00  0.00    +0.000 C 
ENDBRANCH   9  12
BRANCH   9  14
ATOM     14  C   UNL     1       2.951   4.553  20.175  0.00  0.00    +0.000 C 
ATOM     15  C   UNL     1       1.815   5.496  20.502  0.00  0.00    +0.000 C 
ENDBRANCH   9  14
ENDBRANCH   8   9
ENDBRANCH   7   8
ENDBRANCH   5   7
ENDBRANCH   2   5
ENDBRANCH   1   2
BRANCH   1  16
ATOM     16  C   UNL     1       7.930   8.552  17.886  0.00  0.00    +0.000 C 
BRANCH  16  17
ATOM     17  C   UNL     1       9.216   9.296  18.210  0.00  0.00    +0.000 C 
BRANCH  17  18
ATOM     18  C   UNL     1       8.907  10.725  18.567  0.00  0.00    +0.000 C 
BRANCH  18  19
ATOM     19  C   UNL     1       9.332  10.977  20.001  0.00  0.00    +0.000 C 
BRANCH  19  20
ATOM     20  C   UNL     1      10.793  11.371  20.023  0.00  0.00    +0.000 C 
BRANCH  20  21
ATOM     21  C   UNL     1      10.914  12.877  20.146  0.00  0.00    +0.000 C 
BRANCH  21  22
ATOM     22  C   UNL     1       9.671  13.439  20.808  0.00  0.00    +0.000 C 
BRANCH  22  23
ATOM     23  C   UNL     1       9.071  14.528  19.938  0.00  0.00    +0.000 C 
BRANCH  23  24
ATOM     24  C   UNL     1      10.174  15.396  19.358  0.00  0.00    +0.000 C 
BRANCH  24  25
ATOM     25  C   UNL     1       9.745  15.956  18.011  0.00  0.00    +0.000 C 
BRANCH  25  26
ATOM     26  C   UNL     1      10.871  15.812  16.998  0.00  0.00    +0.000 C 
BRANCH  26  28
ATOM     27  C   UNL     1      11.455  13.426  16.572  0.00  0.00    +0.000 C 
ATOM     28  C   UNL     1      11.791  14.666  17.379  0.00  0.00    +0.000 C 
ENDBRANCH  26  28
ENDBRANCH  25  26
ENDBRANCH  24  25
ENDBRANCH  23  24
ENDBRANCH  22  23
ENDBRANCH  21  22
ENDBRANCH  20  21
ENDBRANCH  19  20
ENDBRANCH  18  19
ENDBRANCH  17  18
ENDBRANCH  16  17
ENDBRANCH   1  16
TORSDOF 20
ENDMDL
