MODEL 1
REMARK VINA RESULT:      -8.4      0.000      0.000
REMARK  Name = 
REMARK  4 active torsions:
REMARK  status: ('A' for Active; 'I' for Inactive)
REMARK    1  A    between atoms: C_1  and  C_2
REMARK    2  A    between atoms: C_2  and  N_3
REMARK    3  A    between atoms: C_6  and  N_7
REMARK    4  A    between atoms: C_13  and  C_14
REMARK                            x       y       z     vdW  Elec       q    Type
REMARK                         _______ _______ _______ _____ _____    ______ ____
ROOT
ATOM      1  N   UNL     1       4.852   4.183  18.456  0.00  0.00    +0.000 NA
ATOM      2  C   UNL     1       5.958   4.558  19.386  0.00  0.00    +0.000 C 
ATOM      3  C   UNL     1       6.816   5.788  18.971  0.00  0.00    +0.000 C 
ATOM      4  C   UNL     1       6.970   5.749  17.507  0.00  0.00    +0.000 A 
ATOM      5  O   UNL     1       7.713   6.651  16.841  0.00  0.00    +0.000 OA
ATOM      6  N   UNL     1       7.653   6.352  15.488  0.00  0.00    +0.000 NA
ATOM      7  C   UNL     1       6.886   5.249  15.370  0.00  0.00    +0.000 A 
ATOM      8  C   UNL     1       6.374   4.872  16.642  0.00  0.00    +0.000 A 
ATOM      9  C   UNL     1       5.451   3.806  17.127  0.00  0.00    +0.000 C 
ENDROOT
BRANCH   7  10
ATOM     10  C   UNL     1       6.685   4.615  14.063  0.00  0.00    +0.000 A 
ATOM     11  C   UNL     1       5.564   3.804  13.822  0.00  0.00    +0.000 A 
ATOM     12  C   UNL     1       5.356   3.225  12.566  0.00  0.00    +0.000 A 
ATOM     13  C   UNL     1       6.268   3.444  11.534  0.00  0.00    +0.000 A 
ATOM     14  C   UNL     1       7.376   4.251  11.755  0.00  0.00    +0.000 A 
ATOM     15  C   UNL     1       7.568   4.836  13.004  0.00  0.00    +0.000 A 
ATOM     16  F   UNL     1       8.629   5.648  13.144  0.00  0.00    +0.000 F 
ENDBRANCH   7  10
BRANCH   1  20
ATOM     17  N   UNL     1       1.296   4.235  19.780  0.00  0.00    +0.000 NA
ATOM     18  C   UNL     1       2.371   4.958  20.479  0.00  0.00    +0.000 C 
ATOM     19  C   UNL     1       3.232   5.857  19.588  0.00  0.00    +0.000 C 
ATOM     20  C   UNL     1       3.759   5.185  18.306  0.00  0.00    +0.000 C 
ATOM     21  C   UNL     1       2.523   4.563  17.623  0.00  0.00    +0.000 C 
ATOM     22  C   UNL     1       1.779   3.597  18.544  0.00  0.00    +0.000 C 
BRANCH  17  24
ATOM     23  C   UNL     1       1.678   2.581  21.650  0.00  0.00    +0.000 C 
ATOM     24  C   UNL     1       0.705   3.191  20.646  0.00  0.00    +0.000 C 
ENDBRANCH  17  24
ENDBRANCH   1  20
TORSDOF 3
ENDMDL
MODEL 2
REMARK VINA RESULT:      -7.8      1.282      1.602
REMARK  Name = 
REMARK  4 active torsions:
REMARK  status: ('A' for Active; 'I' for Inactive)
REMARK    1  A    between atoms: C_1  and  C_2
REMARK    2  A    between atoms: C_2  and  N_3
REMARK    3  A    between atoms: C_6  and  N_7
REMARK    4  A    between atoms: C_13  and  C_14
REMARK                            x       y       z     vdW  Elec       q    Type
REMARK                         _______ _______ _______ _____ _____    ______ ____
ROOT
ATOM      1  N   UNL     1       4.952   4.021  17.917  0.00  0.00    +0.000 NA
ATOM      2  C   UNL     1       6.147   4.447  18.704  0.00  0.00    +0.000 C 
ATOM      3  C   UNL     1       7.008   5.585  18.084  0.00  0.00    +0.000 C 
ATOM      4  C   UNL     1       7.032   5.380  16.626  0.00  0.00    +0.000 A 
ATOM      5  O   UNL     1       7.745   6.170  15.803  0.00  0.00    +0.000 OA
ATOM      6  N   UNL     1       7.557   5.729  14.503  0.00  0.00    +0.000 NA
ATOM      7  C   UNL     1       6.745   4.655  14.573  0.00  0.00    +0.000 A 
ATOM      8  C   UNL     1       6.333   4.441  15.917  0.00  0.00    +0.000 A 
ATOM      9  C   UNL     1       5.419   3.477  16.593  0.00  0.00    +0.000 C 
ENDROOT
BRANCH   7  10
ATOM     10  C   UNL     1       6.409   3.892  13.367  0.00  0.00    +0.000 A 
ATOM     11  C   UNL     1       7.415   3.301  12.585  0.00  0.00    +0.000 A 
ATOM     12  C   UNL     1       7.092   2.547  11.452  0.00  0.00    +0.000 A 
ATOM     13  C   UNL     1       5.759   2.377  11.081  0.00  0.00    +0.000 A 
ATOM     14  C   UNL     1       4.753   2.948  11.849  0.00  0.00    +0.000 A 
ATOM     15  C   UNL     1       5.082   3.684  12.984  0.00  0.00    +0.000 A 
ATOM     16  F   UNL     1       4.065   4.169  13.717  0.00  0.00    +0.000 F 
ENDBRANCH   7  10
BRANCH   1  20
ATOM     17  N   UNL     1       1.590   4.456  19.623  0.00  0.00    +0.000 NA
ATOM     18  C   UNL     1       2.769   5.214  20.076  0.00  0.00    +0.000 C 
ATOM     19  C   UNL     1       3.545   5.927  18.966  0.00  0.00    +0.000 C 
ATOM     20  C   UNL     1       3.886   5.049  17.746  0.00  0.00    +0.000 C 
ATOM     21  C   UNL     1       2.553   4.402  17.314  0.00  0.00    +0.000 C 
ATOM     22  C   UNL     1       1.895   3.621  18.449  0.00  0.00    +0.000 C 
BRANCH  17  24
ATOM     23  C   UNL     1       2.156   2.891  21.524  0.00  0.00    +0.000 C 
ATOM     24  C   UNL     1       1.074   3.582  20.700  0.00  0.00    +0.000 C 
ENDBRANCH  17  24
ENDBRANCH   1  20
TORSDOF 3
ENDMDL
MODEL 3
REMARK VINA RESULT:      -7.5      1.179      1.445
REMARK  Name = 
REMARK  4 active torsions:
REMARK  status: ('A' for Active; 'I' for Inactive)
REMARK    1  A    between atoms: C_1  and  C_2
REMARK    2  A    between atoms: C_2  and  N_3
REMARK    3  A    between atoms: C_6  and  N_7
REMARK    4  A    between atoms: C_13  and  C_14
REMARK                            x       y       z     vdW  Elec       q    Type
REMARK                         _______ _______ _______ _____ _____    ______ ____
ROOT
ATOM      1  N   UNL     1       4.893   3.960  17.750  0.00  0.00    +0.000 NA
ATOM      2  C   UNL     1       6.205   4.267  18.395  0.00  0.00    +0.000 C 
ATOM      3  C   UNL     1       7.090   5.327  17.679  0.00  0.00    +0.000 C 
ATOM      4  C   UNL     1       6.928   5.134  16.228  0.00  0.00    +0.000 A 
ATOM      5  O   UNL     1       7.612   5.863  15.328  0.00  0.00    +0.000 OA
ATOM      6  N   UNL     1       7.237   5.453  14.058  0.00  0.00    +0.000 NA
ATOM      7  C   UNL     1       6.343   4.457  14.222  0.00  0.00    +0.000 A 
ATOM      8  C   UNL     1       6.069   4.270  15.605  0.00  0.00    +0.000 A 
ATOM      9  C   UNL     1       5.154   3.387  16.383  0.00  0.00    +0.000 C 
ENDROOT
BRANCH   7  10
ATOM     10  C   UNL     1       5.802   3.740  13.063  0.00  0.00    +0.000 A 
ATOM     11  C   UNL     1       4.439   3.829  12.734  0.00  0.00    +0.000 A 
ATOM     12  C   UNL     1       3.930   3.170  11.610  0.00  0.00    +0.000 A 
ATOM     13  C   UNL     1       4.773   2.408  10.802  0.00  0.00    +0.000 A 
ATOM     14  C   UNL     1       6.124   2.318  11.111  0.00  0.00    +0.000 A 
ATOM     15  C   UNL     1       6.626   2.990  12.222  0.00  0.00    +0.000 A 
ATOM     16  F   UNL     1       7.949   2.909  12.442  0.00  0.00    +0.000 F 
ENDBRANCH   7  10
BRANCH   1  20
ATOM     17  N   UNL     1       1.710   4.599  19.715  0.00  0.00    +0.000 NA
ATOM     18  C   UNL     1       2.980   5.229  20.112  0.00  0.00    +0.000 C 
ATOM     19  C   UNL     1       3.738   5.926  18.980  0.00  0.00    +0.000 C 
ATOM     20  C   UNL     1       3.913   5.082  17.702  0.00  0.00    +0.000 C 
ATOM     21  C   UNL     1       2.502   4.575  17.341  0.00  0.00    +0.000 C 
ATOM     22  C   UNL     1       1.856   3.799  18.488  0.00  0.00    +0.000 C 
BRANCH  17  24
ATOM     23  C   UNL     1       2.263   2.896  21.498  0.00  0.00    +0.000 C 
ATOM     24  C   UNL     1       1.194   3.720  20.788  0.00  0.00    +0.000 C 
ENDBRANCH  17  24
ENDBRANCH   1  20
TORSDOF 3
ENDMDL
MODEL 4
REMARK VINA RESULT:      -7.5      2.219      6.505
REMARK  Name = 
REMARK  4 active torsions:
REMARK  status: ('A' for Active; 'I' for Inactive)
REMARK    1  A    between atoms: C_1  and  C_2
REMARK    2  A    between atoms: C_2  and  N_3
REMARK    3  A    between atoms: C_6  and  N_7
REMARK    4  A    between atoms: C_13  and  C_14
REMARK                            x       y       z     vdW  Elec       q    Type
REMARK                         _______ _______ _______ _____ _____    ______ ____
ROOT
ATOM      1  N   UNL     1       6.152   5.962  15.777  0.00  0.00    +0.000 NA
ATOM      2  C   UNL     1       6.896   7.034  16.503  0.00  0.00    +0.000 C 
ATOM      3  C   UNL     1       7.433   6.660  17.914  0.00  0.00    +0.000 C 
ATOM      4  C   UNL     1       6.430   5.794  18.557  0.00  0.00    +0.000 A 
ATOM      5  O   UNL     1       6.574   5.345  19.817  0.00  0.00    +0.000 OA
ATOM      6  N   UNL     1       5.476   4.556  20.127  0.00  0.00    +0.000 NA
ATOM      7  C   UNL     1       4.674   4.567  19.043  0.00  0.00    +0.000 A 
ATOM      8  C   UNL     1       5.288   5.299  17.989  0.00  0.00    +0.000 A 
ATOM      9  C   UNL     1       4.927   5.604  16.575  0.00  0.00    +0.000 C 
ENDROOT
BRANCH   7  10
ATOM     10  C   UNL     1       3.375   3.888  19.067  0.00  0.00    +0.000 A 
ATOM     11  C   UNL     1       2.319   4.383  19.852  0.00  0.00    +0.000 A 
ATOM     12  C   UNL     1       1.071   3.753  19.850  0.00  0.00    +0.000 A 
ATOM     13  C   UNL     1       0.859   2.617  19.070  0.00  0.00    +0.000 A 
ATOM     14  C   UNL     1       1.891   2.122  18.283  0.00  0.00    +0.000 A 
ATOM     15  C   UNL     1       3.126   2.764  18.278  0.00  0.00    +0.000 A 
ATOM     16  F   UNL     1       4.070   2.271  17.458  0.00  0.00    +0.000 F 
ENDBRANCH   7  10
BRANCH   1  20
ATOM     17  N   UNL     1       6.118   3.793  12.663  0.00  0.00    +0.000 NA
ATOM     18  C   UNL     1       7.119   4.860  12.827  0.00  0.00    +0.000 C 
ATOM     19  C   UNL     1       7.855   4.856  14.169  0.00  0.00    +0.000 C 
ATOM     20  C   UNL     1       6.944   4.755  15.408  0.00  0.00    +0.000 C 
ATOM     21  C   UNL     1       6.025   3.542  15.151  0.00  0.00    +0.000 C 
ATOM     22  C   UNL     1       5.246   3.674  13.844  0.00  0.00    +0.000 C 
BRANCH  17  24
ATOM     23  C   UNL     1       4.007   3.183  11.417  0.00  0.00    +0.000 C 
ATOM     24  C   UNL     1       5.268   4.038  11.477  0.00  0.00    +0.000 C 
ENDBRANCH  17  24
ENDBRANCH   1  20
TORSDOF 3
ENDMDL
MODEL 5
REMARK VINA RESULT:      -7.5      1.392      1.554
REMARK  Name = 
REMARK  4 active torsions:
REMARK  status: ('A' for Active; 'I' for Inactive)
REMARK    1  A    between atoms: C_1  and  C_2
REMARK    2  A    between atoms: C_2  and  N_3
REMARK    3  A    between atoms: C_6  and  N_7
REMARK    4  A    between atoms: C_13  and  C_14
REMARK                            x       y       z     vdW  Elec       q    Type
REMARK                         _______ _______ _______ _____ _____    ______ ____
ROOT
ATOM      1  N   UNL     1       4.182   3.535  17.889  0.00  0.00    +0.000 NA
ATOM      2  C   UNL     1       4.698   4.653  18.733  0.00  0.00    +0.000 C 
ATOM      3  C   UNL     1       4.684   6.066  18.083  0.00  0.00    +0.000 C 
ATOM      4  C   UNL     1       5.026   5.904  16.660  0.00  0.00    +0.000 A 
ATOM      5  O   UNL     1       5.155   6.955  15.830  0.00  0.00    +0.000 OA
ATOM      6  N   UNL     1       5.471   6.478  14.567  0.00  0.00    +0.000 NA
ATOM      7  C   UNL     1       5.551   5.136  14.671  0.00  0.00    +0.000 A 
ATOM      8  C   UNL     1       5.205   4.725  15.988  0.00  0.00    +0.000 A 
ATOM      9  C   UNL     1       5.058   3.409  16.672  0.00  0.00    +0.000 C 
ENDROOT
BRANCH   7  10
ATOM     10  C   UNL     1       5.953   4.320  13.520  0.00  0.00    +0.000 A 
ATOM     11  C   UNL     1       5.063   3.395  12.949  0.00  0.00    +0.000 A 
ATOM     12  C   UNL     1       5.436   2.639  11.832  0.00  0.00    +0.000 A 
ATOM     13  C   UNL     1       6.704   2.794  11.272  0.00  0.00    +0.000 A 
ATOM     14  C   UNL     1       7.590   3.711  11.822  0.00  0.00    +0.000 A 
ATOM     15  C   UNL     1       7.206   4.470  12.924  0.00  0.00    +0.000 A 
ATOM     16  F   UNL     1       8.086   5.378  13.380  0.00  0.00    +0.000 F 
ENDBRANCH   7  10
BRANCH   1  20
ATOM     17  N   UNL     1       1.042   3.105  19.978  0.00  0.00    +0.000 NA
ATOM     18  C   UNL     1       1.570   4.446  19.677  0.00  0.00    +0.000 C 
ATOM     19  C   UNL     1       1.889   4.700  18.202  0.00  0.00    +0.000 C 
ATOM     20  C   UNL     1       2.738   3.607  17.525  0.00  0.00    +0.000 C 
ATOM     21  C   UNL     1       2.020   2.275  17.828  0.00  0.00    +0.000 C 
ATOM     22  C   UNL     1       1.834   2.047  19.327  0.00  0.00    +0.000 C 
BRANCH  17  24
ATOM     23  C   UNL     1       2.390   2.492  22.024  0.00  0.00    +0.000 C 
ATOM     24  C   UNL     1       1.030   2.852  21.436  0.00  0.00    +0.000 C 
ENDBRANCH  17  24
ENDBRANCH   1  20
TORSDOF 3
ENDMDL
MODEL 6
REMARK VINA RESULT:      -7.5      2.600      6.640
REMARK  Name = 
REMARK  4 active torsions:
REMARK  status: ('A' for Active; 'I' for Inactive)
REMARK    1  A    between atoms: C_1  and  C_2
REMARK    2  A    between atoms: C_2  and  N_3
REMARK    3  A    between atoms: C_6  and  N_7
REMARK    4  A    between atoms: C_13  and  C_14
REMARK                            x       y       z     vdW  Elec       q    Type
REMARK                         _______ _______ _______ _____ _____    ______ ____
ROOT
ATOM      1  N   UNL     1       6.217   5.999  15.819  0.00  0.00    +0.000 NA
ATOM      2  C   UNL     1       6.974   7.034  16.585  0.00  0.00    +0.000 C 
ATOM      3  C   UNL     1       7.495   6.606  17.987  0.00  0.00    +0.000 C 
ATOM      4  C   UNL     1       6.473   5.737  18.595  0.00  0.00    +0.000 A 
ATOM      5  O   UNL     1       6.600   5.245  19.840  0.00  0.00    +0.000 OA
ATOM      6  N   UNL     1       5.487   4.465  20.117  0.00  0.00    +0.000 NA
ATOM      7  C   UNL     1       4.693   4.525  19.029  0.00  0.00    +0.000 A 
ATOM      8  C   UNL     1       5.326   5.280  18.003  0.00  0.00    +0.000 A 
ATOM      9  C   UNL     1       4.981   5.636  16.597  0.00  0.00    +0.000 C 
ENDROOT
BRANCH   7  10
ATOM     10  C   UNL     1       3.382   3.868  19.023  0.00  0.00    +0.000 A 
ATOM     11  C   UNL     1       3.142   2.749  18.208  0.00  0.00    +0.000 A 
ATOM     12  C   UNL     1       1.901   2.104  18.226  0.00  0.00    +0.000 A 
ATOM     13  C   UNL     1       0.881   2.569  19.055  0.00  0.00    +0.000 A 
ATOM     14  C   UNL     1       1.107   3.669  19.872  0.00  0.00    +0.000 A 
ATOM     15  C   UNL     1       2.350   4.297  19.860  0.00  0.00    +0.000 A 
ATOM     16  F   UNL     1       2.527   5.323  20.709  0.00  0.00    +0.000 F 
ENDBRANCH   7  10
BRANCH   1  20
ATOM     17  N   UNL     1       6.030   3.815  12.721  0.00  0.00    +0.000 NA
ATOM     18  C   UNL     1       7.037   4.885  12.830  0.00  0.00    +0.000 C 
ATOM     19  C   UNL     1       7.839   4.887  14.133  0.00  0.00    +0.000 C 
ATOM     20  C   UNL     1       6.992   4.791  15.417  0.00  0.00    +0.000 C 
ATOM     21  C   UNL     1       6.063   3.576  15.212  0.00  0.00    +0.000 C 
ATOM     22  C   UNL     1       5.219   3.701  13.945  0.00  0.00    +0.000 C 
BRANCH  17  24
ATOM     23  C   UNL     1       4.130   2.926  11.314  0.00  0.00    +0.000 C 
ATOM     24  C   UNL     1       5.122   4.054  11.578  0.00  0.00    +0.000 C 
ENDBRANCH  17  24
ENDBRANCH   1  20
TORSDOF 3
ENDMDL
MODEL 7
REMARK VINA RESULT:      -7.5      3.078      4.437
REMARK  Name = 
REMARK  4 active torsions:
REMARK  status: ('A' for Active; 'I' for Inactive)
REMARK    1  A    between atoms: C_1  and  C_2
REMARK    2  A    between atoms: C_2  and  N_3
REMARK    3  A    between atoms: C_6  and  N_7
REMARK    4  A    between atoms: C_13  and  C_14
REMARK                            x       y       z     vdW  Elec       q    Type
REMARK                         _______ _______ _______ _____ _____    ______ ____
ROOT
ATOM      1  N   UNL     1       1.821   6.215  18.882  0.00  0.00    +0.000 NA
ATOM      2  C   UNL     1       1.433   5.178  19.884  0.00  0.00    +0.000 C 
ATOM      3  C   UNL     1       2.600   4.506  20.663  0.00  0.00    +0.000 C 
ATOM      4  C   UNL     1       3.725   4.343  19.725  0.00  0.00    +0.000 A 
ATOM      5  O   UNL     1       4.871   3.737  20.081  0.00  0.00    +0.000 OA
ATOM      6  N   UNL     1       5.727   3.748  18.990  0.00  0.00    +0.000 NA
ATOM      7  C   UNL     1       5.061   4.347  17.982  0.00  0.00    +0.000 A 
ATOM      8  C   UNL     1       3.793   4.804  18.438  0.00  0.00    +0.000 A 
ATOM      9  C   UNL     1       2.669   5.564  17.822  0.00  0.00    +0.000 C 
ENDROOT
BRANCH   7  10
ATOM     10  C   UNL     1       5.659   4.450  16.648  0.00  0.00    +0.000 A 
ATOM     11  C   UNL     1       4.973   3.985  15.514  0.00  0.00    +0.000 A 
ATOM     12  C   UNL     1       5.531   4.113  14.237  0.00  0.00    +0.000 A 
ATOM     13  C   UNL     1       6.785   4.702  14.076  0.00  0.00    +0.000 A 
ATOM     14  C   UNL     1       7.471   5.174  15.187  0.00  0.00    +0.000 A 
ATOM     15  C   UNL     1       6.902   5.057  16.453  0.00  0.00    +0.000 A 
ATOM     16  F   UNL     1       7.588   5.578  17.484  0.00  0.00    +0.000 F 
ENDBRANCH   7  10
BRANCH   1  20
ATOM     17  N   UNL     1       0.533   9.762  19.291  0.00  0.00    +0.000 NA
ATOM     18  C   UNL     1       0.509   8.816  20.420  0.00  0.00    +0.000 C 
ATOM     19  C   UNL     1       1.827   8.083  20.677  0.00  0.00    +0.000 C 
ATOM     20  C   UNL     1       2.467   7.441  19.431  0.00  0.00    +0.000 C 
ATOM     21  C   UNL     1       2.527   8.561  18.372  0.00  0.00    +0.000 C 
ATOM     22  C   UNL     1       1.154   9.169  18.094  0.00  0.00    +0.000 C 
BRANCH  17  24
ATOM     23  C   UNL     1      -1.235   9.925  17.495  0.00  0.00    +0.000 C 
ATOM     24  C   UNL     1      -0.834  10.206  18.939  0.00  0.00    +0.000 C 
ENDBRANCH  17  24
ENDBRANCH   1  20
TORSDOF 3
ENDMDL
MODEL 8
REMARK VINA RESULT:      -7.3      0.983      1.384
REMARK  Name = 
REMARK  4 active torsions:
REMARK  status: ('A' for Active; 'I' for Inactive)
REMARK    1  A    between atoms: C_1  and  C_2
REMARK    2  A    between atoms: C_2  and  N_3
REMARK    3  A    between atoms: C_6  and  N_7
REMARK    4  A    between atoms: C_13  and  C_14
REMARK                            x       y       z     vdW  Elec       q    Type
REMARK                         _______ _______ _______ _____ _____    ______ ____
ROOT
ATOM      1  N   UNL     1       4.728   3.950  18.380  0.00  0.00    +0.000 NA
ATOM      2  C   UNL     1       5.795   4.237  19.384  0.00  0.00    +0.000 C 
ATOM      3  C   UNL     1       6.675   5.491  19.110  0.00  0.00    +0.000 C 
ATOM      4  C   UNL     1       6.891   5.574  17.656  0.00  0.00    +0.000 A 
ATOM      5  O   UNL     1       7.665   6.522  17.100  0.00  0.00    +0.000 OA
ATOM      6  N   UNL     1       7.662   6.338  15.726  0.00  0.00    +0.000 NA
ATOM      7  C   UNL     1       6.897   5.255  15.483  0.00  0.00    +0.000 A 
ATOM      8  C   UNL     1       6.328   4.776  16.696  0.00  0.00    +0.000 A 
ATOM      9  C   UNL     1       5.381   3.681  17.050  0.00  0.00    +0.000 C 
ENDROOT
BRANCH   7  10
ATOM     10  C   UNL     1       6.749   4.735  14.120  0.00  0.00    +0.000 A 
ATOM     11  C   UNL     1       7.784   4.873  13.181  0.00  0.00    +0.000 A 
ATOM     12  C   UNL     1       7.655   4.348  11.891  0.00  0.00    +0.000 A 
ATOM     13  C   UNL     1       6.488   3.683  11.518  0.00  0.00    +0.000 A 
ATOM     14  C   UNL     1       5.459   3.531  12.439  0.00  0.00    +0.000 A 
ATOM     15  C   UNL     1       5.602   4.043  13.726  0.00  0.00    +0.000 A 
ATOM     16  F   UNL     1       4.596   3.821  14.590  0.00  0.00    +0.000 F 
ENDBRANCH   7  10
BRANCH   1  20
ATOM     17  N   UNL     1       1.278   4.132  19.951  0.00  0.00    +0.000 NA
ATOM     18  C   UNL     1       2.415   4.857  20.543  0.00  0.00    +0.000 C 
ATOM     19  C   UNL     1       3.226   5.701  19.558  0.00  0.00    +0.000 C 
ATOM     20  C   UNL     1       3.646   4.969  18.268  0.00  0.00    +0.000 C 
ATOM     21  C   UNL     1       2.352   4.350  17.701  0.00  0.00    +0.000 C 
ATOM     22  C   UNL     1       1.659   3.436  18.710  0.00  0.00    +0.000 C 
BRANCH  17  24
ATOM     23  C   UNL     1       1.781   2.453  21.771  0.00  0.00    +0.000 C 
ATOM     24  C   UNL     1       0.732   3.134  20.898  0.00  0.00    +0.000 C 
ENDBRANCH  17  24
ENDBRANCH   1  20
TORSDOF 3
ENDMDL
MODEL 9
REMARK VINA RESULT:      -7.0      3.244      4.798
REMARK  Name = 
REMARK  4 active torsions:
REMARK  status: ('A' for Active; 'I' for Inactive)
REMARK    1  A    between atoms: C_1  and  C_2
REMARK    2  A    between atoms: C_2  and  N_3
REMARK    3  A    between atoms: C_6  and  N_7
REMARK    4  A    between atoms: C_13  and  C_14
REMARK                            x       y       z     vdW  Elec       q    Type
REMARK                         _______ _______ _______ _____ _____    ______ ____
ROOT
ATOM      1  N   UNL     1       1.595   6.197  19.165  0.00  0.00    +0.000 NA
ATOM      2  C   UNL     1       1.150   5.121  20.099  0.00  0.00    +0.000 C 
ATOM      3  C   UNL     1       2.274   4.393  20.892  0.00  0.00    +0.000 C 
ATOM      4  C   UNL     1       3.434   4.257  19.996  0.00  0.00    +0.000 A 
ATOM      5  O   UNL     1       4.556   3.615  20.369  0.00  0.00    +0.000 OA
ATOM      6  N   UNL     1       5.457   3.664  19.317  0.00  0.00    +0.000 NA
ATOM      7  C   UNL     1       4.843   4.321  18.312  0.00  0.00    +0.000 A 
ATOM      8  C   UNL     1       3.564   4.776  18.736  0.00  0.00    +0.000 A 
ATOM      9  C   UNL     1       2.478   5.583  18.111  0.00  0.00    +0.000 C 
ENDROOT
BRANCH   7  10
ATOM     10  C   UNL     1       5.499   4.477  17.010  0.00  0.00    +0.000 A 
ATOM     11  C   UNL     1       6.804   4.988  16.919  0.00  0.00    +0.000 A 
ATOM     12  C   UNL     1       7.441   5.108  15.679  0.00  0.00    +0.000 A 
ATOM     13  C   UNL     1       6.781   4.724  14.512  0.00  0.00    +0.000 A 
ATOM     14  C   UNL     1       5.494   4.209  14.588  0.00  0.00    +0.000 A 
ATOM     15  C   UNL     1       4.873   4.079  15.827  0.00  0.00    +0.000 A 
ATOM     16  F   UNL     1       3.647   3.526  15.844  0.00  0.00    +0.000 F 
ENDBRANCH   7  10
BRANCH   1  20
ATOM     17  N   UNL     1       0.403   9.779  19.559  0.00  0.00    +0.000 NA
ATOM     18  C   UNL     1       0.250   8.808  20.656  0.00  0.00    +0.000 C 
ATOM     19  C   UNL     1       1.514   8.021  21.004  0.00  0.00    +0.000 C 
ATOM     20  C   UNL     1       2.235   7.385  19.798  0.00  0.00    +0.000 C 
ATOM     21  C   UNL     1       2.424   8.527  18.778  0.00  0.00    +0.000 C 
ATOM     22  C   UNL     1       1.101   9.192  18.403  0.00  0.00    +0.000 C 
BRANCH  17  24
ATOM     23  C   UNL     1      -1.218  10.014  17.635  0.00  0.00    +0.000 C 
ATOM     24  C   UNL     1      -0.913  10.282  19.106  0.00  0.00    +0.000 C 
ENDBRANCH  17  24
ENDBRANCH   1  20
TORSDOF 3
ENDMDL
