MODEL 1
REMARK VINA RESULT:      -6.7      0.000      0.000
REMARK  Name = 
REMARK  4 active torsions:
REMARK  status: ('A' for Active; 'I' for Inactive)
REMARK    1  A    between atoms: C_1  and  C_2
REMARK    2  A    between atoms: C_5  and  S_6
REMARK    3  A    between atoms: S_6  and  C_9
REMARK    4  A    between atoms: C_12  and  C_13
REMARK                            x       y       z     vdW  Elec       q    Type
REMARK                         _______ _______ _______ _____ _____    ______ ____
ROOT
ATOM      1  C   UNL     1      -3.537  14.561  22.626  0.00  0.00    +0.000 A 
ATOM      2  C   UNL     1      -3.667  13.584  21.632  0.00  0.00    +0.000 A 
ATOM      3  C   UNL     1      -2.754  12.509  21.583  0.00  0.00    +0.000 A 
ATOM      4  C   UNL     1      -1.681  12.432  22.482  0.00  0.00    +0.000 A 
ATOM      5  C   UNL     1      -1.500  13.517  23.344  0.00  0.00    +0.000 A 
ATOM      6  C   UNL     1      -2.454  14.525  23.492  0.00  0.00    +0.000 A 
ENDROOT
BRANCH   4   7
ATOM      7  C   UNL     1      -0.724  11.260  22.455  0.00  0.00    +0.000 C 
ATOM      8  O   UNL     1      -0.721  10.520  23.440  0.00  0.00    +0.000 OA
ATOM      9  N   UNL     1       0.086  10.998  21.321  0.00  0.00    +0.000 N 
ATOM     10  C   UNL     1       0.829   9.746  21.259  0.00  0.00    +0.000 C 
ATOM     11  C   UNL     1       1.125   9.262  19.875  0.00  0.00    +0.000 A 
ATOM     12  C   UNL     1       2.039   8.277  19.505  0.00  0.00    +0.000 A 
ATOM     13  C   UNL     1       2.056   8.179  18.102  0.00  0.00    +0.000 A 
ATOM     14  C   UNL     1       1.126   9.085  17.629  0.00  0.00    +0.000 A 
ATOM     15  N   UNL     1       0.551   9.740  18.692  0.00  0.00    +0.000 N 
ATOM     16  C   UNL     1      -0.490  10.759  18.564  0.00  0.00    +0.000 C 
ATOM     17  C   UNL     1      -0.058  12.054  19.186  0.00  0.00    +0.000 A 
ATOM     18  C   UNL     1      -0.433  13.304  18.674  0.00  0.00    +0.000 A 
ATOM     19  C   UNL     1      -0.051  14.483  19.338  0.00  0.00    +0.000 A 
ATOM     20  C   UNL     1       0.794  14.419  20.442  0.00  0.00    +0.000 A 
ATOM     21  C   UNL     1       1.078  13.198  21.018  0.00  0.00    +0.000 A 
ATOM     22  C   UNL     1       0.512  12.044  20.463  0.00  0.00    +0.000 A 
ENDBRANCH   4   7
BRANCH   1  23
ATOM     23  S   UNL     1      -4.665  15.933  22.731  0.00  0.00    +0.000 S 
ATOM     24  O   UNL     1      -3.851  17.079  23.094  0.00  0.00    +0.000 OA
ATOM     25  O   UNL     1      -5.778  15.524  23.563  0.00  0.00    +0.000 OA
BRANCH  23  30
ATOM     26  C   UNL     1      -6.970  16.960  17.209  0.00  0.00    +0.000 C 
ATOM     27  C   UNL     1      -6.409  16.724  18.581  0.00  0.00    +0.000 A 
ATOM     28  C   UNL     1      -5.283  17.429  19.024  0.00  0.00    +0.000 A 
ATOM     29  C   UNL     1      -4.752  17.188  20.291  0.00  0.00    +0.000 A 
ATOM     30  C   UNL     1      -5.344  16.232  21.117  0.00  0.00    +0.000 A 
ATOM     31  C   UNL     1      -6.487  15.542  20.705  0.00  0.00    +0.000 A 
ATOM     32  C   UNL     1      -7.010  15.784  19.432  0.00  0.00    +0.000 A 
ENDBRANCH  23  30
ENDBRANCH   1  23
TORSDOF 3
ENDMDL
MODEL 2
REMARK VINA RESULT:      -6.6      2.827      4.059
REMARK  Name = 
REMARK  4 active torsions:
REMARK  status: ('A' for Active; 'I' for Inactive)
REMARK    1  A    between atoms: C_1  and  C_2
REMARK    2  A    between atoms: C_5  and  S_6
REMARK    3  A    between atoms: S_6  and  C_9
REMARK    4  A    between atoms: C_12  and  C_13
REMARK                            x       y       z     vdW  Elec       q    Type
REMARK                         _______ _______ _______ _____ _____    ______ ____
ROOT
ATOM      1  C   UNL     1      -4.219  12.763  21.447  0.00  0.00    +0.000 A 
ATOM      2  C   UNL     1      -3.523  12.549  22.641  0.00  0.00    +0.000 A 
ATOM      3  C   UNL     1      -2.112  12.496  22.631  0.00  0.00    +0.000 A 
ATOM      4  C   UNL     1      -1.397  12.600  21.430  0.00  0.00    +0.000 A 
ATOM      5  C   UNL     1      -2.144  12.645  20.251  0.00  0.00    +0.000 A 
ATOM      6  C   UNL     1      -3.528  12.820  20.246  0.00  0.00    +0.000 A 
ENDROOT
BRANCH   4   7
ATOM      7  C   UNL     1       0.117  12.583  21.421  0.00  0.00    +0.000 C 
ATOM      8  O   UNL     1       0.664  11.523  21.731  0.00  0.00    +0.000 OA
ATOM      9  N   UNL     1       0.862  13.719  21.016  0.00  0.00    +0.000 N 
ATOM     10  C   UNL     1       2.301  13.586  20.822  0.00  0.00    +0.000 C 
ATOM     11  C   UNL     1       2.893  14.554  19.847  0.00  0.00    +0.000 A 
ATOM     12  C   UNL     1       4.242  14.855  19.674  0.00  0.00    +0.000 A 
ATOM     13  C   UNL     1       4.360  15.867  18.705  0.00  0.00    +0.000 A 
ATOM     14  C   UNL     1       3.079  16.155  18.273  0.00  0.00    +0.000 A 
ATOM     15  N   UNL     1       2.185  15.362  18.951  0.00  0.00    +0.000 N 
ATOM     16  C   UNL     1       0.738  15.385  18.736  0.00  0.00    +0.000 C 
ATOM     17  C   UNL     1       0.008  15.705  20.007  0.00  0.00    +0.000 A 
ATOM     18  C   UNL     1      -1.179  16.450  20.034  0.00  0.00    +0.000 A 
ATOM     19  C   UNL     1      -1.853  16.663  21.250  0.00  0.00    +0.000 A 
ATOM     20  C   UNL     1      -1.287  16.232  22.446  0.00  0.00    +0.000 A 
ATOM     21  C   UNL     1      -0.181  15.407  22.422  0.00  0.00    +0.000 A 
ATOM     22  C   UNL     1       0.353  15.032  21.184  0.00  0.00    +0.000 A 
ENDBRANCH   4   7
BRANCH   1  23
ATOM     23  S   UNL     1      -5.997  12.841  21.411  0.00  0.00    +0.000 S 
ATOM     24  O   UNL     1      -6.363  13.832  22.407  0.00  0.00    +0.000 OA
ATOM     25  O   UNL     1      -6.497  11.484  21.500  0.00  0.00    +0.000 OA
BRANCH  23  30
ATOM     26  C   UNL     1      -7.746  14.895  15.972  0.00  0.00    +0.000 C 
ATOM     27  C   UNL     1      -7.295  14.381  17.309  0.00  0.00    +0.000 A 
ATOM     28  C   UNL     1      -7.337  13.012  17.599  0.00  0.00    +0.000 A 
ATOM     29  C   UNL     1      -6.940  12.542  18.850  0.00  0.00    +0.000 A 
ATOM     30  C   UNL     1      -6.506  13.446  19.820  0.00  0.00    +0.000 A 
ATOM     31  C   UNL     1      -6.426  14.812  19.539  0.00  0.00    +0.000 A 
ATOM     32  C   UNL     1      -6.832  15.276  18.284  0.00  0.00    +0.000 A 
ENDBRANCH  23  30
ENDBRANCH   1  23
TORSDOF 3
ENDMDL
MODEL 3
REMARK VINA RESULT:      -6.6      4.504      9.125
REMARK  Name = 
REMARK  4 active torsions:
REMARK  status: ('A' for Active; 'I' for Inactive)
REMARK    1  A    between atoms: C_1  and  C_2
REMARK    2  A    between atoms: C_5  and  S_6
REMARK    3  A    between atoms: S_6  and  C_9
REMARK    4  A    between atoms: C_12  and  C_13
REMARK                            x       y       z     vdW  Elec       q    Type
REMARK                         _______ _______ _______ _____ _____    ______ ____
ROOT
ATOM      1  C   UNL     1       1.136   6.943  21.041  0.00  0.00    +0.000 A 
ATOM      2  C   UNL     1      -0.242   7.171  21.134  0.00  0.00    +0.000 A 
ATOM      3  C   UNL     1      -0.717   8.433  21.551  0.00  0.00    +0.000 A 
ATOM      4  C   UNL     1       0.172   9.449  21.928  0.00  0.00    +0.000 A 
ATOM      5  C   UNL     1       1.528   9.116  21.977  0.00  0.00    +0.000 A 
ATOM      6  C   UNL     1       2.027   7.922  21.456  0.00  0.00    +0.000 A 
ENDROOT
BRANCH   4   7
ATOM      7  C   UNL     1      -0.335  10.815  22.338  0.00  0.00    +0.000 C 
ATOM      8  O   UNL     1      -0.896  10.896  23.432  0.00  0.00    +0.000 OA
ATOM      9  N   UNL     1      -0.118  11.954  21.523  0.00  0.00    +0.000 N 
ATOM     10  C   UNL     1      -0.435  13.273  22.056  0.00  0.00    +0.000 C 
ATOM     11  C   UNL     1       0.355  14.396  21.459  0.00  0.00    +0.000 A 
ATOM     12  C   UNL     1       0.084  15.759  21.554  0.00  0.00    +0.000 A 
ATOM     13  C   UNL     1       1.033  16.463  20.791  0.00  0.00    +0.000 A 
ATOM     14  C   UNL     1       1.895  15.522  20.262  0.00  0.00    +0.000 A 
ATOM     15  N   UNL     1       1.500  14.269  20.665  0.00  0.00    +0.000 N 
ATOM     16  C   UNL     1       2.194  13.033  20.306  0.00  0.00    +0.000 C 
ATOM     17  C   UNL     1       1.276  12.086  19.591  0.00  0.00    +0.000 A 
ATOM     18  C   UNL     1       1.713  11.230  18.571  0.00  0.00    +0.000 A 
ATOM     19  C   UNL     1       0.820  10.317  17.982  0.00  0.00    +0.000 A 
ATOM     20  C   UNL     1      -0.528  10.339  18.329  0.00  0.00    +0.000 A 
ATOM     21  C   UNL     1      -0.947  11.096  19.403  0.00  0.00    +0.000 A 
ATOM     22  C   UNL     1       0.002  11.840  20.114  0.00  0.00    +0.000 A 
ENDBRANCH   4   7
BRANCH   1  23
ATOM     23  S   UNL     1       1.783   5.370  20.517  0.00  0.00    +0.000 S 
ATOM     24  O   UNL     1       0.629   4.601  20.085  0.00  0.00    +0.000 OA
ATOM     25  O   UNL     1       2.646   4.878  21.571  0.00  0.00    +0.000 OA
BRANCH  23  30
ATOM     26  C   UNL     1       5.364   6.275  15.699  0.00  0.00    +0.000 C 
ATOM     27  C   UNL     1       4.462   6.051  16.878  0.00  0.00    +0.000 A 
ATOM     28  C   UNL     1       3.717   7.106  17.419  0.00  0.00    +0.000 A 
ATOM     29  C   UNL     1       2.899   6.898  18.529  0.00  0.00    +0.000 A 
ATOM     30  C   UNL     1       2.830   5.629  19.106  0.00  0.00    +0.000 A 
ATOM     31  C   UNL     1       3.541   4.557  18.562  0.00  0.00    +0.000 A 
ATOM     32  C   UNL     1       4.363   4.775  17.453  0.00  0.00    +0.000 A 
ENDBRANCH  23  30
ENDBRANCH   1  23
TORSDOF 3
ENDMDL
MODEL 4
REMARK VINA RESULT:      -6.6      3.339      4.310
REMARK  Name = 
REMARK  4 active torsions:
REMARK  status: ('A' for Active; 'I' for Inactive)
REMARK    1  A    between atoms: C_1  and  C_2
REMARK    2  A    between atoms: C_5  and  S_6
REMARK    3  A    between atoms: S_6  and  C_9
REMARK    4  A    between atoms: C_12  and  C_13
REMARK                            x       y       z     vdW  Elec       q    Type
REMARK                         _______ _______ _______ _____ _____    ______ ____
ROOT
ATOM      1  C   UNL     1      -3.995  12.678  22.525  0.00  0.00    +0.000 A 
ATOM      2  C   UNL     1      -3.028  12.278  23.454  0.00  0.00    +0.000 A 
ATOM      3  C   UNL     1      -1.667  12.253  23.083  0.00  0.00    +0.000 A 
ATOM      4  C   UNL     1      -1.271  12.571  21.776  0.00  0.00    +0.000 A 
ATOM      5  C   UNL     1      -2.287  12.801  20.846  0.00  0.00    +0.000 A 
ATOM      6  C   UNL     1      -3.625  12.949  21.217  0.00  0.00    +0.000 A 
ENDROOT
BRANCH   4   7
ATOM      7  C   UNL     1       0.191  12.583  21.387  0.00  0.00    +0.000 C 
ATOM      8  O   UNL     1       0.795  11.511  21.453  0.00  0.00    +0.000 OA
ATOM      9  N   UNL     1       0.816  13.764  20.912  0.00  0.00    +0.000 N 
ATOM     10  C   UNL     1       2.159  13.676  20.353  0.00  0.00    +0.000 C 
ATOM     11  C   UNL     1       2.491  14.738  19.352  0.00  0.00    +0.000 A 
ATOM     12  C   UNL     1       3.755  15.078  18.874  0.00  0.00    +0.000 A 
ATOM     13  C   UNL     1       3.629  16.175  18.002  0.00  0.00    +0.000 A 
ATOM     14  C   UNL     1       2.281  16.475  17.933  0.00  0.00    +0.000 A 
ATOM     15  N   UNL     1       1.583  15.608  18.739  0.00  0.00    +0.000 N 
ATOM     16  C   UNL     1       0.130  15.623  18.897  0.00  0.00    +0.000 C 
ATOM     17  C   UNL     1      -0.256  15.816  20.334  0.00  0.00    +0.000 A 
ATOM     18  C   UNL     1      -1.395  16.533  20.725  0.00  0.00    +0.000 A 
ATOM     19  C   UNL     1      -1.742  16.625  22.085  0.00  0.00    +0.000 A 
ATOM     20  C   UNL     1      -0.894  16.100  23.057  0.00  0.00    +0.000 A 
ATOM     21  C   UNL     1       0.166  15.302  22.682  0.00  0.00    +0.000 A 
ATOM     22  C   UNL     1       0.371  15.048  21.321  0.00  0.00    +0.000 A 
ENDBRANCH   4   7
BRANCH   1  23
ATOM     23  S   UNL     1      -5.724  12.728  22.948  0.00  0.00    +0.000 S 
ATOM     24  O   UNL     1      -5.822  12.097  24.252  0.00  0.00    +0.000 OA
ATOM     25  O   UNL     1      -6.467  12.209  21.818  0.00  0.00    +0.000 OA
BRANCH  23  30
ATOM     26  C   UNL     1      -7.388  18.537  23.534  0.00  0.00    +0.000 C 
ATOM     27  C   UNL     1      -6.977  17.098  23.410  0.00  0.00    +0.000 A 
ATOM     28  C   UNL     1      -5.660  16.705  23.677  0.00  0.00    +0.000 A 
ATOM     29  C   UNL     1      -5.278  15.371  23.537  0.00  0.00    +0.000 A 
ATOM     30  C   UNL     1      -6.216  14.426  23.120  0.00  0.00    +0.000 A 
ATOM     31  C   UNL     1      -7.542  14.793  22.881  0.00  0.00    +0.000 A 
ATOM     32  C   UNL     1      -7.916  16.132  23.018  0.00  0.00    +0.000 A 
ENDBRANCH  23  30
ENDBRANCH   1  23
TORSDOF 3
ENDMDL
MODEL 5
REMARK VINA RESULT:      -6.5      3.108      8.606
REMARK  Name = 
REMARK  4 active torsions:
REMARK  status: ('A' for Active; 'I' for Inactive)
REMARK    1  A    between atoms: C_1  and  C_2
REMARK    2  A    between atoms: C_5  and  S_6
REMARK    3  A    between atoms: S_6  and  C_9
REMARK    4  A    between atoms: C_12  and  C_13
REMARK                            x       y       z     vdW  Elec       q    Type
REMARK                         _______ _______ _______ _____ _____    ______ ____
ROOT
ATOM      1  C   UNL     1       0.250  10.947  20.930  0.00  0.00    +0.000 A 
ATOM      2  C   UNL     1       1.238  11.936  20.988  0.00  0.00    +0.000 A 
ATOM      3  C   UNL     1       0.941  13.249  20.564  0.00  0.00    +0.000 A 
ATOM      4  C   UNL     1      -0.316  13.567  20.032  0.00  0.00    +0.000 A 
ATOM      5  C   UNL     1      -1.208  12.509  19.841  0.00  0.00    +0.000 A 
ATOM      6  C   UNL     1      -0.982  11.234  20.362  0.00  0.00    +0.000 A 
ENDROOT
BRANCH   4   7
ATOM      7  C   UNL     1      -0.648  14.983  19.613  0.00  0.00    +0.000 C 
ATOM      8  O   UNL     1      -0.021  15.444  18.658  0.00  0.00    +0.000 OA
ATOM      9  N   UNL     1      -1.677  15.717  20.256  0.00  0.00    +0.000 N 
ATOM     10  C   UNL     1      -2.101  16.988  19.683  0.00  0.00    +0.000 C 
ATOM     11  C   UNL     1      -3.512  17.376  19.994  0.00  0.00    +0.000 A 
ATOM     12  C   UNL     1      -4.095  18.631  19.833  0.00  0.00    +0.000 A 
ATOM     13  C   UNL     1      -5.417  18.581  20.311  0.00  0.00    +0.000 A 
ATOM     14  C   UNL     1      -5.639  17.283  20.732  0.00  0.00    +0.000 A 
ATOM     15  N   UNL     1      -4.496  16.544  20.538  0.00  0.00    +0.000 N 
ATOM     16  C   UNL     1      -4.374  15.122  20.856  0.00  0.00    +0.000 C 
ATOM     17  C   UNL     1      -3.261  14.880  21.832  0.00  0.00    +0.000 A 
ATOM     18  C   UNL     1      -3.314  13.879  22.812  0.00  0.00    +0.000 A 
ATOM     19  C   UNL     1      -2.212  13.657  23.657  0.00  0.00    +0.000 A 
ATOM     20  C   UNL     1      -1.108  14.503  23.600  0.00  0.00    +0.000 A 
ATOM     21  C   UNL     1      -0.998  15.416  22.572  0.00  0.00    +0.000 A 
ATOM     22  C   UNL     1      -2.015  15.477  21.613  0.00  0.00    +0.000 A 
ENDBRANCH   4   7
BRANCH   1  23
ATOM     23  S   UNL     1       0.576   9.278  21.456  0.00  0.00    +0.000 S 
ATOM     24  O   UNL     1      -0.724   8.636  21.541  0.00  0.00    +0.000 OA
ATOM     25  O   UNL     1       1.444   9.344  22.614  0.00  0.00    +0.000 OA
BRANCH  23  30
ATOM     26  C   UNL     1       3.777   6.490  17.116  0.00  0.00    +0.000 C 
ATOM     27  C   UNL     1       2.968   7.174  18.179  0.00  0.00    +0.000 A 
ATOM     28  C   UNL     1       2.412   8.439  17.951  0.00  0.00    +0.000 A 
ATOM     29  C   UNL     1       1.681   9.080  18.951  0.00  0.00    +0.000 A 
ATOM     30  C   UNL     1       1.511   8.457  20.188  0.00  0.00    +0.000 A 
ATOM     31  C   UNL     1       2.031   7.182  20.423  0.00  0.00    +0.000 A 
ATOM     32  C   UNL     1       2.767   6.548  19.419  0.00  0.00    +0.000 A 
ENDBRANCH  23  30
ENDBRANCH   1  23
TORSDOF 3
ENDMDL
MODEL 6
REMARK VINA RESULT:      -6.4      0.861      1.164
REMARK  Name = 
REMARK  4 active torsions:
REMARK  status: ('A' for Active; 'I' for Inactive)
REMARK    1  A    between atoms: C_1  and  C_2
REMARK    2  A    between atoms: C_5  and  S_6
REMARK    3  A    between atoms: S_6  and  C_9
REMARK    4  A    between atoms: C_12  and  C_13
REMARK                            x       y       z     vdW  Elec       q    Type
REMARK                         _______ _______ _______ _____ _____    ______ ____
ROOT
ATOM      1  C   UNL     1      -3.519  14.210  23.082  0.00  0.00    +0.000 A 
ATOM      2  C   UNL     1      -3.769  13.151  22.202  0.00  0.00    +0.000 A 
ATOM      3  C   UNL     1      -2.802  12.137  22.034  0.00  0.00    +0.000 A 
ATOM      4  C   UNL     1      -1.568  12.201  22.695  0.00  0.00    +0.000 A 
ATOM      5  C   UNL     1      -1.304  13.360  23.430  0.00  0.00    +0.000 A 
ATOM      6  C   UNL     1      -2.285  14.313  23.706  0.00  0.00    +0.000 A 
ENDROOT
BRANCH   4   7
ATOM      7  C   UNL     1      -0.546  11.095  22.548  0.00  0.00    +0.000 C 
ATOM      8  O   UNL     1      -0.401  10.337  23.508  0.00  0.00    +0.000 OA
ATOM      9  N   UNL     1       0.166  10.909  21.335  0.00  0.00    +0.000 N 
ATOM     10  C   UNL     1       0.978   9.710  21.171  0.00  0.00    +0.000 C 
ATOM     11  C   UNL     1       1.169   9.273  19.752  0.00  0.00    +0.000 A 
ATOM     12  C   UNL     1       2.104   8.359  19.272  0.00  0.00    +0.000 A 
ATOM     13  C   UNL     1       1.991   8.290  17.871  0.00  0.00    +0.000 A 
ATOM     14  C   UNL     1       0.965   9.143  17.512  0.00  0.00    +0.000 A 
ATOM     15  N   UNL     1       0.455   9.737  18.642  0.00  0.00    +0.000 N 
ATOM     16  C   UNL     1      -0.656  10.688  18.640  0.00  0.00    +0.000 C 
ATOM     17  C   UNL     1      -0.249  11.996  19.252  0.00  0.00    +0.000 A 
ATOM     18  C   UNL     1      -0.749  13.229  18.811  0.00  0.00    +0.000 A 
ATOM     19  C   UNL     1      -0.380  14.417  19.466  0.00  0.00    +0.000 A 
ATOM     20  C   UNL     1       0.570  14.386  20.483  0.00  0.00    +0.000 A 
ATOM     21  C   UNL     1       0.983  13.175  20.997  0.00  0.00    +0.000 A 
ATOM     22  C   UNL     1       0.441  11.998  20.468  0.00  0.00    +0.000 A 
ENDBRANCH   4   7
BRANCH   1  23
ATOM     23  S   UNL     1      -4.709  15.511  23.328  0.00  0.00    +0.000 S 
ATOM     24  O   UNL     1      -4.120  16.393  24.320  0.00  0.00    +0.000 OA
ATOM     25  O   UNL     1      -5.997  14.889  23.564  0.00  0.00    +0.000 OA
BRANCH  23  30
ATOM     26  C   UNL     1      -5.291  18.631  18.153  0.00  0.00    +0.000 C 
ATOM     27  C   UNL     1      -5.154  17.842  19.423  0.00  0.00    +0.000 A 
ATOM     28  C   UNL     1      -6.279  17.537  20.199  0.00  0.00    +0.000 A 
ATOM     29  C   UNL     1      -6.143  16.825  21.391  0.00  0.00    +0.000 A 
ATOM     30  C   UNL     1      -4.875  16.422  21.812  0.00  0.00    +0.000 A 
ATOM     31  C   UNL     1      -3.745  16.689  21.035  0.00  0.00    +0.000 A 
ATOM     32  C   UNL     1      -3.889  17.408  19.845  0.00  0.00    +0.000 A 
ENDBRANCH  23  30
ENDBRANCH   1  23
TORSDOF 3
ENDMDL
MODEL 7
REMARK VINA RESULT:      -6.4      4.746      8.340
REMARK  Name = 
REMARK  4 active torsions:
REMARK  status: ('A' for Active; 'I' for Inactive)
REMARK    1  A    between atoms: C_1  and  C_2
REMARK    2  A    between atoms: C_5  and  S_6
REMARK    3  A    between atoms: S_6  and  C_9
REMARK    4  A    between atoms: C_12  and  C_13
REMARK                            x       y       z     vdW  Elec       q    Type
REMARK                         _______ _______ _______ _____ _____    ______ ____
ROOT
ATOM      1  C   UNL     1       0.708  12.848  20.351  0.00  0.00    +0.000 A 
ATOM      2  C   UNL     1       0.167  13.854  21.160  0.00  0.00    +0.000 A 
ATOM      3  C   UNL     1       1.014  14.829  21.728  0.00  0.00    +0.000 A 
ATOM      4  C   UNL     1       2.403  14.774  21.541  0.00  0.00    +0.000 A 
ATOM      5  C   UNL     1       2.906  13.658  20.866  0.00  0.00    +0.000 A 
ATOM      6  C   UNL     1       2.082  12.753  20.195  0.00  0.00    +0.000 A 
ENDROOT
BRANCH   4   7
ATOM      7  C   UNL     1       3.309  15.839  22.117  0.00  0.00    +0.000 C 
ATOM      8  O   UNL     1       3.263  16.012  23.336  0.00  0.00    +0.000 OA
ATOM      9  N   UNL     1       4.211  16.561  21.293  0.00  0.00    +0.000 N 
ATOM     10  C   UNL     1       5.206  17.421  21.922  0.00  0.00    +0.000 C 
ATOM     11  C   UNL     1       6.449  17.632  21.116  0.00  0.00    +0.000 A 
ATOM     12  C   UNL     1       7.427  18.604  21.316  0.00  0.00    +0.000 A 
ATOM     13  C   UNL     1       8.387  18.498  20.294  0.00  0.00    +0.000 A 
ATOM     14  C   UNL     1       8.001  17.438  19.495  0.00  0.00    +0.000 A 
ATOM     15  N   UNL     1       6.835  16.903  19.986  0.00  0.00    +0.000 N 
ATOM     16  C   UNL     1       6.146  15.755  19.398  0.00  0.00    +0.000 C 
ATOM     17  C   UNL     1       4.740  16.107  19.011  0.00  0.00    +0.000 A 
ATOM     18  C   UNL     1       4.101  15.559  17.891  0.00  0.00    +0.000 A 
ATOM     19  C   UNL     1       2.759  15.879  17.616  0.00  0.00    +0.000 A 
ATOM     20  C   UNL     1       2.095  16.827  18.390  0.00  0.00    +0.000 A 
ATOM     21  C   UNL     1       2.674  17.287  19.554  0.00  0.00    +0.000 A 
ATOM     22  C   UNL     1       3.931  16.794  19.923  0.00  0.00    +0.000 A 
ENDBRANCH   4   7
BRANCH   1  23
ATOM     23  S   UNL     1      -0.322  11.600  19.610  0.00  0.00    +0.000 S 
ATOM     24  O   UNL     1      -0.681  12.118  18.302  0.00  0.00    +0.000 OA
ATOM     25  O   UNL     1      -1.346  11.248  20.572  0.00  0.00    +0.000 OA
BRANCH  23  30
ATOM     26  C   UNL     1       2.993   6.577  18.809  0.00  0.00    +0.000 C 
ATOM     27  C   UNL     1       2.189   7.828  19.017  0.00  0.00    +0.000 A 
ATOM     28  C   UNL     1       1.625   8.116  20.266  0.00  0.00    +0.000 A 
ATOM     29  C   UNL     1       0.860   9.267  20.447  0.00  0.00    +0.000 A 
ATOM     30  C   UNL     1       0.651  10.132  19.372  0.00  0.00    +0.000 A 
ATOM     31  C   UNL     1       1.232   9.878  18.127  0.00  0.00    +0.000 A 
ATOM     32  C   UNL     1       1.993   8.719  17.952  0.00  0.00    +0.000 A 
ENDBRANCH  23  30
ENDBRANCH   1  23
TORSDOF 3
ENDMDL
MODEL 8
REMARK VINA RESULT:      -6.4      3.807      6.784
REMARK  Name = 
REMARK  4 active torsions:
REMARK  status: ('A' for Active; 'I' for Inactive)
REMARK    1  A    between atoms: C_1  and  C_2
REMARK    2  A    between atoms: C_5  and  S_6
REMARK    3  A    between atoms: S_6  and  C_9
REMARK    4  A    between atoms: C_12  and  C_13
REMARK                            x       y       z     vdW  Elec       q    Type
REMARK                         _______ _______ _______ _____ _____    ______ ____
ROOT
ATOM      1  C   UNL     1      -0.310  16.368  23.192  0.00  0.00    +0.000 A 
ATOM      2  C   UNL     1      -0.784  15.921  24.431  0.00  0.00    +0.000 A 
ATOM      3  C   UNL     1      -2.087  15.388  24.532  0.00  0.00    +0.000 A 
ATOM      4  C   UNL     1      -2.937  15.349  23.418  0.00  0.00    +0.000 A 
ATOM      5  C   UNL     1      -2.476  15.958  22.248  0.00  0.00    +0.000 A 
ATOM      6  C   UNL     1      -1.155  16.379  22.093  0.00  0.00    +0.000 A 
ENDROOT
BRANCH   4   7
ATOM      7  C   UNL     1      -4.320  14.741  23.515  0.00  0.00    +0.000 C 
ATOM      8  O   UNL     1      -5.139  15.329  24.223  0.00  0.00    +0.000 OA
ATOM      9  N   UNL     1      -4.667  13.582  22.775  0.00  0.00    +0.000 N 
ATOM     10  C   UNL     1      -6.062  13.161  22.738  0.00  0.00    +0.000 C 
ATOM     11  C   UNL     1      -6.448  12.383  21.519  0.00  0.00    +0.000 A 
ATOM     12  C   UNL     1      -7.601  11.622  21.337  0.00  0.00    +0.000 A 
ATOM     13  C   UNL     1      -7.538  11.000  20.077  0.00  0.00    +0.000 A 
ATOM     14  C   UNL     1      -6.358  11.414  19.487  0.00  0.00    +0.000 A 
ATOM     15  N   UNL     1      -5.695  12.257  20.347  0.00  0.00    +0.000 N 
ATOM     16  C   UNL     1      -4.417  12.900  20.044  0.00  0.00    +0.000 C 
ATOM     17  C   UNL     1      -3.376  12.538  21.062  0.00  0.00    +0.000 A 
ATOM     18  C   UNL     1      -2.021  12.381  20.740  0.00  0.00    +0.000 A 
ATOM     19  C   UNL     1      -1.081  12.106  21.748  0.00  0.00    +0.000 A 
ATOM     20  C   UNL     1      -1.506  11.876  23.054  0.00  0.00    +0.000 A 
ATOM     21  C   UNL     1      -2.816  12.135  23.403  0.00  0.00    +0.000 A 
ATOM     22  C   UNL     1      -3.692  12.614  22.423  0.00  0.00    +0.000 A 
ENDBRANCH   4   7
BRANCH   1  23
ATOM     23  S   UNL     1       1.327  17.045  23.015  0.00  0.00    +0.000 S 
ATOM     24  O   UNL     1       2.045  16.643  24.211  0.00  0.00    +0.000 OA
ATOM     25  O   UNL     1       1.187  18.446  22.673  0.00  0.00    +0.000 OA
BRANCH  23  30
ATOM     26  C   UNL     1       4.014  14.431  18.240  0.00  0.00    +0.000 C 
ATOM     27  C   UNL     1       3.332  15.079  19.410  0.00  0.00    +0.000 A 
ATOM     28  C   UNL     1       3.136  16.465  19.445  0.00  0.00    +0.000 A 
ATOM     29  C   UNL     1       2.523  17.065  20.545  0.00  0.00    +0.000 A 
ATOM     30  C   UNL     1       2.110  16.276  21.619  0.00  0.00    +0.000 A 
ATOM     31  C   UNL     1       2.269  14.888  21.589  0.00  0.00    +0.000 A 
ATOM     32  C   UNL     1       2.889  14.295  20.486  0.00  0.00    +0.000 A 
ENDBRANCH  23  30
ENDBRANCH   1  23
TORSDOF 3
ENDMDL
MODEL 9
REMARK VINA RESULT:      -6.3      6.050      9.807
REMARK  Name = 
REMARK  4 active torsions:
REMARK  status: ('A' for Active; 'I' for Inactive)
REMARK    1  A    between atoms: C_1  and  C_2
REMARK    2  A    between atoms: C_5  and  S_6
REMARK    3  A    between atoms: S_6  and  C_9
REMARK    4  A    between atoms: C_12  and  C_13
REMARK                            x       y       z     vdW  Elec       q    Type
REMARK                         _______ _______ _______ _____ _____    ______ ____
ROOT
ATOM      1  C   UNL     1       5.476  15.493  19.264  0.00  0.00    +0.000 A 
ATOM      2  C   UNL     1       4.780  15.062  20.399  0.00  0.00    +0.000 A 
ATOM      3  C   UNL     1       3.566  14.357  20.251  0.00  0.00    +0.000 A 
ATOM      4  C   UNL     1       3.017  14.127  18.982  0.00  0.00    +0.000 A 
ATOM      5  C   UNL     1       3.664  14.720  17.896  0.00  0.00    +0.000 A 
ATOM      6  C   UNL     1       4.922  15.315  18.005  0.00  0.00    +0.000 A 
ENDROOT
BRANCH   4   7
ATOM      7  C   UNL     1       1.736  13.336  18.820  0.00  0.00    +0.000 C 
ATOM      8  O   UNL     1       1.813  12.271  18.206  0.00  0.00    +0.000 OA
ATOM      9  N   UNL     1       0.521  13.779  19.401  0.00  0.00    +0.000 N 
ATOM     10  C   UNL     1      -0.630  12.884  19.397  0.00  0.00    +0.000 C 
ATOM     11  C   UNL     1      -1.608  13.118  20.504  0.00  0.00    +0.000 A 
ATOM     12  C   UNL     1      -2.910  12.628  20.595  0.00  0.00    +0.000 A 
ATOM     13  C   UNL     1      -3.507  13.143  21.760  0.00  0.00    +0.000 A 
ATOM     14  C   UNL     1      -2.551  13.920  22.387  0.00  0.00    +0.000 A 
ATOM     15  N   UNL     1      -1.397  13.906  21.641  0.00  0.00    +0.000 N 
ATOM     16  C   UNL     1      -0.170  14.608  22.013  0.00  0.00    +0.000 C 
ATOM     17  C   UNL     1       0.244  15.577  20.945  0.00  0.00    +0.000 A 
ATOM     18  C   UNL     1       0.866  16.800  21.229  0.00  0.00    +0.000 A 
ATOM     19  C   UNL     1       1.290  17.638  20.182  0.00  0.00    +0.000 A 
ATOM     20  C   UNL     1       0.994  17.309  18.862  0.00  0.00    +0.000 A 
ATOM     21  C   UNL     1       0.483  16.063  18.565  0.00  0.00    +0.000 A 
ATOM     22  C   UNL     1       0.263  15.158  19.610  0.00  0.00    +0.000 A 
ENDBRANCH   4   7
BRANCH   1  23
ATOM     23  S   UNL     1       7.011  16.383  19.400  0.00  0.00    +0.000 S 
ATOM     24  O   UNL     1       7.257  16.517  20.824  0.00  0.00    +0.000 OA
ATOM     25  O   UNL     1       6.915  17.555  18.554  0.00  0.00    +0.000 OA
BRANCH  23  30
ATOM     26  C   UNL     1      11.456  12.987  17.041  0.00  0.00    +0.000 C 
ATOM     27  C   UNL     1      10.349  13.830  17.605  0.00  0.00    +0.000 A 
ATOM     28  C   UNL     1      10.401  15.226  17.521  0.00  0.00    +0.000 A 
ATOM     29  C   UNL     1       9.381  16.006  18.068  0.00  0.00    +0.000 A 
ATOM     30  C   UNL     1       8.308  15.385  18.709  0.00  0.00    +0.000 A 
ATOM     31  C   UNL     1       8.223  13.992  18.775  0.00  0.00    +0.000 A 
ATOM     32  C   UNL     1       9.251  13.219  18.229  0.00  0.00    +0.000 A 
ENDBRANCH  23  30
ENDBRANCH   1  23
TORSDOF 3
ENDMDL
