MODEL 1
REMARK VINA RESULT:      -8.5      0.000      0.000
REMARK  Name = 
REMARK  5 active torsions:
REMARK  status: ('A' for Active; 'I' for Inactive)
REMARK    1  A    between atoms: C_1  and  N_2
REMARK    2  A    between atoms: N_2  and  C_3
REMARK    3  A    between atoms: N_13  and  C_14
REMARK    4  A    between atoms: C_14  and  C_15
REMARK    5  A    between atoms: C_18  and  C_19
REMARK                            x       y       z     vdW  Elec       q    Type
REMARK                         _______ _______ _______ _____ _____    ______ ____
ROOT
ATOM      1  C   UNL     1       5.937   6.000  16.571  0.00  0.00    +0.000 C 
ATOM      2  N   UNL     1       5.532   4.655  17.003  0.00  0.00    +0.000 N 
ATOM      3  C   UNL     1       5.511   3.696  15.899  0.00  0.00    +0.000 C 
ATOM      4  C   UNL     1       5.235   4.484  18.369  0.00  0.00    +0.000 C 
ATOM      5  O   UNL     1       5.743   5.263  19.179  0.00  0.00    +0.000 OA
ATOM      6  N   UNL     1       4.373   3.462  18.813  0.00  0.00    +0.000 N 
ATOM      7  C   UNL     1       3.734   2.531  17.949  0.00  0.00    +0.000 C 
ATOM      8  C   UNL     1       2.314   3.006  17.635  0.00  0.00    +0.000 C 
ATOM      9  C   UNL     1       1.396   2.165  18.537  0.00  0.00    +0.000 C 
ATOM     10  C   UNL     1       1.004   2.987  19.737  0.00  0.00    +0.000 C 
ATOM     11  C   UNL     1       2.129   3.987  20.146  0.00  0.00    +0.000 C 
ATOM     12  C   UNL     1       3.670   3.511  20.157  0.00  0.00    +0.000 C 
ATOM     13  N   UNL     1       1.946   5.108  19.223  0.00  0.00    +0.000 NA
ATOM     14  C   UNL     1       2.079   4.592  17.820  0.00  0.00    +0.000 C 
ENDROOT
BRANCH  13  15
ATOM     15  C   UNL     1       2.769   6.278  19.667  0.00  0.00    +0.000 C 
BRANCH  15  16
ATOM     16  C   UNL     1       2.034   7.629  19.756  0.00  0.00    +0.000 A 
ATOM     17  N   UNL     1       1.873   8.550  18.827  0.00  0.00    +0.000 NA
ATOM     18  N   UNL     1       1.122   9.565  19.379  0.00  0.00    +0.000 NA
ATOM     19  C   UNL     1       0.863   9.222  20.636  0.00  0.00    +0.000 A 
ATOM     20  O   UNL     1       1.410   7.987  20.943  0.00  0.00    +0.000 OA
BRANCH  19  21
ATOM     21  C   UNL     1       0.046  10.089  21.494  0.00  0.00    +0.000 A 
ATOM     22  C   UNL     1      -0.454   9.761  22.753  0.00  0.00    +0.000 A 
ATOM     23  C   UNL     1      -1.243  10.840  23.212  0.00  0.00    +0.000 A 
ATOM     24  C   UNL     1      -1.204  11.785  22.224  0.00  0.00    +0.000 A 
ATOM     25  O   UNL     1      -0.416  11.358  21.189  0.00  0.00    +0.000 OA
ENDBRANCH  19  21
ENDBRANCH  15  16
ENDBRANCH  13  15
TORSDOF 3
ENDMDL
MODEL 2
REMARK VINA RESULT:      -8.5      1.874      1.910
REMARK  Name = 
REMARK  5 active torsions:
REMARK  status: ('A' for Active; 'I' for Inactive)
REMARK    1  A    between atoms: C_1  and  N_2
REMARK    2  A    between atoms: N_2  and  C_3
REMARK    3  A    between atoms: N_13  and  C_14
REMARK    4  A    between atoms: C_14  and  C_15
REMARK    5  A    between atoms: C_18  and  C_19
REMARK                            x       y       z     vdW  Elec       q    Type
REMARK                         _______ _______ _______ _____ _____    ______ ____
ROOT
ATOM      1  C   UNL     1       5.576   6.325  16.378  0.00  0.00    +0.000 C 
ATOM      2  N   UNL     1       5.280   4.956  16.823  0.00  0.00    +0.000 N 
ATOM      3  C   UNL     1       5.235   4.005  15.713  0.00  0.00    +0.000 C 
ATOM      4  C   UNL     1       5.091   4.759  18.205  0.00  0.00    +0.000 C 
ATOM      5  O   UNL     1       5.611   5.561  18.986  0.00  0.00    +0.000 OA
ATOM      6  N   UNL     1       4.322   3.686  18.698  0.00  0.00    +0.000 N 
ATOM      7  C   UNL     1       3.676   2.726  17.871  0.00  0.00    +0.000 C 
ATOM      8  C   UNL     1       2.214   3.121  17.663  0.00  0.00    +0.000 C 
ATOM      9  C   UNL     1       1.411   2.223  18.619  0.00  0.00    +0.000 C 
ATOM     10  C   UNL     1       1.060   3.013  19.853  0.00  0.00    +0.000 C 
ATOM     11  C   UNL     1       2.152   4.073  20.192  0.00  0.00    +0.000 C 
ATOM     12  C   UNL     1       3.715   3.687  20.089  0.00  0.00    +0.000 C 
ATOM     13  N   UNL     1       1.841   5.188  19.296  0.00  0.00    +0.000 NA
ATOM     14  C   UNL     1       1.902   4.689  17.882  0.00  0.00    +0.000 C 
ENDROOT
BRANCH  13  15
ATOM     15  C   UNL     1       2.625   6.400  19.693  0.00  0.00    +0.000 C 
BRANCH  15  16
ATOM     16  C   UNL     1       2.273   7.707  18.958  0.00  0.00    +0.000 A 
ATOM     17  N   UNL     1       2.718   8.156  17.802  0.00  0.00    +0.000 NA
ATOM     18  N   UNL     1       2.088   9.357  17.555  0.00  0.00    +0.000 NA
ATOM     19  C   UNL     1       1.287   9.598  18.588  0.00  0.00    +0.000 A 
ATOM     20  O   UNL     1       1.348   8.576  19.521  0.00  0.00    +0.000 OA
BRANCH  19  21
ATOM     21  C   UNL     1       0.444  10.800  18.614  0.00  0.00    +0.000 A 
ATOM     22  C   UNL     1      -0.945  10.830  18.491  0.00  0.00    +0.000 A 
ATOM     23  C   UNL     1      -1.361  12.181  18.500  0.00  0.00    +0.000 A 
ATOM     24  C   UNL     1      -0.222  12.927  18.624  0.00  0.00    +0.000 A 
ATOM     25  O   UNL     1       0.874  12.111  18.714  0.00  0.00    +0.000 OA
ENDBRANCH  19  21
ENDBRANCH  15  16
ENDBRANCH  13  15
TORSDOF 3
ENDMDL
MODEL 3
REMARK VINA RESULT:      -8.1      1.662      1.925
REMARK  Name = 
REMARK  5 active torsions:
REMARK  status: ('A' for Active; 'I' for Inactive)
REMARK    1  A    between atoms: C_1  and  N_2
REMARK    2  A    between atoms: N_2  and  C_3
REMARK    3  A    between atoms: N_13  and  C_14
REMARK    4  A    between atoms: C_14  and  C_15
REMARK    5  A    between atoms: C_18  and  C_19
REMARK                            x       y       z     vdW  Elec       q    Type
REMARK                         _______ _______ _______ _____ _____    ______ ____
ROOT
ATOM      1  C   UNL     1       5.942   6.156  16.716  0.00  0.00    +0.000 C 
ATOM      2  N   UNL     1       5.524   4.808  17.124  0.00  0.00    +0.000 N 
ATOM      3  C   UNL     1       5.537   3.858  16.012  0.00  0.00    +0.000 C 
ATOM      4  C   UNL     1       5.186   4.625  18.479  0.00  0.00    +0.000 C 
ATOM      5  O   UNL     1       5.670   5.397  19.311  0.00  0.00    +0.000 OA
ATOM      6  N   UNL     1       4.311   3.599  18.889  0.00  0.00    +0.000 N 
ATOM      7  C   UNL     1       3.698   2.676  17.997  0.00  0.00    +0.000 C 
ATOM      8  C   UNL     1       2.289   3.154  17.645  0.00  0.00    +0.000 C 
ATOM      9  C   UNL     1       1.344   2.306  18.512  0.00  0.00    +0.000 C 
ATOM     10  C   UNL     1       0.916   3.118  19.707  0.00  0.00    +0.000 C 
ATOM     11  C   UNL     1       2.028   4.114  20.158  0.00  0.00    +0.000 C 
ATOM     12  C   UNL     1       3.568   3.638  20.211  0.00  0.00    +0.000 C 
ATOM     13  N   UNL     1       1.873   5.243  19.239  0.00  0.00    +0.000 NA
ATOM     14  C   UNL     1       2.048   4.738  17.837  0.00  0.00    +0.000 C 
ENDROOT
BRANCH  13  15
ATOM     15  C   UNL     1       2.682   6.409  19.718  0.00  0.00    +0.000 C 
BRANCH  15  16
ATOM     16  C   UNL     1       1.895   7.691  20.046  0.00  0.00    +0.000 A 
ATOM     17  N   UNL     1       1.402   8.092  21.201  0.00  0.00    +0.000 NA
ATOM     18  N   UNL     1       0.806   9.316  20.993  0.00  0.00    +0.000 NA
ATOM     19  C   UNL     1       0.949   9.608  19.705  0.00  0.00    +0.000 A 
ATOM     20  O   UNL     1       1.648   8.614  19.039  0.00  0.00    +0.000 OA
BRANCH  19  21
ATOM     21  C   UNL     1       0.443  10.876  19.166  0.00  0.00    +0.000 A 
ATOM     22  C   UNL     1       1.121  12.094  19.161  0.00  0.00    +0.000 A 
ATOM     23  C   UNL     1       0.263  13.077  18.614  0.00  0.00    +0.000 A 
ATOM     24  C   UNL     1      -0.904  12.433  18.309  0.00  0.00    +0.000 A 
ATOM     25  O   UNL     1      -0.807  11.102  18.617  0.00  0.00    +0.000 OA
ENDBRANCH  19  21
ENDBRANCH  15  16
ENDBRANCH  13  15
TORSDOF 3
ENDMDL
MODEL 4
REMARK VINA RESULT:      -7.9      1.638      3.461
REMARK  Name = 
REMARK  5 active torsions:
REMARK  status: ('A' for Active; 'I' for Inactive)
REMARK    1  A    between atoms: C_1  and  N_2
REMARK    2  A    between atoms: N_2  and  C_3
REMARK    3  A    between atoms: N_13  and  C_14
REMARK    4  A    between atoms: C_14  and  C_15
REMARK    5  A    between atoms: C_18  and  C_19
REMARK                            x       y       z     vdW  Elec       q    Type
REMARK                         _______ _______ _______ _____ _____    ______ ____
ROOT
ATOM      1  C   UNL     1       0.826   4.060  20.256  0.00  0.00    +0.000 C 
ATOM      2  N   UNL     1       2.059   3.464  19.724  0.00  0.00    +0.000 N 
ATOM      3  C   UNL     1       2.765   2.657  20.718  0.00  0.00    +0.000 C 
ATOM      4  C   UNL     1       2.376   3.741  18.380  0.00  0.00    +0.000 C 
ATOM      5  O   UNL     1       1.456   4.040  17.613  0.00  0.00    +0.000 OA
ATOM      6  N   UNL     1       3.703   3.694  17.910  0.00  0.00    +0.000 N 
ATOM      7  C   UNL     1       4.823   3.374  18.726  0.00  0.00    +0.000 C 
ATOM      8  C   UNL     1       5.492   4.659  19.214  0.00  0.00    +0.000 C 
ATOM      9  C   UNL     1       6.726   4.841  18.315  0.00  0.00    +0.000 C 
ATOM     10  C   UNL     1       6.408   5.856  17.248  0.00  0.00    +0.000 C 
ATOM     11  C   UNL     1       4.902   5.821  16.847  0.00  0.00    +0.000 C 
ATOM     12  C   UNL     1       4.150   4.408  16.647  0.00  0.00    +0.000 C 
ATOM     13  N   UNL     1       4.246   6.605  17.895  0.00  0.00    +0.000 NA
ATOM     14  C   UNL     1       4.534   5.957  19.218  0.00  0.00    +0.000 C 
ENDROOT
BRANCH  13  15
ATOM     15  C   UNL     1       2.833   6.905  17.504  0.00  0.00    +0.000 C 
BRANCH  15  16
ATOM     16  C   UNL     1       2.176   8.108  18.207  0.00  0.00    +0.000 A 
ATOM     17  N   UNL     1       1.932   9.315  17.736  0.00  0.00    +0.000 NA
ATOM     18  N   UNL     1       1.305  10.028  18.734  0.00  0.00    +0.000 NA
ATOM     19  C   UNL     1       1.203   9.224  19.786  0.00  0.00    +0.000 A 
ATOM     20  O   UNL     1       1.732   7.972  19.515  0.00  0.00    +0.000 OA
BRANCH  19  21
ATOM     21  C   UNL     1       0.546   9.682  21.016  0.00  0.00    +0.000 A 
ATOM     22  C   UNL     1       0.618   9.064  22.264  0.00  0.00    +0.000 A 
ATOM     23  C   UNL     1      -0.206   9.780  23.162  0.00  0.00    +0.000 A 
ATOM     24  C   UNL     1      -0.754  10.803  22.439  0.00  0.00    +0.000 A 
ATOM     25  O   UNL     1      -0.297  10.771  21.148  0.00  0.00    +0.000 OA
ENDBRANCH  19  21
ENDBRANCH  15  16
ENDBRANCH  13  15
TORSDOF 3
ENDMDL
MODEL 5
REMARK VINA RESULT:      -7.6      1.018      1.173
REMARK  Name = 
REMARK  5 active torsions:
REMARK  status: ('A' for Active; 'I' for Inactive)
REMARK    1  A    between atoms: C_1  and  N_2
REMARK    2  A    between atoms: N_2  and  C_3
REMARK    3  A    between atoms: N_13  and  C_14
REMARK    4  A    between atoms: C_14  and  C_15
REMARK    5  A    between atoms: C_18  and  C_19
REMARK                            x       y       z     vdW  Elec       q    Type
REMARK                         _______ _______ _______ _____ _____    ______ ____
ROOT
ATOM      1  C   UNL     1       5.603   5.777  15.268  0.00  0.00    +0.000 C 
ATOM      2  N   UNL     1       5.459   4.709  16.267  0.00  0.00    +0.000 N 
ATOM      3  C   UNL     1       5.465   3.376  15.665  0.00  0.00    +0.000 C 
ATOM      4  C   UNL     1       5.342   5.103  17.614  0.00  0.00    +0.000 C 
ATOM      5  O   UNL     1       5.811   6.196  17.945  0.00  0.00    +0.000 OA
ATOM      6  N   UNL     1       4.701   4.289  18.568  0.00  0.00    +0.000 N 
ATOM      7  C   UNL     1       4.121   3.025  18.271  0.00  0.00    +0.000 C 
ATOM      8  C   UNL     1       2.620   3.187  18.028  0.00  0.00    +0.000 C 
ATOM      9  C   UNL     1       1.945   2.724  19.330  0.00  0.00    +0.000 C 
ATOM     10  C   UNL     1       1.566   3.935  20.141  0.00  0.00    +0.000 C 
ATOM     11  C   UNL     1       2.561   5.115  19.921  0.00  0.00    +0.000 C 
ATOM     12  C   UNL     1       4.149   4.835  19.872  0.00  0.00    +0.000 C 
ATOM     13  N   UNL     1       2.110   5.719  18.666  0.00  0.00    +0.000 NA
ATOM     14  C   UNL     1       2.166   4.673  17.591  0.00  0.00    +0.000 C 
ENDROOT
BRANCH  13  15
ATOM     15  C   UNL     1       2.787   7.038  18.459  0.00  0.00    +0.000 C 
BRANCH  15  16
ATOM     16  C   UNL     1       1.984   8.285  18.875  0.00  0.00    +0.000 A 
ATOM     17  N   UNL     1       1.681   9.354  18.166  0.00  0.00    +0.000 NA
ATOM     18  N   UNL     1       0.926  10.181  18.968  0.00  0.00    +0.000 NA
ATOM     19  C   UNL     1       0.809   9.582  20.149  0.00  0.00    +0.000 A 
ATOM     20  O   UNL     1       1.456   8.357  20.157  0.00  0.00    +0.000 OA
BRANCH  19  21
ATOM     21  C   UNL     1       0.027  10.201  21.226  0.00  0.00    +0.000 A 
ATOM     22  C   UNL     1      -0.402  11.527  21.271  0.00  0.00    +0.000 A 
ATOM     23  C   UNL     1      -1.064  11.736  22.502  0.00  0.00    +0.000 A 
ATOM     24  C   UNL     1      -1.016  10.542  23.166  0.00  0.00    +0.000 A 
ATOM     25  O   UNL     1      -0.380   9.599  22.404  0.00  0.00    +0.000 OA
ENDBRANCH  19  21
ENDBRANCH  15  16
ENDBRANCH  13  15
TORSDOF 3
ENDMDL
MODEL 6
REMARK VINA RESULT:      -7.5      1.404      1.621
REMARK  Name = 
REMARK  5 active torsions:
REMARK  status: ('A' for Active; 'I' for Inactive)
REMARK    1  A    between atoms: C_1  and  N_2
REMARK    2  A    between atoms: N_2  and  C_3
REMARK    3  A    between atoms: N_13  and  C_14
REMARK    4  A    between atoms: C_14  and  C_15
REMARK    5  A    between atoms: C_18  and  C_19
REMARK                            x       y       z     vdW  Elec       q    Type
REMARK                         _______ _______ _______ _____ _____    ______ ____
ROOT
ATOM      1  C   UNL     1       5.320   6.362  15.844  0.00  0.00    +0.000 C 
ATOM      2  N   UNL     1       5.145   5.034  16.447  0.00  0.00    +0.000 N 
ATOM      3  C   UNL     1       5.091   3.968  15.447  0.00  0.00    +0.000 C 
ATOM      4  C   UNL     1       5.060   4.974  17.852  0.00  0.00    +0.000 C 
ATOM      5  O   UNL     1       5.576   5.884  18.507  0.00  0.00    +0.000 OA
ATOM      6  N   UNL     1       4.398   3.917  18.506  0.00  0.00    +0.000 N 
ATOM      7  C   UNL     1       3.765   2.837  17.830  0.00  0.00    +0.000 C 
ATOM      8  C   UNL     1       2.269   3.120  17.689  0.00  0.00    +0.000 C 
ATOM      9  C   UNL     1       1.592   2.284  18.787  0.00  0.00    +0.000 C 
ATOM     10  C   UNL     1       1.271   3.179  19.955  0.00  0.00    +0.000 C 
ATOM     11  C   UNL     1       2.309   4.331  20.104  0.00  0.00    +0.000 C 
ATOM     12  C   UNL     1       3.884   4.029  19.930  0.00  0.00    +0.000 C 
ATOM     13  N   UNL     1       1.868   5.324  19.124  0.00  0.00    +0.000 NA
ATOM     14  C   UNL     1       1.869   4.682  17.767  0.00  0.00    +0.000 C 
ENDROOT
BRANCH  13  15
ATOM     15  C   UNL     1       2.594   6.616  19.338  0.00  0.00    +0.000 C 
BRANCH  15  16
ATOM     16  C   UNL     1       1.811   7.721  20.072  0.00  0.00    +0.000 A 
ATOM     17  N   UNL     1       1.223   7.680  21.251  0.00  0.00    +0.000 NA
ATOM     18  N   UNL     1       0.679   8.924  21.484  0.00  0.00    +0.000 NA
ATOM     19  C   UNL     1       0.949   9.675  20.421  0.00  0.00    +0.000 A 
ATOM     20  O   UNL     1       1.681   8.970  19.480  0.00  0.00    +0.000 OA
BRANCH  19  21
ATOM     21  C   UNL     1       0.525  11.080  20.372  0.00  0.00    +0.000 A 
ATOM     22  C   UNL     1      -0.093  11.713  19.295  0.00  0.00    +0.000 A 
ATOM     23  C   UNL     1      -0.274  13.076  19.626  0.00  0.00    +0.000 A 
ATOM     24  C   UNL     1       0.240  13.231  20.884  0.00  0.00    +0.000 A 
ATOM     25  O   UNL     1       0.708  12.034  21.357  0.00  0.00    +0.000 OA
ENDBRANCH  19  21
ENDBRANCH  15  16
ENDBRANCH  13  15
TORSDOF 3
ENDMDL
MODEL 7
REMARK VINA RESULT:      -7.3      1.647      3.528
REMARK  Name = 
REMARK  5 active torsions:
REMARK  status: ('A' for Active; 'I' for Inactive)
REMARK    1  A    between atoms: C_1  and  N_2
REMARK    2  A    between atoms: N_2  and  C_3
REMARK    3  A    between atoms: N_13  and  C_14
REMARK    4  A    between atoms: C_14  and  C_15
REMARK    5  A    between atoms: C_18  and  C_19
REMARK                            x       y       z     vdW  Elec       q    Type
REMARK                         _______ _______ _______ _____ _____    ______ ____
ROOT
ATOM      1  C   UNL     1       1.529   3.023  19.204  0.00  0.00    +0.000 C 
ATOM      2  N   UNL     1       2.879   2.886  18.642  0.00  0.00    +0.000 N 
ATOM      3  C   UNL     1       3.714   1.963  19.410  0.00  0.00    +0.000 C 
ATOM      4  C   UNL     1       3.169   3.633  17.484  0.00  0.00    +0.000 C 
ATOM      5  O   UNL     1       2.231   3.970  16.756  0.00  0.00    +0.000 OA
ATOM      6  N   UNL     1       4.489   4.004  17.156  0.00  0.00    +0.000 N 
ATOM      7  C   UNL     1       5.625   3.671  17.944  0.00  0.00    +0.000 C 
ATOM      8  C   UNL     1       5.978   4.841  18.863  0.00  0.00    +0.000 C 
ATOM      9  C   UNL     1       7.169   5.542  18.189  0.00  0.00    +0.000 C 
ATOM     10  C   UNL     1       6.669   6.757  17.454  0.00  0.00    +0.000 C 
ATOM     11  C   UNL     1       5.221   6.552  16.913  0.00  0.00    +0.000 C 
ATOM     12  C   UNL     1       4.807   5.155  16.220  0.00  0.00    +0.000 C 
ATOM     13  N   UNL     1       4.376   6.815  18.079  0.00  0.00    +0.000 NA
ATOM     14  C   UNL     1       4.757   5.852  19.165  0.00  0.00    +0.000 C 
ENDROOT
BRANCH  13  15
ATOM     15  C   UNL     1       2.944   6.935  17.658  0.00  0.00    +0.000 C 
BRANCH  15  16
ATOM     16  C   UNL     1       2.154   8.107  18.271  0.00  0.00    +0.000 A 
ATOM     17  N   UNL     1       1.745   9.222  17.701  0.00  0.00    +0.000 NA
ATOM     18  N   UNL     1       1.055   9.942  18.652  0.00  0.00    +0.000 NA
ATOM     19  C   UNL     1       1.083   9.235  19.776  0.00  0.00    +0.000 A 
ATOM     20  O   UNL     1       1.763   8.041  19.602  0.00  0.00    +0.000 OA
BRANCH  19  21
ATOM     21  C   UNL     1       0.401   9.722  20.982  0.00  0.00    +0.000 A 
ATOM     22  C   UNL     1      -0.135  10.996  21.163  0.00  0.00    +0.000 A 
ATOM     23  C   UNL     1      -0.640  11.081  22.481  0.00  0.00    +0.000 A 
ATOM     24  C   UNL     1      -0.395   9.867  23.059  0.00  0.00    +0.000 A 
ATOM     25  O   UNL     1       0.215   9.028  22.165  0.00  0.00    +0.000 OA
ENDBRANCH  19  21
ENDBRANCH  15  16
ENDBRANCH  13  15
TORSDOF 3
ENDMDL
MODEL 8
REMARK VINA RESULT:      -7.2      2.467      4.021
REMARK  Name = 
REMARK  5 active torsions:
REMARK  status: ('A' for Active; 'I' for Inactive)
REMARK    1  A    between atoms: C_1  and  N_2
REMARK    2  A    between atoms: N_2  and  C_3
REMARK    3  A    between atoms: N_13  and  C_14
REMARK    4  A    between atoms: C_14  and  C_15
REMARK    5  A    between atoms: C_18  and  C_19
REMARK                            x       y       z     vdW  Elec       q    Type
REMARK                         _______ _______ _______ _____ _____    ______ ____
ROOT
ATOM      1  C   UNL     1       0.948   3.944  20.217  0.00  0.00    +0.000 C 
ATOM      2  N   UNL     1       2.191   3.395  19.659  0.00  0.00    +0.000 N 
ATOM      3  C   UNL     1       2.924   2.577  20.625  0.00  0.00    +0.000 C 
ATOM      4  C   UNL     1       2.491   3.720  18.322  0.00  0.00    +0.000 C 
ATOM      5  O   UNL     1       1.558   4.018  17.570  0.00  0.00    +0.000 OA
ATOM      6  N   UNL     1       3.816   3.720  17.842  0.00  0.00    +0.000 N 
ATOM      7  C   UNL     1       4.949   3.404  18.641  0.00  0.00    +0.000 C 
ATOM      8  C   UNL     1       5.590   4.690  19.163  0.00  0.00    +0.000 C 
ATOM      9  C   UNL     1       6.812   4.929  18.261  0.00  0.00    +0.000 C 
ATOM     10  C   UNL     1       6.461   5.966  17.227  0.00  0.00    +0.000 C 
ATOM     11  C   UNL     1       4.953   5.906  16.835  0.00  0.00    +0.000 C 
ATOM     12  C   UNL     1       4.235   4.481  16.598  0.00  0.00    +0.000 C 
ATOM     13  N   UNL     1       4.287   6.642  17.910  0.00  0.00    +0.000 NA
ATOM     14  C   UNL     1       4.600   5.964  19.211  0.00  0.00    +0.000 C 
ENDROOT
BRANCH  13  15
ATOM     15  C   UNL     1       2.863   6.919  17.537  0.00  0.00    +0.000 C 
BRANCH  15  16
ATOM     16  C   UNL     1       2.170   8.060  18.305  0.00  0.00    +0.000 A 
ATOM     17  N   UNL     1       1.764   8.092  19.559  0.00  0.00    +0.000 NA
ATOM     18  N   UNL     1       1.230   9.341  19.787  0.00  0.00    +0.000 NA
ATOM     19  C   UNL     1       1.322  10.021  18.650  0.00  0.00    +0.000 A 
ATOM     20  O   UNL     1       1.925   9.264  17.658  0.00  0.00    +0.000 OA
BRANCH  19  21
ATOM     21  C   UNL     1       0.863  11.414  18.573  0.00  0.00    +0.000 A 
ATOM     22  C   UNL     1       1.671  12.548  18.630  0.00  0.00    +0.000 A 
ATOM     23  C   UNL     1       0.837  13.689  18.589  0.00  0.00    +0.000 A 
ATOM     24  C   UNL     1      -0.444  13.218  18.512  0.00  0.00    +0.000 A 
ATOM     25  O   UNL     1      -0.447  11.849  18.482  0.00  0.00    +0.000 OA
ENDBRANCH  19  21
ENDBRANCH  15  16
ENDBRANCH  13  15
TORSDOF 3
ENDMDL
MODEL 9
REMARK VINA RESULT:      -7.1      1.861      3.583
REMARK  Name = 
REMARK  5 active torsions:
REMARK  status: ('A' for Active; 'I' for Inactive)
REMARK    1  A    between atoms: C_1  and  N_2
REMARK    2  A    between atoms: N_2  and  C_3
REMARK    3  A    between atoms: N_13  and  C_14
REMARK    4  A    between atoms: C_14  and  C_15
REMARK    5  A    between atoms: C_18  and  C_19
REMARK                            x       y       z     vdW  Elec       q    Type
REMARK                         _______ _______ _______ _____ _____    ______ ____
ROOT
ATOM      1  C   UNL     1       0.915   3.964  20.289  0.00  0.00    +0.000 C 
ATOM      2  N   UNL     1       2.088   3.389  19.616  0.00  0.00    +0.000 N 
ATOM      3  C   UNL     1       2.803   2.432  20.459  0.00  0.00    +0.000 C 
ATOM      4  C   UNL     1       2.348   3.822  18.302  0.00  0.00    +0.000 C 
ATOM      5  O   UNL     1       1.406   4.256  17.632  0.00  0.00    +0.000 OA
ATOM      6  N   UNL     1       3.646   3.778  17.754  0.00  0.00    +0.000 N 
ATOM      7  C   UNL     1       4.788   3.309  18.457  0.00  0.00    +0.000 C 
ATOM      8  C   UNL     1       5.546   4.491  19.063  0.00  0.00    +0.000 C 
ATOM      9  C   UNL     1       6.739   4.733  18.125  0.00  0.00    +0.000 C 
ATOM     10  C   UNL     1       6.417   5.888  17.213  0.00  0.00    +0.000 C 
ATOM     11  C   UNL     1       4.892   5.970  16.898  0.00  0.00    +0.000 C 
ATOM     12  C   UNL     1       4.061   4.628  16.567  0.00  0.00    +0.000 C 
ATOM     13  N   UNL     1       4.332   6.641  18.072  0.00  0.00    +0.000 NA
ATOM     14  C   UNL     1       4.655   5.818  19.285  0.00  0.00    +0.000 C 
ENDROOT
BRANCH  13  15
ATOM     15  C   UNL     1       2.917   7.049  17.804  0.00  0.00    +0.000 C 
BRANCH  15  16
ATOM     16  C   UNL     1       2.179   7.742  18.965  0.00  0.00    +0.000 A 
ATOM     17  N   UNL     1       1.950   7.301  20.186  0.00  0.00    +0.000 NA
ATOM     18  N   UNL     1       1.278   8.294  20.864  0.00  0.00    +0.000 NA
ATOM     19  C   UNL     1       1.112   9.305  20.017  0.00  0.00    +0.000 A 
ATOM     20  O   UNL     1       1.675   9.023  18.782  0.00  0.00    +0.000 OA
BRANCH  19  21
ATOM     21  C   UNL     1       0.449  10.541  20.449  0.00  0.00    +0.000 A 
ATOM     22  C   UNL     1      -0.755  11.042  19.956  0.00  0.00    +0.000 A 
ATOM     23  C   UNL     1      -1.010  12.282  20.585  0.00  0.00    +0.000 A 
ATOM     24  C   UNL     1       0.041  12.500  21.432  0.00  0.00    +0.000 A 
ATOM     25  O   UNL     1       0.921  11.452  21.378  0.00  0.00    +0.000 OA
ENDBRANCH  19  21
ENDBRANCH  15  16
ENDBRANCH  13  15
TORSDOF 3
ENDMDL
