MODEL 1
REMARK VINA RESULT:      -8.5      0.000      0.000
REMARK  Name = 
REMARK  5 active torsions:
REMARK  status: ('A' for Active; 'I' for Inactive)
REMARK    1  A    between atoms: C_1  and  C_2
REMARK    2  A    between atoms: C_5  and  N_6
REMARK    3  A    between atoms: N_12  and  C_13
REMARK    4  A    between atoms: C_13  and  C_14
REMARK    5  A    between atoms: C_23  and  C_24
REMARK                            x       y       z     vdW  Elec       q    Type
REMARK                         _______ _______ _______ _____ _____    ______ ____
ROOT
ATOM      1  N   UNL     1       6.162   5.574  14.988  0.00  0.00    +0.000 N 
ATOM      2  C   UNL     1       6.626   5.336  16.262  0.00  0.00    +0.000 C 
ATOM      3  N   UNL     1       7.693   4.622  16.481  0.00  0.00    +0.000 NA
ATOM      4  C   UNL     1       7.874   4.562  17.937  0.00  0.00    +0.000 C 
ATOM      5  C   UNL     1       6.757   5.395  18.458  0.00  0.00    +0.000 C 
ATOM      6  O   UNL     1       6.534   5.624  19.647  0.00  0.00    +0.000 OA
ATOM      7  N   UNL     1       6.030   5.820  17.392  0.00  0.00    +0.000 N 
ATOM      8  H   UNL     1       5.250   5.998  14.923  0.00  0.00    +0.000 HD
ENDROOT
BRANCH   1  13
ATOM      9  C   UNL     1       6.765   1.937  10.548  0.00  0.00    +0.000 C 
ATOM     10  C   UNL     1       6.616   2.869  11.712  0.00  0.00    +0.000 A 
ATOM     11  C   UNL     1       5.598   2.697  12.644  0.00  0.00    +0.000 A 
ATOM     12  C   UNL     1       5.474   3.577  13.722  0.00  0.00    +0.000 A 
ATOM     13  C   UNL     1       6.366   4.652  13.915  0.00  0.00    +0.000 A 
ATOM     14  C   UNL     1       7.397   4.831  12.968  0.00  0.00    +0.000 A 
ATOM     15  C   UNL     1       8.465   5.885  13.070  0.00  0.00    +0.000 C 
ATOM     16  C   UNL     1       7.508   3.932  11.884  0.00  0.00    +0.000 A 
ENDBRANCH   1  13
BRANCH   7  17
ATOM     17  C   UNL     1       4.836   6.629  17.633  0.00  0.00    +0.000 C 
BRANCH  17  18
ATOM     18  C   UNL     1       3.653   5.870  18.197  0.00  0.00    +0.000 A 
ATOM     19  C   UNL     1       3.054   6.277  19.418  0.00  0.00    +0.000 A 
ATOM     20  C   UNL     1       2.034   5.522  20.013  0.00  0.00    +0.000 A 
ATOM     21  C   UNL     1       1.633   4.375  19.368  0.00  0.00    +0.000 A 
ATOM     22  C   UNL     1       2.171   3.996  18.161  0.00  0.00    +0.000 A 
ATOM     23  C   UNL     1       3.164   4.727  17.542  0.00  0.00    +0.000 A 
ATOM     24  O   UNL     1       1.669   2.813  17.716  0.00  0.00    +0.000 OA
ATOM     25  C   UNL     1       0.853   2.430  18.844  0.00  0.00    +0.000 C 
ATOM     26  O   UNL     1       0.743   3.463  19.846  0.00  0.00    +0.000 OA
ENDBRANCH  17  18
ENDBRANCH   7  17
TORSDOF 3
ENDMDL
MODEL 2
REMARK VINA RESULT:      -8.4      3.072      7.739
REMARK  Name = 
REMARK  5 active torsions:
REMARK  status: ('A' for Active; 'I' for Inactive)
REMARK    1  A    between atoms: C_1  and  C_2
REMARK    2  A    between atoms: C_5  and  N_6
REMARK    3  A    between atoms: N_12  and  C_13
REMARK    4  A    between atoms: C_13  and  C_14
REMARK    5  A    between atoms: C_23  and  C_24
REMARK                            x       y       z     vdW  Elec       q    Type
REMARK                         _______ _______ _______ _____ _____    ______ ____
ROOT
ATOM      1  N   UNL     1       2.906   6.366  19.178  0.00  0.00    +0.000 N 
ATOM      2  C   UNL     1       2.503   5.057  19.042  0.00  0.00    +0.000 C 
ATOM      3  N   UNL     1       1.256   4.741  18.840  0.00  0.00    +0.000 NA
ATOM      4  C   UNL     1       1.194   3.276  18.767  0.00  0.00    +0.000 C 
ATOM      5  C   UNL     1       2.615   2.863  18.919  0.00  0.00    +0.000 C 
ATOM      6  O   UNL     1       3.024   1.701  18.909  0.00  0.00    +0.000 OA
ATOM      7  N   UNL     1       3.353   3.990  19.098  0.00  0.00    +0.000 N 
ATOM      8  H   UNL     1       3.856   6.505  19.488  0.00  0.00    +0.000 HD
ENDROOT
BRANCH   1  13
ATOM      9  C   UNL     1      -0.369  10.512  21.499  0.00  0.00    +0.000 C 
ATOM     10  C   UNL     1       0.467   9.427  20.894  0.00  0.00    +0.000 A 
ATOM     11  C   UNL     1       0.749   8.261  21.597  0.00  0.00    +0.000 A 
ATOM     12  C   UNL     1       1.531   7.259  21.016  0.00  0.00    +0.000 A 
ATOM     13  C   UNL     1       2.050   7.379  19.710  0.00  0.00    +0.000 A 
ATOM     14  C   UNL     1       1.768   8.564  18.996  0.00  0.00    +0.000 A 
ATOM     15  C   UNL     1       2.189   8.815  17.574  0.00  0.00    +0.000 C 
ATOM     16  C   UNL     1       0.976   9.566  19.598  0.00  0.00    +0.000 A 
ENDBRANCH   1  13
BRANCH   7  17
ATOM     17  C   UNL     1       4.793   3.859  19.319  0.00  0.00    +0.000 C 
BRANCH  17  18
ATOM     18  C   UNL     1       5.660   4.280  18.150  0.00  0.00    +0.000 A 
ATOM     19  C   UNL     1       6.606   5.327  18.297  0.00  0.00    +0.000 A 
ATOM     20  C   UNL     1       7.336   5.807  17.201  0.00  0.00    +0.000 A 
ATOM     21  C   UNL     1       7.102   5.222  15.977  0.00  0.00    +0.000 A 
ATOM     22  C   UNL     1       6.225   4.175  15.830  0.00  0.00    +0.000 A 
ATOM     23  C   UNL     1       5.504   3.669  16.894  0.00  0.00    +0.000 A 
ATOM     24  O   UNL     1       6.107   3.771  14.537  0.00  0.00    +0.000 OA
ATOM     25  C   UNL     1       6.912   4.771  13.874  0.00  0.00    +0.000 C 
ATOM     26  O   UNL     1       7.629   5.626  14.789  0.00  0.00    +0.000 OA
ENDBRANCH  17  18
ENDBRANCH   7  17
TORSDOF 3
ENDMDL
MODEL 3
REMARK VINA RESULT:      -8.2      2.896      4.813
REMARK  Name = 
REMARK  5 active torsions:
REMARK  status: ('A' for Active; 'I' for Inactive)
REMARK    1  A    between atoms: C_1  and  C_2
REMARK    2  A    between atoms: C_5  and  N_6
REMARK    3  A    between atoms: N_12  and  C_13
REMARK    4  A    between atoms: C_13  and  C_14
REMARK    5  A    between atoms: C_23  and  C_24
REMARK                            x       y       z     vdW  Elec       q    Type
REMARK                         _______ _______ _______ _____ _____    ______ ____
ROOT
ATOM      1  N   UNL     1       4.846   4.492  18.331  0.00  0.00    +0.000 N 
ATOM      2  C   UNL     1       3.656   3.830  18.528  0.00  0.00    +0.000 C 
ATOM      3  N   UNL     1       3.337   2.773  17.837  0.00  0.00    +0.000 NA
ATOM      4  C   UNL     1       2.007   2.351  18.295  0.00  0.00    +0.000 C 
ATOM      5  C   UNL     1       1.687   3.326  19.371  0.00  0.00    +0.000 C 
ATOM      6  O   UNL     1       0.653   3.335  20.040  0.00  0.00    +0.000 OA
ATOM      7  N   UNL     1       2.721   4.204  19.450  0.00  0.00    +0.000 N 
ATOM      8  H   UNL     1       4.937   5.383  18.794  0.00  0.00    +0.000 HD
ENDROOT
BRANCH   1  13
ATOM      9  C   UNL     1       7.405   4.802  13.168  0.00  0.00    +0.000 C 
ATOM     10  C   UNL     1       6.740   4.704  14.507  0.00  0.00    +0.000 A 
ATOM     11  C   UNL     1       5.372   4.480  14.614  0.00  0.00    +0.000 A 
ATOM     12  C   UNL     1       4.769   4.392  15.872  0.00  0.00    +0.000 A 
ATOM     13  C   UNL     1       5.509   4.514  17.065  0.00  0.00    +0.000 A 
ATOM     14  C   UNL     1       6.898   4.745  16.958  0.00  0.00    +0.000 A 
ATOM     15  C   UNL     1       7.834   4.830  18.132  0.00  0.00    +0.000 C 
ATOM     16  C   UNL     1       7.491   4.831  15.679  0.00  0.00    +0.000 A 
ENDBRANCH   1  13
BRANCH   7  17
ATOM     17  C   UNL     1       2.637   5.304  20.410  0.00  0.00    +0.000 C 
BRANCH  17  18
ATOM     18  C   UNL     1       2.187   6.628  19.828  0.00  0.00    +0.000 A 
ATOM     19  C   UNL     1       2.444   6.939  18.467  0.00  0.00    +0.000 A 
ATOM     20  C   UNL     1       2.138   8.201  17.941  0.00  0.00    +0.000 A 
ATOM     21  C   UNL     1       1.576   9.126  18.791  0.00  0.00    +0.000 A 
ATOM     22  C   UNL     1       1.278   8.821  20.097  0.00  0.00    +0.000 A 
ATOM     23  C   UNL     1       1.551   7.582  20.640  0.00  0.00    +0.000 A 
ATOM     24  O   UNL     1       0.770   9.884  20.777  0.00  0.00    +0.000 OA
ATOM     25  C   UNL     1       0.907  10.923  19.783  0.00  0.00    +0.000 C 
ATOM     26  O   UNL     1       1.317  10.428  18.491  0.00  0.00    +0.000 OA
ENDBRANCH  17  18
ENDBRANCH   7  17
TORSDOF 3
ENDMDL
MODEL 4
REMARK VINA RESULT:      -8.0      3.492      8.092
REMARK  Name = 
REMARK  5 active torsions:
REMARK  status: ('A' for Active; 'I' for Inactive)
REMARK    1  A    between atoms: C_1  and  C_2
REMARK    2  A    between atoms: C_5  and  N_6
REMARK    3  A    between atoms: N_12  and  C_13
REMARK    4  A    between atoms: C_13  and  C_14
REMARK    5  A    between atoms: C_23  and  C_24
REMARK                            x       y       z     vdW  Elec       q    Type
REMARK                         _______ _______ _______ _____ _____    ______ ____
ROOT
ATOM      1  N   UNL     1       2.497   7.026  19.568  0.00  0.00    +0.000 N 
ATOM      2  C   UNL     1       2.384   5.720  19.987  0.00  0.00    +0.000 C 
ATOM      3  N   UNL     1       1.263   5.243  20.447  0.00  0.00    +0.000 NA
ATOM      4  C   UNL     1       1.514   3.843  20.813  0.00  0.00    +0.000 C 
ATOM      5  C   UNL     1       2.938   3.637  20.433  0.00  0.00    +0.000 C 
ATOM      6  O   UNL     1       3.565   2.585  20.563  0.00  0.00    +0.000 OA
ATOM      7  N   UNL     1       3.409   4.818  19.954  0.00  0.00    +0.000 N 
ATOM      8  H   UNL     1       3.434   7.348  19.379  0.00  0.00    +0.000 HD
ENDROOT
BRANCH   1  13
ATOM      9  C   UNL     1      -0.492  11.359  21.932  0.00  0.00    +0.000 C 
ATOM     10  C   UNL     1       0.270  10.224  21.319  0.00  0.00    +0.000 A 
ATOM     11  C   UNL     1       0.726   9.163  22.095  0.00  0.00    +0.000 A 
ATOM     12  C   UNL     1       1.436   8.114  21.505  0.00  0.00    +0.000 A 
ATOM     13  C   UNL     1       1.706   8.078  20.122  0.00  0.00    +0.000 A 
ATOM     14  C   UNL     1       1.247   9.156  19.334  0.00  0.00    +0.000 A 
ATOM     15  C   UNL     1       1.395   9.233  17.839  0.00  0.00    +0.000 C 
ATOM     16  C   UNL     1       0.531  10.209  19.945  0.00  0.00    +0.000 A 
ENDBRANCH   1  13
BRANCH   7  17
ATOM     17  C   UNL     1       4.811   4.902  19.547  0.00  0.00    +0.000 C 
BRANCH  17  18
ATOM     18  C   UNL     1       5.052   4.788  18.056  0.00  0.00    +0.000 A 
ATOM     19  C   UNL     1       4.220   3.966  17.254  0.00  0.00    +0.000 A 
ATOM     20  C   UNL     1       4.496   3.759  15.895  0.00  0.00    +0.000 A 
ATOM     21  C   UNL     1       5.601   4.386  15.368  0.00  0.00    +0.000 A 
ATOM     22  C   UNL     1       6.387   5.224  16.122  0.00  0.00    +0.000 A 
ATOM     23  C   UNL     1       6.131   5.461  17.458  0.00  0.00    +0.000 A 
ATOM     24  O   UNL     1       7.451   5.707  15.426  0.00  0.00    +0.000 OA
ATOM     25  C   UNL     1       7.314   4.973  14.190  0.00  0.00    +0.000 C 
ATOM     26  O   UNL     1       6.087   4.216  14.108  0.00  0.00    +0.000 OA
ENDBRANCH  17  18
ENDBRANCH   7  17
TORSDOF 3
ENDMDL
MODEL 5
REMARK VINA RESULT:      -7.9      3.189      7.731
REMARK  Name = 
REMARK  5 active torsions:
REMARK  status: ('A' for Active; 'I' for Inactive)
REMARK    1  A    between atoms: C_1  and  C_2
REMARK    2  A    between atoms: C_5  and  N_6
REMARK    3  A    between atoms: N_12  and  C_13
REMARK    4  A    between atoms: C_13  and  C_14
REMARK    5  A    between atoms: C_23  and  C_24
REMARK                            x       y       z     vdW  Elec       q    Type
REMARK                         _______ _______ _______ _____ _____    ______ ____
ROOT
ATOM      1  N   UNL     1       3.061   6.473  19.033  0.00  0.00    +0.000 N 
ATOM      2  C   UNL     1       3.172   5.186  19.507  0.00  0.00    +0.000 C 
ATOM      3  N   UNL     1       2.173   4.578  20.078  0.00  0.00    +0.000 NA
ATOM      4  C   UNL     1       2.653   3.247  20.472  0.00  0.00    +0.000 C 
ATOM      5  C   UNL     1       4.057   3.228  19.979  0.00  0.00    +0.000 C 
ATOM      6  O   UNL     1       4.839   2.283  20.093  0.00  0.00    +0.000 OA
ATOM      7  N   UNL     1       4.311   4.439  19.419  0.00  0.00    +0.000 N 
ATOM      8  H   UNL     1       3.923   6.916  18.752  0.00  0.00    +0.000 HD
ENDROOT
BRANCH   1  13
ATOM      9  C   UNL     1      -0.349  10.392  21.548  0.00  0.00    +0.000 C 
ATOM     10  C   UNL     1       0.523   9.365  20.892  0.00  0.00    +0.000 A 
ATOM     11  C   UNL     1       0.880   8.196  21.557  0.00  0.00    +0.000 A 
ATOM     12  C   UNL     1       1.694   7.249  20.928  0.00  0.00    +0.000 A 
ATOM     13  C   UNL     1       2.171   7.429  19.614  0.00  0.00    +0.000 A 
ATOM     14  C   UNL     1       1.812   8.616  18.939  0.00  0.00    +0.000 A 
ATOM     15  C   UNL     1       2.183   8.924  17.514  0.00  0.00    +0.000 C 
ATOM     16  C   UNL     1       0.989   9.562  19.588  0.00  0.00    +0.000 A 
ENDBRANCH   1  13
BRANCH   7  17
ATOM     17  C   UNL     1       5.650   4.701  18.891  0.00  0.00    +0.000 C 
BRANCH  17  18
ATOM     18  C   UNL     1       5.766   4.632  17.382  0.00  0.00    +0.000 A 
ATOM     19  C   UNL     1       4.879   3.821  16.628  0.00  0.00    +0.000 A 
ATOM     20  C   UNL     1       5.043   3.655  15.246  0.00  0.00    +0.000 A 
ATOM     21  C   UNL     1       6.093   4.311  14.647  0.00  0.00    +0.000 A 
ATOM     22  C   UNL     1       6.930   5.139  15.357  0.00  0.00    +0.000 A 
ATOM     23  C   UNL     1       6.784   5.335  16.715  0.00  0.00    +0.000 A 
ATOM     24  O   UNL     1       7.926   5.655  14.589  0.00  0.00    +0.000 OA
ATOM     25  C   UNL     1       7.694   4.953  13.348  0.00  0.00    +0.000 C 
ATOM     26  O   UNL     1       6.473   4.183  13.347  0.00  0.00    +0.000 OA
ENDBRANCH  17  18
ENDBRANCH   7  17
TORSDOF 3
ENDMDL
MODEL 6
REMARK VINA RESULT:      -7.8      3.039      7.547
REMARK  Name = 
REMARK  5 active torsions:
REMARK  status: ('A' for Active; 'I' for Inactive)
REMARK    1  A    between atoms: C_1  and  C_2
REMARK    2  A    between atoms: C_5  and  N_6
REMARK    3  A    between atoms: N_12  and  C_13
REMARK    4  A    between atoms: C_13  and  C_14
REMARK    5  A    between atoms: C_23  and  C_24
REMARK                            x       y       z     vdW  Elec       q    Type
REMARK                         _______ _______ _______ _____ _____    ______ ____
ROOT
ATOM      1  N   UNL     1       3.131   6.427  18.237  0.00  0.00    +0.000 N 
ATOM      2  C   UNL     1       2.615   5.152  18.276  0.00  0.00    +0.000 C 
ATOM      3  N   UNL     1       1.343   4.923  18.126  0.00  0.00    +0.000 NA
ATOM      4  C   UNL     1       1.154   3.471  18.245  0.00  0.00    +0.000 C 
ATOM      5  C   UNL     1       2.537   2.959  18.439  0.00  0.00    +0.000 C 
ATOM      6  O   UNL     1       2.845   1.775  18.578  0.00  0.00    +0.000 OA
ATOM      7  N   UNL     1       3.372   4.030  18.464  0.00  0.00    +0.000 N 
ATOM      8  H   UNL     1       4.095   6.522  18.518  0.00  0.00    +0.000 HD
ENDROOT
BRANCH   1  13
ATOM      9  C   UNL     1      -0.111  10.971  19.701  0.00  0.00    +0.000 C 
ATOM     10  C   UNL     1       0.745   9.801  19.322  0.00  0.00    +0.000 A 
ATOM     11  C   UNL     1       1.290   9.694  18.048  0.00  0.00    +0.000 A 
ATOM     12  C   UNL     1       2.086   8.594  17.713  0.00  0.00    +0.000 A 
ATOM     13  C   UNL     1       2.375   7.571  18.639  0.00  0.00    +0.000 A 
ATOM     14  C   UNL     1       1.818   7.677  19.932  0.00  0.00    +0.000 A 
ATOM     15  C   UNL     1       2.086   6.706  21.049  0.00  0.00    +0.000 C 
ATOM     16  C   UNL     1       1.017   8.794  20.254  0.00  0.00    +0.000 A 
ENDBRANCH   1  13
BRANCH   7  17
ATOM     17  C   UNL     1       4.799   3.804  18.689  0.00  0.00    +0.000 C 
BRANCH  17  18
ATOM     18  C   UNL     1       5.700   4.219  17.544  0.00  0.00    +0.000 A 
ATOM     19  C   UNL     1       6.647   5.262  17.714  0.00  0.00    +0.000 A 
ATOM     20  C   UNL     1       7.409   5.735  16.637  0.00  0.00    +0.000 A 
ATOM     21  C   UNL     1       7.207   5.148  15.410  0.00  0.00    +0.000 A 
ATOM     22  C   UNL     1       6.329   4.103  15.241  0.00  0.00    +0.000 A 
ATOM     23  C   UNL     1       5.578   3.605  16.286  0.00  0.00    +0.000 A 
ATOM     24  O   UNL     1       6.247   3.697  13.946  0.00  0.00    +0.000 OA
ATOM     25  C   UNL     1       7.074   4.691  13.303  0.00  0.00    +0.000 C 
ATOM     26  O   UNL     1       7.768   5.546  14.236  0.00  0.00    +0.000 OA
ENDBRANCH  17  18
ENDBRANCH   7  17
TORSDOF 3
ENDMDL
MODEL 7
REMARK VINA RESULT:      -7.7      3.028      6.118
REMARK  Name = 
REMARK  5 active torsions:
REMARK  status: ('A' for Active; 'I' for Inactive)
REMARK    1  A    between atoms: C_1  and  C_2
REMARK    2  A    between atoms: C_5  and  N_6
REMARK    3  A    between atoms: N_12  and  C_13
REMARK    4  A    between atoms: C_13  and  C_14
REMARK    5  A    between atoms: C_23  and  C_24
REMARK                            x       y       z     vdW  Elec       q    Type
REMARK                         _______ _______ _______ _____ _____    ______ ____
ROOT
ATOM      1  N   UNL     1       3.727   6.137  18.451  0.00  0.00    +0.000 N 
ATOM      2  C   UNL     1       4.912   6.128  17.751  0.00  0.00    +0.000 C 
ATOM      3  N   UNL     1       5.664   7.187  17.664  0.00  0.00    +0.000 NA
ATOM      4  C   UNL     1       6.820   6.821  16.835  0.00  0.00    +0.000 C 
ATOM      5  C   UNL     1       6.585   5.383  16.531  0.00  0.00    +0.000 C 
ATOM      6  O   UNL     1       7.327   4.667  15.858  0.00  0.00    +0.000 OA
ATOM      7  N   UNL     1       5.404   5.031  17.103  0.00  0.00    +0.000 N 
ATOM      8  H   UNL     1       3.138   5.326  18.332  0.00  0.00    +0.000 HD
ENDROOT
BRANCH   1  13
ATOM      9  C   UNL     1       0.387  10.827  18.838  0.00  0.00    +0.000 C 
ATOM     10  C   UNL     1       1.268   9.619  18.743  0.00  0.00    +0.000 A 
ATOM     11  C   UNL     1       2.154   9.458  17.683  0.00  0.00    +0.000 A 
ATOM     12  C   UNL     1       2.967   8.324  17.611  0.00  0.00    +0.000 A 
ATOM     13  C   UNL     1       2.934   7.317  18.597  0.00  0.00    +0.000 A 
ATOM     14  C   UNL     1       2.032   7.477  19.671  0.00  0.00    +0.000 A 
ATOM     15  C   UNL     1       1.925   6.528  20.834  0.00  0.00    +0.000 C 
ATOM     16  C   UNL     1       1.217   8.629  19.729  0.00  0.00    +0.000 A 
ENDBRANCH   1  13
BRANCH   7  17
ATOM     17  C   UNL     1       4.913   3.667  16.916  0.00  0.00    +0.000 C 
BRANCH  17  18
ATOM     18  C   UNL     1       3.827   3.240  17.883  0.00  0.00    +0.000 A 
ATOM     19  C   UNL     1       2.475   3.168  17.460  0.00  0.00    +0.000 A 
ATOM     20  C   UNL     1       1.444   2.886  18.367  0.00  0.00    +0.000 A 
ATOM     21  C   UNL     1       1.793   2.678  19.682  0.00  0.00    +0.000 A 
ATOM     22  C   UNL     1       3.104   2.696  20.095  0.00  0.00    +0.000 A 
ATOM     23  C   UNL     1       4.142   2.954  19.222  0.00  0.00    +0.000 A 
ATOM     24  O   UNL     1       3.230   2.511  21.436  0.00  0.00    +0.000 OA
ATOM     25  C   UNL     1       1.841   2.506  21.833  0.00  0.00    +0.000 C 
ATOM     26  O   UNL     1       0.927   2.504  20.717  0.00  0.00    +0.000 OA
ENDBRANCH  17  18
ENDBRANCH   7  17
TORSDOF 3
ENDMDL
MODEL 8
REMARK VINA RESULT:      -7.7      2.727      4.659
REMARK  Name = 
REMARK  5 active torsions:
REMARK  status: ('A' for Active; 'I' for Inactive)
REMARK    1  A    between atoms: C_1  and  C_2
REMARK    2  A    between atoms: C_5  and  N_6
REMARK    3  A    between atoms: N_12  and  C_13
REMARK    4  A    between atoms: C_13  and  C_14
REMARK    5  A    between atoms: C_23  and  C_24
REMARK                            x       y       z     vdW  Elec       q    Type
REMARK                         _______ _______ _______ _____ _____    ______ ____
ROOT
ATOM      1  N   UNL     1       4.780   4.210  18.528  0.00  0.00    +0.000 N 
ATOM      2  C   UNL     1       3.534   3.630  18.603  0.00  0.00    +0.000 C 
ATOM      3  N   UNL     1       3.150   2.719  17.756  0.00  0.00    +0.000 NA
ATOM      4  C   UNL     1       1.777   2.349  18.123  0.00  0.00    +0.000 C 
ATOM      5  C   UNL     1       1.507   3.176  19.329  0.00  0.00    +0.000 C 
ATOM      6  O   UNL     1       0.458   3.173  19.975  0.00  0.00    +0.000 OA
ATOM      7  N   UNL     1       2.607   3.941  19.557  0.00  0.00    +0.000 N 
ATOM      8  H   UNL     1       4.930   5.011  19.122  0.00  0.00    +0.000 HD
ENDROOT
BRANCH   1  13
ATOM      9  C   UNL     1       7.446   5.026  13.475  0.00  0.00    +0.000 C 
ATOM     10  C   UNL     1       6.756   4.797  14.786  0.00  0.00    +0.000 A 
ATOM     11  C   UNL     1       5.451   4.319  14.836  0.00  0.00    +0.000 A 
ATOM     12  C   UNL     1       4.824   4.112  16.068  0.00  0.00    +0.000 A 
ATOM     13  C   UNL     1       5.479   4.363  17.291  0.00  0.00    +0.000 A 
ATOM     14  C   UNL     1       6.802   4.852  17.241  0.00  0.00    +0.000 A 
ATOM     15  C   UNL     1       7.657   5.103  18.454  0.00  0.00    +0.000 C 
ATOM     16  C   UNL     1       7.422   5.055  15.988  0.00  0.00    +0.000 A 
ENDBRANCH   1  13
BRANCH   7  17
ATOM     17  C   UNL     1       2.586   4.888  20.670  0.00  0.00    +0.000 C 
BRANCH  17  18
ATOM     18  C   UNL     1       2.243   6.314  20.290  0.00  0.00    +0.000 A 
ATOM     19  C   UNL     1       1.489   7.132  21.171  0.00  0.00    +0.000 A 
ATOM     20  C   UNL     1       1.066   8.412  20.790  0.00  0.00    +0.000 A 
ATOM     21  C   UNL     1       1.412   8.848  19.532  0.00  0.00    +0.000 A 
ATOM     22  C   UNL     1       2.184   8.086  18.688  0.00  0.00    +0.000 A 
ATOM     23  C   UNL     1       2.629   6.828  19.041  0.00  0.00    +0.000 A 
ATOM     24  O   UNL     1       2.375   8.679  17.479  0.00  0.00    +0.000 OA
ATOM     25  C   UNL     1       1.527   9.840  17.617  0.00  0.00    +0.000 C 
ATOM     26  O   UNL     1       1.000  10.007  18.950  0.00  0.00    +0.000 OA
ENDBRANCH  17  18
ENDBRANCH   7  17
TORSDOF 3
ENDMDL
MODEL 9
REMARK VINA RESULT:      -7.5      3.391      8.013
REMARK  Name = 
REMARK  5 active torsions:
REMARK  status: ('A' for Active; 'I' for Inactive)
REMARK    1  A    between atoms: C_1  and  C_2
REMARK    2  A    between atoms: C_5  and  N_6
REMARK    3  A    between atoms: N_12  and  C_13
REMARK    4  A    between atoms: C_13  and  C_14
REMARK    5  A    between atoms: C_23  and  C_24
REMARK                            x       y       z     vdW  Elec       q    Type
REMARK                         _______ _______ _______ _____ _____    ______ ____
ROOT
ATOM      1  N   UNL     1       2.632   7.166  19.631  0.00  0.00    +0.000 N 
ATOM      2  C   UNL     1       2.462   5.811  19.797  0.00  0.00    +0.000 C 
ATOM      3  N   UNL     1       1.280   5.277  19.911  0.00  0.00    +0.000 NA
ATOM      4  C   UNL     1       1.480   3.834  20.093  0.00  0.00    +0.000 C 
ATOM      5  C   UNL     1       2.957   3.678  20.012  0.00  0.00    +0.000 C 
ATOM      6  O   UNL     1       3.567   2.612  20.107  0.00  0.00    +0.000 OA
ATOM      7  N   UNL     1       3.492   4.916  19.848  0.00  0.00    +0.000 N 
ATOM      8  H   UNL     1       3.578   7.505  19.710  0.00  0.00    +0.000 HD
ENDROOT
BRANCH   1  13
ATOM      9  C   UNL     1      -0.901  11.129  21.893  0.00  0.00    +0.000 C 
ATOM     10  C   UNL     1       0.003  10.089  21.306  0.00  0.00    +0.000 A 
ATOM     11  C   UNL     1       0.524   9.065  22.089  0.00  0.00    +0.000 A 
ATOM     12  C   UNL     1       1.366   8.104  21.524  0.00  0.00    +0.000 A 
ATOM     13  C   UNL     1       1.709   8.123  20.156  0.00  0.00    +0.000 A 
ATOM     14  C   UNL     1       1.185   9.164  19.360  0.00  0.00    +0.000 A 
ATOM     15  C   UNL     1       1.401   9.286  17.877  0.00  0.00    +0.000 C 
ATOM     16  C   UNL     1       0.335  10.128  19.948  0.00  0.00    +0.000 A 
ENDBRANCH   1  13
BRANCH   7  17
ATOM     17  C   UNL     1       4.947   5.050  19.784  0.00  0.00    +0.000 C 
BRANCH  17  18
ATOM     18  C   UNL     1       5.558   4.747  18.431  0.00  0.00    +0.000 A 
ATOM     19  C   UNL     1       6.965   4.779  18.254  0.00  0.00    +0.000 A 
ATOM     20  C   UNL     1       7.542   4.615  16.987  0.00  0.00    +0.000 A 
ATOM     21  C   UNL     1       6.693   4.417  15.923  0.00  0.00    +0.000 A 
ATOM     22  C   UNL     1       5.331   4.335  16.088  0.00  0.00    +0.000 A 
ATOM     23  C   UNL     1       4.735   4.476  17.325  0.00  0.00    +0.000 A 
ATOM     24  O   UNL     1       4.672   4.181  14.908  0.00  0.00    +0.000 OA
ATOM     25  C   UNL     1       5.767   4.307  13.975  0.00  0.00    +0.000 C 
ATOM     26  O   UNL     1       7.060   4.350  14.614  0.00  0.00    +0.000 OA
ENDBRANCH  17  18
ENDBRANCH   7  17
TORSDOF 3
ENDMDL
