MODEL 1
REMARK VINA RESULT:      -8.4      0.000      0.000
REMARK  Name = 
REMARK  3 active torsions:
REMARK  status: ('A' for Active; 'I' for Inactive)
REMARK    1  A    between atoms: C_1  and  C_2
REMARK    2  A    between atoms: C_10  and  C_11
REMARK    3  A    between atoms: N_16  and  C_17
REMARK                            x       y       z     vdW  Elec       q    Type
REMARK                         _______ _______ _______ _____ _____    ______ ____
ROOT
ATOM      1  C   UNL     1       2.601   6.738  18.635  0.00  0.00    +0.000 A 
ATOM      2  C   UNL     1       2.426   6.608  19.999  0.00  0.00    +0.000 A 
ATOM      3  C   UNL     1       1.788   7.644  20.619  0.00  0.00    +0.000 A 
ATOM      4  N   UNL     1       1.308   8.698  19.956  0.00  0.00    +0.000 NA
ATOM      5  C   UNL     1       1.476   8.733  18.621  0.00  0.00    +0.000 A 
ATOM      6  N   UNL     1       0.939   9.804  17.907  0.00  0.00    +0.000 N 
ATOM      7  N   UNL     1       2.137   7.795  17.931  0.00  0.00    +0.000 NA
ATOM      8  H   UNL     1       1.189   9.758  16.931  0.00  0.00    +0.000 HD
ENDROOT
BRANCH   1  18
ATOM      9  C   UNL     1       1.465   3.834  17.882  0.00  0.00    +0.000 C 
ATOM     10  C   UNL     1       2.791   4.449  17.595  0.00  0.00    +0.000 A 
ATOM     11  N   UNL     1       3.766   3.738  16.934  0.00  0.00    +0.000 N 
ATOM     12  C   UNL     1       4.919   4.479  16.820  0.00  0.00    +0.000 A 
ATOM     13  C   UNL     1       6.153   4.141  16.250  0.00  0.00    +0.000 A 
ATOM     14  C   UNL     1       7.167   5.103  16.276  0.00  0.00    +0.000 A 
ATOM     15  C   UNL     1       6.948   6.359  16.833  0.00  0.00    +0.000 A 
ATOM     16  C   UNL     1       5.704   6.682  17.382  0.00  0.00    +0.000 A 
ATOM     17  C   UNL     1       4.665   5.722  17.397  0.00  0.00    +0.000 A 
ATOM     18  C   UNL     1       3.316   5.698  17.897  0.00  0.00    +0.000 A 
ATOM     19  H   UNL     1       3.663   2.793  16.594  0.00  0.00    +0.000 HD
ENDBRANCH   1  18
BRANCH   6  20
ATOM     20  C   UNL     1      -0.185  10.575  18.241  0.00  0.00    +0.000 A 
ATOM     21  C   UNL     1      -0.038  11.693  19.074  0.00  0.00    +0.000 A 
ATOM     22  C   UNL     1      -1.159  12.410  19.504  0.00  0.00    +0.000 A 
ATOM     23  C   UNL     1      -2.428  12.027  19.089  0.00  0.00    +0.000 A 
ATOM     24  F   UNL     1      -3.501  12.703  19.513  0.00  0.00    +0.000 F 
ATOM     25  C   UNL     1      -2.599  10.939  18.242  0.00  0.00    +0.000 A 
ATOM     26  C   UNL     1      -1.481  10.218  17.828  0.00  0.00    +0.000 A 
ENDBRANCH   6  20
TORSDOF 2
ENDMDL
MODEL 2
REMARK VINA RESULT:      -8.1      0.300      1.028
REMARK  Name = 
REMARK  3 active torsions:
REMARK  status: ('A' for Active; 'I' for Inactive)
REMARK    1  A    between atoms: C_1  and  C_2
REMARK    2  A    between atoms: C_10  and  C_11
REMARK    3  A    between atoms: N_16  and  C_17
REMARK                            x       y       z     vdW  Elec       q    Type
REMARK                         _______ _______ _______ _____ _____    ______ ____
ROOT
ATOM      1  C   UNL     1       2.629   6.569  18.761  0.00  0.00    +0.000 A 
ATOM      2  C   UNL     1       2.415   6.314  20.101  0.00  0.00    +0.000 A 
ATOM      3  C   UNL     1       1.802   7.309  20.807  0.00  0.00    +0.000 A 
ATOM      4  N   UNL     1       1.381   8.442  20.241  0.00  0.00    +0.000 NA
ATOM      5  C   UNL     1       1.584   8.601  18.920  0.00  0.00    +0.000 A 
ATOM      6  N   UNL     1       1.108   9.759  18.304  0.00  0.00    +0.000 N 
ATOM      7  N   UNL     1       2.225   7.708  18.155  0.00  0.00    +0.000 NA
ATOM      8  H   UNL     1       1.381   9.797  17.334  0.00  0.00    +0.000 HD
ENDROOT
BRANCH   1  18
ATOM      9  C   UNL     1       1.474   3.711  17.874  0.00  0.00    +0.000 C 
ATOM     10  C   UNL     1       2.789   4.346  17.581  0.00  0.00    +0.000 A 
ATOM     11  N   UNL     1       3.742   3.680  16.847  0.00  0.00    +0.000 N 
ATOM     12  C   UNL     1       4.890   4.431  16.740  0.00  0.00    +0.000 A 
ATOM     13  C   UNL     1       6.105   4.132  16.110  0.00  0.00    +0.000 A 
ATOM     14  C   UNL     1       7.118   5.094  16.160  0.00  0.00    +0.000 A 
ATOM     15  C   UNL     1       6.915   6.314  16.797  0.00  0.00    +0.000 A 
ATOM     16  C   UNL     1       5.689   6.599  17.405  0.00  0.00    +0.000 A 
ATOM     17  C   UNL     1       4.653   5.636  17.397  0.00  0.00    +0.000 A 
ATOM     18  C   UNL     1       3.321   5.578  17.939  0.00  0.00    +0.000 A 
ATOM     19  H   UNL     1       3.630   2.756  16.454  0.00  0.00    +0.000 HD
ENDBRANCH   1  18
BRANCH   6  20
ATOM     20  C   UNL     1       0.008  10.539  18.689  0.00  0.00    +0.000 A 
ATOM     21  C   UNL     1      -1.259  10.262  18.155  0.00  0.00    +0.000 A 
ATOM     22  C   UNL     1      -2.347  11.093  18.443  0.00  0.00    +0.000 A 
ATOM     23  C   UNL     1      -2.179  12.189  19.278  0.00  0.00    +0.000 A 
ATOM     24  F   UNL     1      -3.217  12.993  19.540  0.00  0.00    +0.000 F 
ATOM     25  C   UNL     1      -0.941  12.470  19.841  0.00  0.00    +0.000 A 
ATOM     26  C   UNL     1       0.143  11.649  19.540  0.00  0.00    +0.000 A 
ENDBRANCH   6  20
TORSDOF 2
ENDMDL
MODEL 3
REMARK VINA RESULT:      -7.9      2.136      3.624
REMARK  Name = 
REMARK  3 active torsions:
REMARK  status: ('A' for Active; 'I' for Inactive)
REMARK    1  A    between atoms: C_1  and  C_2
REMARK    2  A    between atoms: C_10  and  C_11
REMARK    3  A    between atoms: N_16  and  C_17
REMARK                            x       y       z     vdW  Elec       q    Type
REMARK                         _______ _______ _______ _____ _____    ______ ____
ROOT
ATOM      1  C   UNL     1       4.433   5.596  16.862  0.00  0.00    +0.000 A 
ATOM      2  C   UNL     1       3.608   4.543  17.204  0.00  0.00    +0.000 A 
ATOM      3  C   UNL     1       2.564   4.847  18.029  0.00  0.00    +0.000 A 
ATOM      4  N   UNL     1       2.310   6.090  18.445  0.00  0.00    +0.000 NA
ATOM      5  C   UNL     1       3.132   7.073  18.033  0.00  0.00    +0.000 A 
ATOM      6  N   UNL     1       2.854   8.384  18.420  0.00  0.00    +0.000 N 
ATOM      7  N   UNL     1       4.213   6.866  17.270  0.00  0.00    +0.000 NA
ATOM      8  H   UNL     1       3.574   9.019  18.112  0.00  0.00    +0.000 HD
ENDROOT
BRANCH   1  18
ATOM      9  C   UNL     1       7.436   6.537  17.480  0.00  0.00    +0.000 C 
ATOM     10  C   UNL     1       6.888   5.784  16.318  0.00  0.00    +0.000 A 
ATOM     11  N   UNL     1       7.705   5.407  15.277  0.00  0.00    +0.000 N 
ATOM     12  C   UNL     1       6.983   4.768  14.296  0.00  0.00    +0.000 A 
ATOM     13  C   UNL     1       7.402   4.247  13.065  0.00  0.00    +0.000 A 
ATOM     14  C   UNL     1       6.439   3.643  12.252  0.00  0.00    +0.000 A 
ATOM     15  C   UNL     1       5.114   3.546  12.664  0.00  0.00    +0.000 A 
ATOM     16  C   UNL     1       4.719   4.057  13.903  0.00  0.00    +0.000 A 
ATOM     17  C   UNL     1       5.664   4.699  14.738  0.00  0.00    +0.000 A 
ATOM     18  C   UNL     1       5.603   5.353  16.019  0.00  0.00    +0.000 A 
ATOM     19  H   UNL     1       8.696   5.589  15.224  0.00  0.00    +0.000 HD
ENDBRANCH   1  18
BRANCH   6  20
ATOM     20  C   UNL     1       1.599   8.939  18.715  0.00  0.00    +0.000 A 
ATOM     21  C   UNL     1       0.797   9.432  17.677  0.00  0.00    +0.000 A 
ATOM     22  C   UNL     1      -0.408  10.084  17.960  0.00  0.00    +0.000 A 
ATOM     23  C   UNL     1      -0.825  10.228  19.277  0.00  0.00    +0.000 A 
ATOM     24  F   UNL     1      -1.970  10.865  19.547  0.00  0.00    +0.000 F 
ATOM     25  C   UNL     1      -0.062   9.724  20.322  0.00  0.00    +0.000 A 
ATOM     26  C   UNL     1       1.145   9.088  20.037  0.00  0.00    +0.000 A 
ENDBRANCH   6  20
TORSDOF 2
ENDMDL
MODEL 4
REMARK VINA RESULT:      -7.8      3.595      8.399
REMARK  Name = 
REMARK  3 active torsions:
REMARK  status: ('A' for Active; 'I' for Inactive)
REMARK    1  A    between atoms: C_1  and  C_2
REMARK    2  A    between atoms: C_10  and  C_11
REMARK    3  A    between atoms: N_16  and  C_17
REMARK                            x       y       z     vdW  Elec       q    Type
REMARK                         _______ _______ _______ _____ _____    ______ ____
ROOT
ATOM      1  C   UNL     1       0.981   9.440  18.891  0.00  0.00    +0.000 A 
ATOM      2  C   UNL     1       1.726   9.510  17.730  0.00  0.00    +0.000 A 
ATOM      3  C   UNL     1       2.695   8.560  17.584  0.00  0.00    +0.000 A 
ATOM      4  N   UNL     1       2.888   7.582  18.472  0.00  0.00    +0.000 NA
ATOM      5  C   UNL     1       2.092   7.550  19.557  0.00  0.00    +0.000 A 
ATOM      6  N   UNL     1       2.249   6.508  20.471  0.00  0.00    +0.000 N 
ATOM      7  N   UNL     1       1.153   8.469  19.817  0.00  0.00    +0.000 NA
ATOM      8  H   UNL     1       1.650   6.630  21.274  0.00  0.00    +0.000 HD
ENDROOT
BRANCH   1  18
ATOM      9  C   UNL     1       1.184  11.843  21.005  0.00  0.00    +0.000 C 
ATOM     10  C   UNL     1       0.076  11.469  20.083  0.00  0.00    +0.000 A 
ATOM     11  N   UNL     1      -1.101  12.181  20.075  0.00  0.00    +0.000 N 
ATOM     12  C   UNL     1      -1.997  11.633  19.185  0.00  0.00    +0.000 A 
ATOM     13  C   UNL     1      -3.309  12.017  18.879  0.00  0.00    +0.000 A 
ATOM     14  C   UNL     1      -3.999  11.267  17.921  0.00  0.00    +0.000 A 
ATOM     15  C   UNL     1      -3.393  10.191  17.283  0.00  0.00    +0.000 A 
ATOM     16  C   UNL     1      -2.078   9.835  17.591  0.00  0.00    +0.000 A 
ATOM     17  C   UNL     1      -1.361  10.555  18.575  0.00  0.00    +0.000 A 
ATOM     18  C   UNL     1      -0.047  10.445  19.153  0.00  0.00    +0.000 A 
ATOM     19  H   UNL     1      -1.297  12.984  20.654  0.00  0.00    +0.000 HD
ENDBRANCH   1  18
BRANCH   6  20
ATOM     20  C   UNL     1       2.713   5.210  20.214  0.00  0.00    +0.000 A 
ATOM     21  C   UNL     1       4.002   5.024  19.695  0.00  0.00    +0.000 A 
ATOM     22  C   UNL     1       4.443   3.747  19.332  0.00  0.00    +0.000 A 
ATOM     23  C   UNL     1       3.608   2.651  19.504  0.00  0.00    +0.000 A 
ATOM     24  F   UNL     1       4.025   1.432  19.141  0.00  0.00    +0.000 F 
ATOM     25  C   UNL     1       2.337   2.804  20.040  0.00  0.00    +0.000 A 
ATOM     26  C   UNL     1       1.895   4.079  20.387  0.00  0.00    +0.000 A 
ENDBRANCH   6  20
TORSDOF 2
ENDMDL
MODEL 5
REMARK VINA RESULT:      -7.8      5.366      7.265
REMARK  Name = 
REMARK  3 active torsions:
REMARK  status: ('A' for Active; 'I' for Inactive)
REMARK    1  A    between atoms: C_1  and  C_2
REMARK    2  A    between atoms: C_10  and  C_11
REMARK    3  A    between atoms: N_16  and  C_17
REMARK                            x       y       z     vdW  Elec       q    Type
REMARK                         _______ _______ _______ _____ _____    ______ ____
ROOT
ATOM      1  C   UNL     1       6.045   5.632  18.162  0.00  0.00    +0.000 A 
ATOM      2  C   UNL     1       6.955   5.072  19.036  0.00  0.00    +0.000 A 
ATOM      3  C   UNL     1       8.084   5.803  19.270  0.00  0.00    +0.000 A 
ATOM      4  N   UNL     1       8.286   7.011  18.739  0.00  0.00    +0.000 NA
ATOM      5  C   UNL     1       7.332   7.512  17.932  0.00  0.00    +0.000 A 
ATOM      6  N   UNL     1       7.505   8.793  17.407  0.00  0.00    +0.000 N 
ATOM      7  N   UNL     1       6.218   6.849  17.598  0.00  0.00    +0.000 NA
ATOM      8  H   UNL     1       6.764   9.030  16.765  0.00  0.00    +0.000 HD
ENDROOT
BRANCH   1  18
ATOM      9  C   UNL     1       5.423   4.222  15.349  0.00  0.00    +0.000 C 
ATOM     10  C   UNL     1       4.593   4.305  16.583  0.00  0.00    +0.000 A 
ATOM     11  N   UNL     1       3.336   3.749  16.623  0.00  0.00    +0.000 N 
ATOM     12  C   UNL     1       2.735   3.985  17.837  0.00  0.00    +0.000 A 
ATOM     13  C   UNL     1       1.461   3.627  18.295  0.00  0.00    +0.000 A 
ATOM     14  C   UNL     1       1.106   4.006  19.594  0.00  0.00    +0.000 A 
ATOM     15  C   UNL     1       1.998   4.697  20.406  0.00  0.00    +0.000 A 
ATOM     16  C   UNL     1       3.271   5.030  19.937  0.00  0.00    +0.000 A 
ATOM     17  C   UNL     1       3.651   4.686  18.618  0.00  0.00    +0.000 A 
ATOM     18  C   UNL     1       4.829   4.897  17.817  0.00  0.00    +0.000 A 
ATOM     19  H   UNL     1       2.898   3.252  15.861  0.00  0.00    +0.000 HD
ENDBRANCH   1  18
BRANCH   6  20
ATOM     20  C   UNL     1       8.224   9.857  17.971  0.00  0.00    +0.000 A 
ATOM     21  C   UNL     1       8.123  11.138  17.410  0.00  0.00    +0.000 A 
ATOM     22  C   UNL     1       8.911  12.188  17.892  0.00  0.00    +0.000 A 
ATOM     23  C   UNL     1       9.788  11.968  18.947  0.00  0.00    +0.000 A 
ATOM     24  F   UNL     1      10.554  12.969  19.396  0.00  0.00    +0.000 F 
ATOM     25  C   UNL     1       9.888  10.716  19.537  0.00  0.00    +0.000 A 
ATOM     26  C   UNL     1       9.111   9.669  19.045  0.00  0.00    +0.000 A 
ENDBRANCH   6  20
TORSDOF 2
ENDMDL
MODEL 6
REMARK VINA RESULT:      -7.8      3.610      8.466
REMARK  Name = 
REMARK  3 active torsions:
REMARK  status: ('A' for Active; 'I' for Inactive)
REMARK    1  A    between atoms: C_1  and  C_2
REMARK    2  A    between atoms: C_10  and  C_11
REMARK    3  A    between atoms: N_16  and  C_17
REMARK                            x       y       z     vdW  Elec       q    Type
REMARK                         _______ _______ _______ _____ _____    ______ ____
ROOT
ATOM      1  C   UNL     1       0.934   9.486  18.904  0.00  0.00    +0.000 A 
ATOM      2  C   UNL     1       1.673   9.569  17.741  0.00  0.00    +0.000 A 
ATOM      3  C   UNL     1       2.668   8.645  17.598  0.00  0.00    +0.000 A 
ATOM      4  N   UNL     1       2.890   7.679  18.492  0.00  0.00    +0.000 NA
ATOM      5  C   UNL     1       2.099   7.633  19.580  0.00  0.00    +0.000 A 
ATOM      6  N   UNL     1       2.287   6.602  20.501  0.00  0.00    +0.000 N 
ATOM      7  N   UNL     1       1.136   8.527  19.837  0.00  0.00    +0.000 NA
ATOM      8  H   UNL     1       1.687   6.712  21.304  0.00  0.00    +0.000 HD
ENDROOT
BRANCH   1  18
ATOM      9  C   UNL     1       1.050  11.868  21.049  0.00  0.00    +0.000 C 
ATOM     10  C   UNL     1      -0.035  11.479  20.106  0.00  0.00    +0.000 A 
ATOM     11  N   UNL     1      -1.228  12.164  20.088  0.00  0.00    +0.000 N 
ATOM     12  C   UNL     1      -2.098  11.607  19.179  0.00  0.00    +0.000 A 
ATOM     13  C   UNL     1      -3.413  11.964  18.857  0.00  0.00    +0.000 A 
ATOM     14  C   UNL     1      -4.072  11.210  17.881  0.00  0.00    +0.000 A 
ATOM     15  C   UNL     1      -3.432  10.155  17.240  0.00  0.00    +0.000 A 
ATOM     16  C   UNL     1      -2.113   9.826  17.563  0.00  0.00    +0.000 A 
ATOM     17  C   UNL     1      -1.428  10.551  18.566  0.00  0.00    +0.000 A 
ATOM     18  C   UNL     1      -0.120  10.465  19.162  0.00  0.00    +0.000 A 
ATOM     19  H   UNL     1      -1.451  12.955  20.674  0.00  0.00    +0.000 HD
ENDBRANCH   1  18
BRANCH   6  20
ATOM     20  C   UNL     1       2.786   5.315  20.251  0.00  0.00    +0.000 A 
ATOM     21  C   UNL     1       2.139   4.200  20.802  0.00  0.00    +0.000 A 
ATOM     22  C   UNL     1       2.680   2.919  20.653  0.00  0.00    +0.000 A 
ATOM     23  C   UNL     1       3.858   2.744  19.937  0.00  0.00    +0.000 A 
ATOM     24  F   UNL     1       4.384   1.521  19.808  0.00  0.00    +0.000 F 
ATOM     25  C   UNL     1       4.504   3.828  19.358  0.00  0.00    +0.000 A 
ATOM     26  C   UNL     1       3.969   5.104  19.521  0.00  0.00    +0.000 A 
ENDBRANCH   6  20
TORSDOF 2
ENDMDL
MODEL 7
REMARK VINA RESULT:      -7.8      3.346      8.132
REMARK  Name = 
REMARK  3 active torsions:
REMARK  status: ('A' for Active; 'I' for Inactive)
REMARK    1  A    between atoms: C_1  and  C_2
REMARK    2  A    between atoms: C_10  and  C_11
REMARK    3  A    between atoms: N_16  and  C_17
REMARK                            x       y       z     vdW  Elec       q    Type
REMARK                         _______ _______ _______ _____ _____    ______ ____
ROOT
ATOM      1  C   UNL     1       1.179   9.520  18.965  0.00  0.00    +0.000 A 
ATOM      2  C   UNL     1       1.095   8.924  20.208  0.00  0.00    +0.000 A 
ATOM      3  C   UNL     1       1.764   7.742  20.349  0.00  0.00    +0.000 A 
ATOM      4  N   UNL     1       2.502   7.209  19.373  0.00  0.00    +0.000 NA
ATOM      5  C   UNL     1       2.575   7.871  18.204  0.00  0.00    +0.000 A 
ATOM      6  N   UNL     1       3.381   7.353  17.190  0.00  0.00    +0.000 N 
ATOM      7  N   UNL     1       1.911   9.007  17.950  0.00  0.00    +0.000 NA
ATOM      8  H   UNL     1       3.300   7.894  16.343  0.00  0.00    +0.000 HD
ENDROOT
BRANCH   1  18
ATOM      9  C   UNL     1      -1.603   9.802  17.394  0.00  0.00    +0.000 C 
ATOM     10  C   UNL     1      -0.745  10.847  18.019  0.00  0.00    +0.000 A 
ATOM     11  N   UNL     1      -1.092  12.176  17.945  0.00  0.00    +0.000 N 
ATOM     12  C   UNL     1      -0.137  12.964  18.545  0.00  0.00    +0.000 A 
ATOM     13  C   UNL     1      -0.073  14.357  18.676  0.00  0.00    +0.000 A 
ATOM     14  C   UNL     1       1.032  14.899  19.341  0.00  0.00    +0.000 A 
ATOM     15  C   UNL     1       2.020  14.077  19.871  0.00  0.00    +0.000 A 
ATOM     16  C   UNL     1       1.929  12.688  19.745  0.00  0.00    +0.000 A 
ATOM     17  C   UNL     1       0.839  12.110  19.053  0.00  0.00    +0.000 A 
ATOM     18  C   UNL     1       0.456  10.765  18.710  0.00  0.00    +0.000 A 
ATOM     19  H   UNL     1      -1.922  12.534  17.496  0.00  0.00    +0.000 HD
ENDBRANCH   1  18
BRANCH   6  20
ATOM     20  C   UNL     1       4.533   6.565  17.335  0.00  0.00    +0.000 A 
ATOM     21  C   UNL     1       5.794   7.177  17.361  0.00  0.00    +0.000 A 
ATOM     22  C   UNL     1       6.958   6.402  17.398  0.00  0.00    +0.000 A 
ATOM     23  C   UNL     1       6.867   5.017  17.428  0.00  0.00    +0.000 A 
ATOM     24  F   UNL     1       7.981   4.276  17.446  0.00  0.00    +0.000 F 
ATOM     25  C   UNL     1       5.630   4.386  17.429  0.00  0.00    +0.000 A 
ATOM     26  C   UNL     1       4.473   5.161  17.378  0.00  0.00    +0.000 A 
ENDBRANCH   6  20
TORSDOF 2
ENDMDL
MODEL 8
REMARK VINA RESULT:      -7.7      2.090      2.872
REMARK  Name = 
REMARK  3 active torsions:
REMARK  status: ('A' for Active; 'I' for Inactive)
REMARK    1  A    between atoms: C_1  and  C_2
REMARK    2  A    between atoms: C_10  and  C_11
REMARK    3  A    between atoms: N_16  and  C_17
REMARK                            x       y       z     vdW  Elec       q    Type
REMARK                         _______ _______ _______ _____ _____    ______ ____
ROOT
ATOM      1  C   UNL     1       2.693   4.676  18.979  0.00  0.00    +0.000 A 
ATOM      2  C   UNL     1       1.701   3.890  19.532  0.00  0.00    +0.000 A 
ATOM      3  C   UNL     1       0.937   4.483  20.495  0.00  0.00    +0.000 A 
ATOM      4  N   UNL     1       1.090   5.759  20.854  0.00  0.00    +0.000 NA
ATOM      5  C   UNL     1       2.047   6.477  20.239  0.00  0.00    +0.000 A 
ATOM      6  N   UNL     1       2.189   7.825  20.568  0.00  0.00    +0.000 N 
ATOM      7  N   UNL     1       2.883   5.970  19.323  0.00  0.00    +0.000 NA
ATOM      8  H   UNL     1       2.980   8.238  20.097  0.00  0.00    +0.000 HD
ENDROOT
BRANCH   1  18
ATOM      9  C   UNL     1       3.369   1.564  18.591  0.00  0.00    +0.000 C 
ATOM     10  C   UNL     1       3.862   2.753  17.841  0.00  0.00    +0.000 A 
ATOM     11  N   UNL     1       4.774   2.611  16.821  0.00  0.00    +0.000 N 
ATOM     12  C   UNL     1       5.123   3.837  16.304  0.00  0.00    +0.000 A 
ATOM     13  C   UNL     1       6.028   4.158  15.284  0.00  0.00    +0.000 A 
ATOM     14  C   UNL     1       6.191   5.509  14.960  0.00  0.00    +0.000 A 
ATOM     15  C   UNL     1       5.462   6.495  15.616  0.00  0.00    +0.000 A 
ATOM     16  C   UNL     1       4.551   6.152  16.619  0.00  0.00    +0.000 A 
ATOM     17  C   UNL     1       4.383   4.797  16.991  0.00  0.00    +0.000 A 
ATOM     18  C   UNL     1       3.589   4.108  17.973  0.00  0.00    +0.000 A 
ATOM     19  H   UNL     1       5.155   1.732  16.503  0.00  0.00    +0.000 HD
ENDBRANCH   1  18
BRANCH   6  20
ATOM     20  C   UNL     1       1.193   8.701  21.027  0.00  0.00    +0.000 A 
ATOM     21  C   UNL     1       0.468   9.470  20.106  0.00  0.00    +0.000 A 
ATOM     22  C   UNL     1      -0.453  10.425  20.549  0.00  0.00    +0.000 A 
ATOM     23  C   UNL     1      -0.668  10.601  21.910  0.00  0.00    +0.000 A 
ATOM     24  F   UNL     1      -1.537  11.525  22.334  0.00  0.00    +0.000 F 
ATOM     25  C   UNL     1       0.018   9.833  22.842  0.00  0.00    +0.000 A 
ATOM     26  C   UNL     1       0.946   8.893  22.397  0.00  0.00    +0.000 A 
ENDBRANCH   6  20
TORSDOF 2
ENDMDL
MODEL 9
REMARK VINA RESULT:      -7.6      3.928      8.400
REMARK  Name = 
REMARK  3 active torsions:
REMARK  status: ('A' for Active; 'I' for Inactive)
REMARK    1  A    between atoms: C_1  and  C_2
REMARK    2  A    between atoms: C_10  and  C_11
REMARK    3  A    between atoms: N_16  and  C_17
REMARK                            x       y       z     vdW  Elec       q    Type
REMARK                         _______ _______ _______ _____ _____    ______ ____
ROOT
ATOM      1  C   UNL     1       1.389   9.774  19.438  0.00  0.00    +0.000 A 
ATOM      2  C   UNL     1       1.570   9.645  18.076  0.00  0.00    +0.000 A 
ATOM      3  C   UNL     1       2.064   8.445  17.650  0.00  0.00    +0.000 A 
ATOM      4  N   UNL     1       2.310   7.430  18.481  0.00  0.00    +0.000 NA
ATOM      5  C   UNL     1       2.065   7.614  19.792  0.00  0.00    +0.000 A 
ATOM      6  N   UNL     1       2.271   6.547  20.667  0.00  0.00    +0.000 N 
ATOM      7  N   UNL     1       1.635   8.770  20.312  0.00  0.00    +0.000 NA
ATOM      8  H   UNL     1       2.123   6.825  21.626  0.00  0.00    +0.000 HD
ENDROOT
BRANCH   1  18
ATOM      9  C   UNL     1       2.137  12.703  18.365  0.00  0.00    +0.000 C 
ATOM     10  C   UNL     1       1.261  12.291  19.497  0.00  0.00    +0.000 A 
ATOM     11  N   UNL     1       0.650  13.235  20.290  0.00  0.00    +0.000 N 
ATOM     12  C   UNL     1      -0.068  12.634  21.298  0.00  0.00    +0.000 A 
ATOM     13  C   UNL     1      -0.815  13.208  22.335  0.00  0.00    +0.000 A 
ATOM     14  C   UNL     1      -1.450  12.345  23.235  0.00  0.00    +0.000 A 
ATOM     15  C   UNL     1      -1.357  10.966  23.088  0.00  0.00    +0.000 A 
ATOM     16  C   UNL     1      -0.622  10.413  22.036  0.00  0.00    +0.000 A 
ATOM     17  C   UNL     1       0.056  11.258  21.126  0.00  0.00    +0.000 A 
ATOM     18  C   UNL     1       0.909  11.041  19.987  0.00  0.00    +0.000 A 
ATOM     19  H   UNL     1       0.730  14.233  20.168  0.00  0.00    +0.000 HD
ENDBRANCH   1  18
BRANCH   6  20
ATOM     20  C   UNL     1       2.181   5.177  20.380  0.00  0.00    +0.000 A 
ATOM     21  C   UNL     1       3.321   4.481  19.953  0.00  0.00    +0.000 A 
ATOM     22  C   UNL     1       3.229   3.142  19.560  0.00  0.00    +0.000 A 
ATOM     23  C   UNL     1       2.005   2.488  19.610  0.00  0.00    +0.000 A 
ATOM     24  F   UNL     1       1.915   1.212  19.219  0.00  0.00    +0.000 F 
ATOM     25  C   UNL     1       0.866   3.147  20.054  0.00  0.00    +0.000 A 
ATOM     26  C   UNL     1       0.959   4.485  20.431  0.00  0.00    +0.000 A 
ENDBRANCH   6  20
TORSDOF 2
ENDMDL
