MODEL 1
REMARK VINA RESULT:      -8.7      0.000      0.000
REMARK  Name = 
REMARK  9 active torsions:
REMARK  status: ('A' for Active; 'I' for Inactive)
REMARK    1  A    between atoms: C_1  and  C_2
REMARK    2  A    between atoms: C_5  and  C_6
REMARK    3  A    between atoms: C_6  and  C_7
REMARK    4  A    between atoms: C_6  and  N_18
REMARK    5  A    between atoms: N_9  and  C_10
REMARK    6  A    between atoms: C_10  and  C_11
REMARK    7  A    between atoms: C_11  and  C_12
REMARK    8  A    between atoms: N_18  and  C_26
REMARK    9  A    between atoms: C_19  and  C_21
REMARK                            x       y       z     vdW  Elec       q    Type
REMARK                         _______ _______ _______ _____ _____    ______ ____
ROOT
ATOM      1  C   UNL     1       6.421   4.466  17.529  0.00  0.00    +0.000 C 
ENDROOT
BRANCH   1   6
ATOM      2  C   UNL     1       7.219   4.272  11.748  0.00  0.00    +0.000 C 
ATOM      3  C   UNL     1       6.892   4.468  13.199  0.00  0.00    +0.000 A 
ATOM      4  C   UNL     1       7.657   5.324  13.994  0.00  0.00    +0.000 A 
ATOM      5  C   UNL     1       7.488   5.339  15.385  0.00  0.00    +0.000 A 
ATOM      6  C   UNL     1       6.534   4.514  16.007  0.00  0.00    +0.000 A 
ATOM      7  C   UNL     1       5.690   3.761  15.181  0.00  0.00    +0.000 A 
ATOM      8  C   UNL     1       5.886   3.710  13.799  0.00  0.00    +0.000 A 
ENDBRANCH   1   6
BRANCH   1   9
ATOM      9  C   UNL     1       7.474   5.361  18.241  0.00  0.00    +0.000 C 
ATOM     10  O   UNL     1       8.326   4.935  19.019  0.00  0.00    +0.000 OA
ATOM     11  N   UNL     1       7.390   6.707  17.903  0.00  0.00    +0.000 N 
ATOM     12  H   UNL     1       6.600   7.029  17.358  0.00  0.00    +0.000 HD
BRANCH  11  13
ATOM     13  C   UNL     1       8.241   7.706  18.533  0.00  0.00    +0.000 C 
BRANCH  13  14
ATOM     14  C   UNL     1       8.146   9.080  17.858  0.00  0.00    +0.000 C 
BRANCH  14  15
ATOM     15  C   UNL     1       9.029  10.132  18.492  0.00  0.00    +0.000 A 
ATOM     16  C   UNL     1       9.132  10.236  19.884  0.00  0.00    +0.000 A 
ATOM     17  C   UNL     1       9.995  11.163  20.473  0.00  0.00    +0.000 A 
ATOM     18  C   UNL     1      10.777  11.995  19.671  0.00  0.00    +0.000 A 
ATOM     19  C   UNL     1      10.686  11.902  18.284  0.00  0.00    +0.000 A 
ATOM     20  C   UNL     1       9.819  10.978  17.695  0.00  0.00    +0.000 A 
ENDBRANCH  14  15
ENDBRANCH  13  14
ENDBRANCH  11  13
ENDBRANCH   1   9
BRANCH   1  21
ATOM     21  N   UNL     1       5.054   4.583  18.104  0.00  0.00    +0.000 N 
ATOM     22  C   UNL     1       4.604   3.755  19.152  0.00  0.00    +0.000 C 
ATOM     23  O   UNL     1       5.253   2.821  19.613  0.00  0.00    +0.000 OA
BRANCH  22  24
ATOM     24  C   UNL     1       3.261   4.011  19.704  0.00  0.00    +0.000 A 
ATOM     25  C   UNL     1       2.149   3.238  19.396  0.00  0.00    +0.000 A 
ATOM     26  S   UNL     1       0.805   3.887  20.235  0.00  0.00    +0.000 S 
ATOM     27  N   UNL     1       1.718   5.078  20.968  0.00  0.00    +0.000 NA
ATOM     28  N   UNL     1       2.994   5.031  20.624  0.00  0.00    +0.000 NA
ENDBRANCH  22  24
BRANCH  21  29
ATOM     29  C   UNL     1       4.101   5.367  17.334  0.00  0.00    +0.000 C 
ATOM     30  C   UNL     1       3.260   6.492  17.887  0.00  0.00    +0.000 C 
ATOM     31  C   UNL     1       4.427   6.811  17.012  0.00  0.00    +0.000 C 
ENDBRANCH  21  29
ENDBRANCH   1  21
TORSDOF 8
ENDMDL
MODEL 2
REMARK VINA RESULT:      -8.6      6.455      9.911
REMARK  Name = 
REMARK  9 active torsions:
REMARK  status: ('A' for Active; 'I' for Inactive)
REMARK    1  A    between atoms: C_1  and  C_2
REMARK    2  A    between atoms: C_5  and  C_6
REMARK    3  A    between atoms: C_6  and  C_7
REMARK    4  A    between atoms: C_6  and  N_18
REMARK    5  A    between atoms: N_9  and  C_10
REMARK    6  A    between atoms: C_10  and  C_11
REMARK    7  A    between atoms: C_11  and  C_12
REMARK    8  A    between atoms: N_18  and  C_26
REMARK    9  A    between atoms: C_19  and  C_21
REMARK                            x       y       z     vdW  Elec       q    Type
REMARK                         _______ _______ _______ _____ _____    ______ ____
ROOT
ATOM      1  C   UNL     1       0.316  10.082  19.328  0.00  0.00    +0.000 C 
ENDROOT
BRANCH   1   6
ATOM      2  C   UNL     1      -4.396  11.418  16.148  0.00  0.00    +0.000 C 
ATOM      3  C   UNL     1      -3.296  10.938  17.048  0.00  0.00    +0.000 A 
ATOM      4  C   UNL     1      -3.099  11.514  18.305  0.00  0.00    +0.000 A 
ATOM      5  C   UNL     1      -1.949  11.220  19.048  0.00  0.00    +0.000 A 
ATOM      6  C   UNL     1      -0.980  10.325  18.558  0.00  0.00    +0.000 A 
ATOM      7  C   UNL     1      -1.260   9.660  17.356  0.00  0.00    +0.000 A 
ATOM      8  C   UNL     1      -2.383   9.986  16.593  0.00  0.00    +0.000 A 
ENDBRANCH   1   6
BRANCH   1   9
ATOM      9  C   UNL     1       1.441   9.480  18.441  0.00  0.00    +0.000 C 
ATOM     10  O   UNL     1       1.953  10.066  17.488  0.00  0.00    +0.000 OA
ATOM     11  N   UNL     1       1.849   8.210  18.832  0.00  0.00    +0.000 N 
ATOM     12  H   UNL     1       1.319   7.719  19.540  0.00  0.00    +0.000 HD
BRANCH  11  13
ATOM     13  C   UNL     1       2.835   7.458  18.069  0.00  0.00    +0.000 C 
BRANCH  13  14
ATOM     14  C   UNL     1       3.444   6.296  18.865  0.00  0.00    +0.000 C 
BRANCH  14  15
ATOM     15  C   UNL     1       2.480   5.158  19.115  0.00  0.00    +0.000 A 
ATOM     16  C   UNL     1       2.077   4.318  18.070  0.00  0.00    +0.000 A 
ATOM     17  C   UNL     1       1.238   3.228  18.308  0.00  0.00    +0.000 A 
ATOM     18  C   UNL     1       0.797   2.957  19.603  0.00  0.00    +0.000 A 
ATOM     19  C   UNL     1       1.191   3.782  20.654  0.00  0.00    +0.000 A 
ATOM     20  C   UNL     1       2.027   4.877  20.415  0.00  0.00    +0.000 A 
ENDBRANCH  14  15
ENDBRANCH  13  14
ENDBRANCH  11  13
ENDBRANCH   1   9
BRANCH   1  21
ATOM     21  N   UNL     1       0.782  11.178  20.219  0.00  0.00    +0.000 N 
ATOM     22  C   UNL     1       1.361  12.362  19.715  0.00  0.00    +0.000 C 
ATOM     23  O   UNL     1       1.611  12.551  18.529  0.00  0.00    +0.000 OA
BRANCH  22  24
ATOM     24  C   UNL     1       1.712  13.420  20.681  0.00  0.00    +0.000 A 
ATOM     25  C   UNL     1       0.840  14.435  21.051  0.00  0.00    +0.000 A 
ATOM     26  S   UNL     1       1.650  15.445  22.172  0.00  0.00    +0.000 S 
ATOM     27  N   UNL     1       3.036  14.514  22.152  0.00  0.00    +0.000 NA
ATOM     28  N   UNL     1       2.942  13.471  21.345  0.00  0.00    +0.000 NA
ENDBRANCH  22  24
BRANCH  21  29
ATOM     29  C   UNL     1       0.907  10.848  21.630  0.00  0.00    +0.000 C 
ATOM     30  C   UNL     1      -0.188  10.245  22.476  0.00  0.00    +0.000 C 
ATOM     31  C   UNL     1       0.958   9.391  22.042  0.00  0.00    +0.000 C 
ENDBRANCH  21  29
ENDBRANCH   1  21
TORSDOF 8
ENDMDL
MODEL 3
REMARK VINA RESULT:      -8.5      1.239      1.309
REMARK  Name = 
REMARK  9 active torsions:
REMARK  status: ('A' for Active; 'I' for Inactive)
REMARK    1  A    between atoms: C_1  and  C_2
REMARK    2  A    between atoms: C_5  and  C_6
REMARK    3  A    between atoms: C_6  and  C_7
REMARK    4  A    between atoms: C_6  and  N_18
REMARK    5  A    between atoms: N_9  and  C_10
REMARK    6  A    between atoms: C_10  and  C_11
REMARK    7  A    between atoms: C_11  and  C_12
REMARK    8  A    between atoms: N_18  and  C_26
REMARK    9  A    between atoms: C_19  and  C_21
REMARK                            x       y       z     vdW  Elec       q    Type
REMARK                         _______ _______ _______ _____ _____    ______ ____
ROOT
ATOM      1  C   UNL     1       6.200   4.361  18.237  0.00  0.00    +0.000 C 
ENDROOT
BRANCH   1   6
ATOM      2  C   UNL     1       6.554   4.067  12.416  0.00  0.00    +0.000 C 
ATOM      3  C   UNL     1       6.396   4.322  13.885  0.00  0.00    +0.000 A 
ATOM      4  C   UNL     1       7.451   4.847  14.637  0.00  0.00    +0.000 A 
ATOM      5  C   UNL     1       7.376   4.880  16.035  0.00  0.00    +0.000 A 
ATOM      6  C   UNL     1       6.236   4.410  16.711  0.00  0.00    +0.000 A 
ATOM      7  C   UNL     1       5.140   4.010  15.935  0.00  0.00    +0.000 A 
ATOM      8  C   UNL     1       5.228   3.934  14.543  0.00  0.00    +0.000 A 
ENDBRANCH   1   6
BRANCH   1   9
ATOM      9  C   UNL     1       7.094   5.448  18.896  0.00  0.00    +0.000 C 
ATOM     10  O   UNL     1       7.486   5.403  20.062  0.00  0.00    +0.000 OA
ATOM     11  N   UNL     1       7.445   6.485  18.039  0.00  0.00    +0.000 N 
ATOM     12  H   UNL     1       7.002   6.545  17.131  0.00  0.00    +0.000 HD
BRANCH  11  13
ATOM     13  C   UNL     1       8.210   7.633  18.505  0.00  0.00    +0.000 C 
BRANCH  13  14
ATOM     14  C   UNL     1       7.982   8.887  17.650  0.00  0.00    +0.000 C 
BRANCH  14  15
ATOM     15  C   UNL     1       8.557  10.149  18.255  0.00  0.00    +0.000 A 
ATOM     16  C   UNL     1       9.324  10.097  19.424  0.00  0.00    +0.000 A 
ATOM     17  C   UNL     1       9.910  11.250  19.950  0.00  0.00    +0.000 A 
ATOM     18  C   UNL     1       9.741  12.474  19.304  0.00  0.00    +0.000 A 
ATOM     19  C   UNL     1       8.982  12.542  18.138  0.00  0.00    +0.000 A 
ATOM     20  C   UNL     1       8.391  11.388  17.614  0.00  0.00    +0.000 A 
ENDBRANCH  14  15
ENDBRANCH  13  14
ENDBRANCH  11  13
ENDBRANCH   1   9
BRANCH   1  21
ATOM     21  N   UNL     1       4.862   4.227  18.872  0.00  0.00    +0.000 N 
ATOM     22  C   UNL     1       4.244   2.975  19.068  0.00  0.00    +0.000 C 
ATOM     23  O   UNL     1       4.703   1.913  18.659  0.00  0.00    +0.000 OA
BRANCH  22  24
ATOM     24  C   UNL     1       2.954   2.948  19.783  0.00  0.00    +0.000 A 
ATOM     25  C   UNL     1       2.847   3.005  21.166  0.00  0.00    +0.000 A 
ATOM     26  S   UNL     1       1.184   2.934  21.570  0.00  0.00    +0.000 S 
ATOM     27  N   UNL     1       0.701   2.880  19.972  0.00  0.00    +0.000 NA
ATOM     28  N   UNL     1       1.718   2.909  19.128  0.00  0.00    +0.000 NA
ENDBRANCH  22  24
BRANCH  21  29
ATOM     29  C   UNL     1       4.084   5.451  18.993  0.00  0.00    +0.000 C 
ATOM     30  C   UNL     1       4.092   6.581  17.993  0.00  0.00    +0.000 C 
ATOM     31  C   UNL     1       2.910   5.669  18.061  0.00  0.00    +0.000 C 
ENDBRANCH  21  29
ENDBRANCH   1  21
TORSDOF 8
ENDMDL
MODEL 4
REMARK VINA RESULT:      -8.4      6.301      9.815
REMARK  Name = 
REMARK  9 active torsions:
REMARK  status: ('A' for Active; 'I' for Inactive)
REMARK    1  A    between atoms: C_1  and  C_2
REMARK    2  A    between atoms: C_5  and  C_6
REMARK    3  A    between atoms: C_6  and  C_7
REMARK    4  A    between atoms: C_6  and  N_18
REMARK    5  A    between atoms: N_9  and  C_10
REMARK    6  A    between atoms: C_10  and  C_11
REMARK    7  A    between atoms: C_11  and  C_12
REMARK    8  A    between atoms: N_18  and  C_26
REMARK    9  A    between atoms: C_19  and  C_21
REMARK                            x       y       z     vdW  Elec       q    Type
REMARK                         _______ _______ _______ _____ _____    ______ ____
ROOT
ATOM      1  C   UNL     1       0.362   9.953  19.410  0.00  0.00    +0.000 C 
ENDROOT
BRANCH   1   6
ATOM      2  C   UNL     1      -4.224  11.431  16.111  0.00  0.00    +0.000 C 
ATOM      3  C   UNL     1      -3.162  10.920  17.039  0.00  0.00    +0.000 A 
ATOM      4  C   UNL     1      -2.976  11.497  18.297  0.00  0.00    +0.000 A 
ATOM      5  C   UNL     1      -1.854  11.167  19.069  0.00  0.00    +0.000 A 
ATOM      6  C   UNL     1      -0.906  10.236  18.607  0.00  0.00    +0.000 A 
ATOM      7  C   UNL     1      -1.181   9.573  17.403  0.00  0.00    +0.000 A 
ATOM      8  C   UNL     1      -2.273   9.933  16.612  0.00  0.00    +0.000 A 
ENDBRANCH   1   6
BRANCH   1   9
ATOM      9  C   UNL     1       1.471   9.268  18.563  0.00  0.00    +0.000 C 
ATOM     10  O   UNL     1       1.914   9.725  17.511  0.00  0.00    +0.000 OA
ATOM     11  N   UNL     1       1.949   8.084  19.113  0.00  0.00    +0.000 N 
ATOM     12  H   UNL     1       1.472   7.683  19.910  0.00  0.00    +0.000 HD
BRANCH  11  13
ATOM     13  C   UNL     1       2.931   7.263  18.418  0.00  0.00    +0.000 C 
BRANCH  13  14
ATOM     14  C   UNL     1       2.339   5.951  17.885  0.00  0.00    +0.000 C 
BRANCH  14  15
ATOM     15  C   UNL     1       2.048   4.931  18.964  0.00  0.00    +0.000 A 
ATOM     16  C   UNL     1       2.508   5.123  20.273  0.00  0.00    +0.000 A 
ATOM     17  C   UNL     1       2.187   4.217  21.285  0.00  0.00    +0.000 A 
ATOM     18  C   UNL     1       1.392   3.107  21.003  0.00  0.00    +0.000 A 
ATOM     19  C   UNL     1       0.925   2.904  19.705  0.00  0.00    +0.000 A 
ATOM     20  C   UNL     1       1.250   3.808  18.690  0.00  0.00    +0.000 A 
ENDBRANCH  14  15
ENDBRANCH  13  14
ENDBRANCH  11  13
ENDBRANCH   1   9
BRANCH   1  21
ATOM     21  N   UNL     1       0.868  11.052  20.274  0.00  0.00    +0.000 N 
ATOM     22  C   UNL     1       1.482  12.205  19.744  0.00  0.00    +0.000 C 
ATOM     23  O   UNL     1       1.734  12.361  18.553  0.00  0.00    +0.000 OA
BRANCH  22  24
ATOM     24  C   UNL     1       1.872  13.272  20.685  0.00  0.00    +0.000 A 
ATOM     25  C   UNL     1       3.138  13.843  20.708  0.00  0.00    +0.000 A 
ATOM     26  S   UNL     1       3.162  15.021  21.952  0.00  0.00    +0.000 S 
ATOM     27  N   UNL     1       1.562  14.766  22.354  0.00  0.00    +0.000 NA
ATOM     28  N   UNL     1       0.987  13.837  21.609  0.00  0.00    +0.000 NA
ENDBRANCH  22  24
BRANCH  21  29
ATOM     29  C   UNL     1       0.988  10.749  21.692  0.00  0.00    +0.000 C 
ATOM     30  C   UNL     1      -0.073  10.067  22.523  0.00  0.00    +0.000 C 
ATOM     31  C   UNL     1       1.148   9.306  22.123  0.00  0.00    +0.000 C 
ENDBRANCH  21  29
ENDBRANCH   1  21
TORSDOF 8
ENDMDL
MODEL 5
REMARK VINA RESULT:      -8.3      6.503     10.025
REMARK  Name = 
REMARK  9 active torsions:
REMARK  status: ('A' for Active; 'I' for Inactive)
REMARK    1  A    between atoms: C_1  and  C_2
REMARK    2  A    between atoms: C_5  and  C_6
REMARK    3  A    between atoms: C_6  and  C_7
REMARK    4  A    between atoms: C_6  and  N_18
REMARK    5  A    between atoms: N_9  and  C_10
REMARK    6  A    between atoms: C_10  and  C_11
REMARK    7  A    between atoms: C_11  and  C_12
REMARK    8  A    between atoms: N_18  and  C_26
REMARK    9  A    between atoms: C_19  and  C_21
REMARK                            x       y       z     vdW  Elec       q    Type
REMARK                         _______ _______ _______ _____ _____    ______ ____
ROOT
ATOM      1  C   UNL     1       0.156  10.145  19.615  0.00  0.00    +0.000 C 
ENDROOT
BRANCH   1   6
ATOM      2  C   UNL     1      -4.408  10.971  16.068  0.00  0.00    +0.000 C 
ATOM      3  C   UNL     1      -3.141  10.884  16.866  0.00  0.00    +0.000 A 
ATOM      4  C   UNL     1      -2.177   9.917  16.571  0.00  0.00    +0.000 A 
ATOM      5  C   UNL     1      -1.104   9.697  17.444  0.00  0.00    +0.000 A 
ATOM      6  C   UNL     1      -0.961  10.454  18.621  0.00  0.00    +0.000 A 
ATOM      7  C   UNL     1      -1.865  11.504  18.830  0.00  0.00    +0.000 A 
ATOM      8  C   UNL     1      -2.960  11.696  17.986  0.00  0.00    +0.000 A 
ENDBRANCH   1   6
BRANCH   1   9
ATOM      9  C   UNL     1       1.298   9.295  18.993  0.00  0.00    +0.000 C 
ATOM     10  O   UNL     1       1.876   9.580  17.944  0.00  0.00    +0.000 OA
ATOM     11  N   UNL     1       1.640   8.175  19.743  0.00  0.00    +0.000 N 
ATOM     12  H   UNL     1       1.059   7.913  20.529  0.00  0.00    +0.000 HD
BRANCH  11  13
ATOM     13  C   UNL     1       2.631   7.217  19.275  0.00  0.00    +0.000 C 
BRANCH  13  14
ATOM     14  C   UNL     1       2.089   6.284  18.184  0.00  0.00    +0.000 C 
BRANCH  14  15
ATOM     15  C   UNL     1       1.915   4.852  18.639  0.00  0.00    +0.000 A 
ATOM     16  C   UNL     1       1.399   4.563  19.908  0.00  0.00    +0.000 A 
ATOM     17  C   UNL     1       1.176   3.243  20.308  0.00  0.00    +0.000 A 
ATOM     18  C   UNL     1       1.459   2.193  19.435  0.00  0.00    +0.000 A 
ATOM     19  C   UNL     1       1.971   2.466  18.168  0.00  0.00    +0.000 A 
ATOM     20  C   UNL     1       2.199   3.786  17.770  0.00  0.00    +0.000 A 
ENDBRANCH  14  15
ENDBRANCH  13  14
ENDBRANCH  11  13
ENDBRANCH   1   9
BRANCH   1  21
ATOM     21  N   UNL     1       0.643  11.277  20.449  0.00  0.00    +0.000 N 
ATOM     22  C   UNL     1       1.435  12.316  19.918  0.00  0.00    +0.000 C 
ATOM     23  O   UNL     1       1.862  12.333  18.768  0.00  0.00    +0.000 OA
BRANCH  22  24
ATOM     24  C   UNL     1       1.795  13.432  20.813  0.00  0.00    +0.000 A 
ATOM     25  C   UNL     1       0.947  14.500  21.079  0.00  0.00    +0.000 A 
ATOM     26  S   UNL     1       1.759  15.565  22.147  0.00  0.00    +0.000 S 
ATOM     27  N   UNL     1       3.112  14.591  22.240  0.00  0.00    +0.000 NA
ATOM     28  N   UNL     1       3.006  13.494  21.511  0.00  0.00    +0.000 NA
ENDBRANCH  22  24
BRANCH  21  29
ATOM     29  C   UNL     1       0.536  11.104  21.889  0.00  0.00    +0.000 C 
ATOM     30  C   UNL     1      -0.754  11.143  22.670  0.00  0.00    +0.000 C 
ATOM     31  C   UNL     1      -0.081   9.831  22.432  0.00  0.00    +0.000 C 
ENDBRANCH  21  29
ENDBRANCH   1  21
TORSDOF 8
ENDMDL
MODEL 6
REMARK VINA RESULT:      -8.1      6.957     10.402
REMARK  Name = 
REMARK  9 active torsions:
REMARK  status: ('A' for Active; 'I' for Inactive)
REMARK    1  A    between atoms: C_1  and  C_2
REMARK    2  A    between atoms: C_5  and  C_6
REMARK    3  A    between atoms: C_6  and  C_7
REMARK    4  A    between atoms: C_6  and  N_18
REMARK    5  A    between atoms: N_9  and  C_10
REMARK    6  A    between atoms: C_10  and  C_11
REMARK    7  A    between atoms: C_11  and  C_12
REMARK    8  A    between atoms: N_18  and  C_26
REMARK    9  A    between atoms: C_19  and  C_21
REMARK                            x       y       z     vdW  Elec       q    Type
REMARK                         _______ _______ _______ _____ _____    ______ ____
ROOT
ATOM      1  C   UNL     1      -0.425  10.382  20.003  0.00  0.00    +0.000 C 
ENDROOT
BRANCH   1   6
ATOM      2  C   UNL     1      -3.949  11.259  15.430  0.00  0.00    +0.000 C 
ATOM      3  C   UNL     1      -3.173  10.902  16.663  0.00  0.00    +0.000 A 
ATOM      4  C   UNL     1      -3.371  11.599  17.858  0.00  0.00    +0.000 A 
ATOM      5  C   UNL     1      -2.500  11.413  18.939  0.00  0.00    +0.000 A 
ATOM      6  C   UNL     1      -1.425  10.509  18.856  0.00  0.00    +0.000 A 
ATOM      7  C   UNL     1      -1.324   9.727  17.699  0.00  0.00    +0.000 A 
ATOM      8  C   UNL     1      -2.162   9.942  16.603  0.00  0.00    +0.000 A 
ENDBRANCH   1   6
BRANCH   1   9
ATOM      9  C   UNL     1       0.824   9.538  19.623  0.00  0.00    +0.000 C 
ATOM     10  O   UNL     1       1.597   9.827  18.710  0.00  0.00    +0.000 OA
ATOM     11  N   UNL     1       1.015   8.421  20.428  0.00  0.00    +0.000 N 
ATOM     12  H   UNL     1       0.291   8.155  21.082  0.00  0.00    +0.000 HD
BRANCH  11  13
ATOM     13  C   UNL     1       2.086   7.469  20.168  0.00  0.00    +0.000 C 
BRANCH  13  14
ATOM     14  C   UNL     1       1.870   6.123  20.873  0.00  0.00    +0.000 C 
BRANCH  14  15
ATOM     15  C   UNL     1       1.682   4.961  19.922  0.00  0.00    +0.000 A 
ATOM     16  C   UNL     1       2.111   5.048  18.592  0.00  0.00    +0.000 A 
ATOM     17  C   UNL     1       1.998   3.956  17.730  0.00  0.00    +0.000 A 
ATOM     18  C   UNL     1       1.461   2.755  18.191  0.00  0.00    +0.000 A 
ATOM     19  C   UNL     1       1.031   2.653  19.513  0.00  0.00    +0.000 A 
ATOM     20  C   UNL     1       1.140   3.747  20.376  0.00  0.00    +0.000 A 
ENDBRANCH  14  15
ENDBRANCH  13  14
ENDBRANCH  11  13
ENDBRANCH   1   9
BRANCH   1  21
ATOM     21  N   UNL     1      -0.097  11.627  20.748  0.00  0.00    +0.000 N 
ATOM     22  C   UNL     1       0.556  12.718  20.140  0.00  0.00    +0.000 C 
ATOM     23  O   UNL     1       0.987  12.705  18.991  0.00  0.00    +0.000 OA
BRANCH  22  24
ATOM     24  C   UNL     1       0.759  13.936  20.947  0.00  0.00    +0.000 A 
ATOM     25  C   UNL     1      -0.145  14.990  20.977  0.00  0.00    +0.000 A 
ATOM     26  S   UNL     1       0.482  16.194  22.022  0.00  0.00    +0.000 S 
ATOM     27  N   UNL     1       1.834  15.291  22.404  0.00  0.00    +0.000 NA
ATOM     28  N   UNL     1       1.859  14.120  21.792  0.00  0.00    +0.000 NA
ENDBRANCH  22  24
BRANCH  21  29
ATOM     29  C   UNL     1      -0.192  11.550  22.198  0.00  0.00    +0.000 C 
ATOM     30  C   UNL     1      -1.460  11.749  22.992  0.00  0.00    +0.000 C 
ATOM     31  C   UNL     1      -0.908  10.371  22.825  0.00  0.00    +0.000 C 
ENDBRANCH  21  29
ENDBRANCH   1  21
TORSDOF 8
ENDMDL
MODEL 7
REMARK VINA RESULT:      -7.9      6.421      9.193
REMARK  Name = 
REMARK  9 active torsions:
REMARK  status: ('A' for Active; 'I' for Inactive)
REMARK    1  A    between atoms: C_1  and  C_2
REMARK    2  A    between atoms: C_5  and  C_6
REMARK    3  A    between atoms: C_6  and  C_7
REMARK    4  A    between atoms: C_6  and  N_18
REMARK    5  A    between atoms: N_9  and  C_10
REMARK    6  A    between atoms: C_10  and  C_11
REMARK    7  A    between atoms: C_11  and  C_12
REMARK    8  A    between atoms: N_18  and  C_26
REMARK    9  A    between atoms: C_19  and  C_21
REMARK                            x       y       z     vdW  Elec       q    Type
REMARK                         _______ _______ _______ _____ _____    ______ ____
ROOT
ATOM      1  C   UNL     1       0.360  10.053  19.246  0.00  0.00    +0.000 C 
ENDROOT
BRANCH   1   6
ATOM      2  C   UNL     1      -4.379  11.335  16.085  0.00  0.00    +0.000 C 
ATOM      3  C   UNL     1      -3.271  10.871  16.982  0.00  0.00    +0.000 A 
ATOM      4  C   UNL     1      -3.066  11.464  18.231  0.00  0.00    +0.000 A 
ATOM      5  C   UNL     1      -1.909  11.182  18.968  0.00  0.00    +0.000 A 
ATOM      6  C   UNL     1      -0.942  10.283  18.482  0.00  0.00    +0.000 A 
ATOM      7  C   UNL     1      -1.229   9.602  17.292  0.00  0.00    +0.000 A 
ATOM      8  C   UNL     1      -2.359   9.914  16.534  0.00  0.00    +0.000 A 
ENDBRANCH   1   6
BRANCH   1   9
ATOM      9  C   UNL     1       1.501   9.507  18.342  0.00  0.00    +0.000 C 
ATOM     10  O   UNL     1       1.947  10.103  17.363  0.00  0.00    +0.000 OA
ATOM     11  N   UNL     1       2.004   8.277  18.750  0.00  0.00    +0.000 N 
ATOM     12  H   UNL     1       1.526   7.768  19.483  0.00  0.00    +0.000 HD
BRANCH  11  13
ATOM     13  C   UNL     1       3.018   7.574  17.978  0.00  0.00    +0.000 C 
BRANCH  13  14
ATOM     14  C   UNL     1       3.431   6.240  18.612  0.00  0.00    +0.000 C 
BRANCH  14  15
ATOM     15  C   UNL     1       4.681   5.639  18.008  0.00  0.00    +0.000 A 
ATOM     16  C   UNL     1       4.739   5.329  16.644  0.00  0.00    +0.000 A 
ATOM     17  C   UNL     1       5.912   4.835  16.070  0.00  0.00    +0.000 A 
ATOM     18  C   UNL     1       7.050   4.652  16.856  0.00  0.00    +0.000 A 
ATOM     19  C   UNL     1       7.008   4.957  18.215  0.00  0.00    +0.000 A 
ATOM     20  C   UNL     1       5.832   5.448  18.791  0.00  0.00    +0.000 A 
ENDBRANCH  14  15
ENDBRANCH  13  14
ENDBRANCH  11  13
ENDBRANCH   1   9
BRANCH   1  21
ATOM     21  N   UNL     1       0.798  11.136  20.167  0.00  0.00    +0.000 N 
ATOM     22  C   UNL     1       1.346  12.348  19.698  0.00  0.00    +0.000 C 
ATOM     23  O   UNL     1       1.592  12.576  18.518  0.00  0.00    +0.000 OA
BRANCH  22  24
ATOM     24  C   UNL     1       1.669  13.387  20.692  0.00  0.00    +0.000 A 
ATOM     25  C   UNL     1       0.761  14.351  21.111  0.00  0.00    +0.000 A 
ATOM     26  S   UNL     1       1.548  15.357  22.253  0.00  0.00    +0.000 S 
ATOM     27  N   UNL     1       2.971  14.488  22.178  0.00  0.00    +0.000 NA
ATOM     28  N   UNL     1       2.908  13.469  21.338  0.00  0.00    +0.000 NA
ENDBRANCH  22  24
BRANCH  21  29
ATOM     29  C   UNL     1       0.930  10.770  21.569  0.00  0.00    +0.000 C 
ATOM     30  C   UNL     1      -0.224  10.541  22.515  0.00  0.00    +0.000 C 
ATOM     31  C   UNL     1       0.548   9.370  22.002  0.00  0.00    +0.000 C 
ENDBRANCH  21  29
ENDBRANCH   1  21
TORSDOF 8
ENDMDL
MODEL 8
REMARK VINA RESULT:      -7.9      6.753      9.954
REMARK  Name = 
REMARK  9 active torsions:
REMARK  status: ('A' for Active; 'I' for Inactive)
REMARK    1  A    between atoms: C_1  and  C_2
REMARK    2  A    between atoms: C_5  and  C_6
REMARK    3  A    between atoms: C_6  and  C_7
REMARK    4  A    between atoms: C_6  and  N_18
REMARK    5  A    between atoms: N_9  and  C_10
REMARK    6  A    between atoms: C_10  and  C_11
REMARK    7  A    between atoms: C_11  and  C_12
REMARK    8  A    between atoms: N_18  and  C_26
REMARK    9  A    between atoms: C_19  and  C_21
REMARK                            x       y       z     vdW  Elec       q    Type
REMARK                         _______ _______ _______ _____ _____    ______ ____
ROOT
ATOM      1  C   UNL     1      -0.183  10.177  19.805  0.00  0.00    +0.000 C 
ENDROOT
BRANCH   1   6
ATOM      2  C   UNL     1      -3.986  11.190  15.490  0.00  0.00    +0.000 C 
ATOM      3  C   UNL     1      -3.133  10.794  16.659  0.00  0.00    +0.000 A 
ATOM      4  C   UNL     1      -3.265  11.441  17.890  0.00  0.00    +0.000 A 
ATOM      5  C   UNL     1      -2.329  11.224  18.909  0.00  0.00    +0.000 A 
ATOM      6  C   UNL     1      -1.252  10.338  18.726  0.00  0.00    +0.000 A 
ATOM      7  C   UNL     1      -1.213   9.603  17.534  0.00  0.00    +0.000 A 
ATOM      8  C   UNL     1      -2.118   9.850  16.500  0.00  0.00    +0.000 A 
ENDBRANCH   1   6
BRANCH   1   9
ATOM      9  C   UNL     1       1.108   9.493  19.277  0.00  0.00    +0.000 C 
ATOM     10  O   UNL     1       1.867   9.999  18.451  0.00  0.00    +0.000 OA
ATOM     11  N   UNL     1       1.356   8.247  19.841  0.00  0.00    +0.000 N 
ATOM     12  H   UNL     1       0.646   7.818  20.419  0.00  0.00    +0.000 HD
BRANCH  11  13
ATOM     13  C   UNL     1       2.476   7.423  19.407  0.00  0.00    +0.000 C 
BRANCH  13  14
ATOM     14  C   UNL     1       2.272   6.832  18.005  0.00  0.00    +0.000 C 
BRANCH  14  15
ATOM     15  C   UNL     1       2.639   5.368  17.902  0.00  0.00    +0.000 A 
ATOM     16  C   UNL     1       3.978   4.969  17.831  0.00  0.00    +0.000 A 
ATOM     17  C   UNL     1       4.324   3.617  17.801  0.00  0.00    +0.000 A 
ATOM     18  C   UNL     1       3.328   2.641  17.850  0.00  0.00    +0.000 A 
ATOM     19  C   UNL     1       1.990   3.023  17.922  0.00  0.00    +0.000 A 
ATOM     20  C   UNL     1       1.644   4.377  17.948  0.00  0.00    +0.000 A 
ENDBRANCH  14  15
ENDBRANCH  13  14
ENDBRANCH  11  13
ENDBRANCH   1   9
BRANCH   1  21
ATOM     21  N   UNL     1       0.081  11.360  20.667  0.00  0.00    +0.000 N 
ATOM     22  C   UNL     1       0.585  12.571  20.151  0.00  0.00    +0.000 C 
ATOM     23  O   UNL     1       0.932  12.727  18.984  0.00  0.00    +0.000 OA
BRANCH  22  24
ATOM     24  C   UNL     1       0.732  13.708  21.079  0.00  0.00    +0.000 A 
ATOM     25  C   UNL     1      -0.297  14.595  21.367  0.00  0.00    +0.000 A 
ATOM     26  S   UNL     1       0.303  15.758  22.472  0.00  0.00    +0.000 S 
ATOM     27  N   UNL     1       1.810  15.044  22.551  0.00  0.00    +0.000 NA
ATOM     28  N   UNL     1       1.909  13.968  21.790  0.00  0.00    +0.000 NA
ENDBRANCH  22  24
BRANCH  21  29
ATOM     29  C   UNL     1       0.097  11.116  22.102  0.00  0.00    +0.000 C 
ATOM     30  C   UNL     1      -1.115  11.165  23.000  0.00  0.00    +0.000 C 
ATOM     31  C   UNL     1      -0.524   9.842  22.636  0.00  0.00    +0.000 C 
ENDBRANCH  21  29
ENDBRANCH   1  21
TORSDOF 8
ENDMDL
MODEL 9
REMARK VINA RESULT:      -7.8      6.784     10.257
REMARK  Name = 
REMARK  9 active torsions:
REMARK  status: ('A' for Active; 'I' for Inactive)
REMARK    1  A    between atoms: C_1  and  C_2
REMARK    2  A    between atoms: C_5  and  C_6
REMARK    3  A    between atoms: C_6  and  C_7
REMARK    4  A    between atoms: C_6  and  N_18
REMARK    5  A    between atoms: N_9  and  C_10
REMARK    6  A    between atoms: C_10  and  C_11
REMARK    7  A    between atoms: C_11  and  C_12
REMARK    8  A    between atoms: N_18  and  C_26
REMARK    9  A    between atoms: C_19  and  C_21
REMARK                            x       y       z     vdW  Elec       q    Type
REMARK                         _______ _______ _______ _____ _____    ______ ____
ROOT
ATOM      1  C   UNL     1      -0.111  10.430  19.689  0.00  0.00    +0.000 C 
ENDROOT
BRANCH   1   6
ATOM      2  C   UNL     1      -4.079  11.182  15.472  0.00  0.00    +0.000 C 
ATOM      3  C   UNL     1      -3.184  10.861  16.631  0.00  0.00    +0.000 A 
ATOM      4  C   UNL     1      -3.252  11.603  17.813  0.00  0.00    +0.000 A 
ATOM      5  C   UNL     1      -2.276  11.446  18.806  0.00  0.00    +0.000 A 
ATOM      6  C   UNL     1      -1.223  10.528  18.647  0.00  0.00    +0.000 A 
ATOM      7  C   UNL     1      -1.247   9.703  17.515  0.00  0.00    +0.000 A 
ATOM      8  C   UNL     1      -2.192   9.888  16.504  0.00  0.00    +0.000 A 
ENDBRANCH   1   6
BRANCH   1   9
ATOM      9  C   UNL     1       0.998   9.416  19.295  0.00  0.00    +0.000 C 
ATOM     10  O   UNL     1       1.624   9.458  18.236  0.00  0.00    +0.000 OA
ATOM     11  N   UNL     1       1.249   8.451  20.263  0.00  0.00    +0.000 N 
ATOM     12  H   UNL     1       0.630   8.379  21.060  0.00  0.00    +0.000 HD
BRANCH  11  13
ATOM     13  C   UNL     1       2.197   7.369  20.033  0.00  0.00    +0.000 C 
BRANCH  13  14
ATOM     14  C   UNL     1       1.834   6.088  20.795  0.00  0.00    +0.000 C 
BRANCH  14  15
ATOM     15  C   UNL     1       1.757   4.858  19.918  0.00  0.00    +0.000 A 
ATOM     16  C   UNL     1       1.215   3.664  20.406  0.00  0.00    +0.000 A 
ATOM     17  C   UNL     1       1.083   2.545  19.580  0.00  0.00    +0.000 A 
ATOM     18  C   UNL     1       1.486   2.612  18.247  0.00  0.00    +0.000 A 
ATOM     19  C   UNL     1       2.026   3.794  17.746  0.00  0.00    +0.000 A 
ATOM     20  C   UNL     1       2.163   4.913  18.573  0.00  0.00    +0.000 A 
ENDBRANCH  14  15
ENDBRANCH  13  14
ENDBRANCH  11  13
ENDBRANCH   1   9
BRANCH   1  21
ATOM     21  N   UNL     1       0.419  11.712  20.226  0.00  0.00    +0.000 N 
ATOM     22  C   UNL     1       1.197  12.591  19.444  0.00  0.00    +0.000 C 
ATOM     23  O   UNL     1       1.577  12.340  18.304  0.00  0.00    +0.000 OA
BRANCH  22  24
ATOM     24  C   UNL     1       1.602  13.875  20.048  0.00  0.00    +0.000 A 
ATOM     25  C   UNL     1       2.859  14.098  20.593  0.00  0.00    +0.000 A 
ATOM     26  S   UNL     1       2.898  15.703  21.190  0.00  0.00    +0.000 S 
ATOM     27  N   UNL     1       1.340  16.029  20.684  0.00  0.00    +0.000 NA
ATOM     28  N   UNL     1       0.769  14.999  20.085  0.00  0.00    +0.000 NA
ENDBRANCH  22  24
BRANCH  21  29
ATOM     29  C   UNL     1       0.370  11.872  21.671  0.00  0.00    +0.000 C 
ATOM     30  C   UNL     1      -0.740  12.562  22.427  0.00  0.00    +0.000 C 
ATOM     31  C   UNL     1      -0.643  11.071  22.464  0.00  0.00    +0.000 C 
ENDBRANCH  21  29
ENDBRANCH   1  21
TORSDOF 8
ENDMDL
