MODEL 1
REMARK VINA RESULT:      -7.0      0.000      0.000
REMARK  Name = 
REMARK  2 active torsions:
REMARK  status: ('A' for Active; 'I' for Inactive)
REMARK    1  A    between atoms: C_1  and  C_2
REMARK    2  A    between atoms: N_18  and  C_19
REMARK                            x       y       z     vdW  Elec       q    Type
REMARK                         _______ _______ _______ _____ _____    ______ ____
ROOT
ATOM      1  C   UNL     1       2.459   9.035  17.645  0.00  0.00    +0.000 C 
ATOM      2  C   UNL     1       2.009   8.339  18.905  0.00  0.00    +0.000 A 
ATOM      3  C   UNL     1       1.174   8.997  19.872  0.00  0.00    +0.000 A 
ATOM      4  C   UNL     1       0.695  10.318  19.767  0.00  0.00    +0.000 A 
ATOM      5  N   UNL     1      -0.093  10.959  20.666  0.00  0.00    +0.000 NA
ATOM      6  C   UNL     1      -0.442  10.258  21.756  0.00  0.00    +0.000 A 
ATOM      7  C   UNL     1      -0.040   8.955  21.982  0.00  0.00    +0.000 A 
ATOM      8  C   UNL     1       0.774   8.314  21.039  0.00  0.00    +0.000 A 
ATOM      9  C   UNL     1       1.181   6.994  21.268  0.00  0.00    +0.000 A 
ATOM     10  C   UNL     1       1.995   6.357  20.320  0.00  0.00    +0.000 A 
ATOM     11  C   UNL     1       2.416   6.991  19.154  0.00  0.00    +0.000 A 
ATOM     12  C   UNL     1       3.228   6.041  18.433  0.00  0.00    +0.000 A 
ATOM     13  C   UNL     1       3.931   6.078  17.207  0.00  0.00    +0.000 A 
ATOM     14  C   UNL     1       4.645   4.961  16.765  0.00  0.00    +0.000 A 
ATOM     15  C   UNL     1       4.674   3.801  17.528  0.00  0.00    +0.000 A 
ATOM     16  C   UNL     1       3.992   3.730  18.745  0.00  0.00    +0.000 A 
ATOM     17  C   UNL     1       3.274   4.859  19.181  0.00  0.00    +0.000 A 
ATOM     18  N   UNL     1       2.523   5.078  20.315  0.00  0.00    +0.000 N 
ATOM     19  C   UNL     1       2.299   4.115  21.373  0.00  0.00    +0.000 C 
ENDROOT
TORSDOF 0
ENDMDL
MODEL 2
REMARK VINA RESULT:      -7.0      1.340      6.270
REMARK  Name = 
REMARK  2 active torsions:
REMARK  status: ('A' for Active; 'I' for Inactive)
REMARK    1  A    between atoms: C_1  and  C_2
REMARK    2  A    between atoms: N_18  and  C_19
REMARK                            x       y       z     vdW  Elec       q    Type
REMARK                         _______ _______ _______ _____ _____    ______ ____
ROOT
ATOM      1  C   UNL     1       1.983   5.203  20.969  0.00  0.00    +0.000 C 
ATOM      2  C   UNL     1       2.426   6.066  19.814  0.00  0.00    +0.000 A 
ATOM      3  C   UNL     1       3.301   5.562  18.791  0.00  0.00    +0.000 A 
ATOM      4  C   UNL     1       3.832   4.257  18.744  0.00  0.00    +0.000 A 
ATOM      5  N   UNL     1       4.659   3.761  17.790  0.00  0.00    +0.000 NA
ATOM      6  C   UNL     1       4.997   4.603  16.801  0.00  0.00    +0.000 A 
ATOM      7  C   UNL     1       4.547   5.909  16.727  0.00  0.00    +0.000 A 
ATOM      8  C   UNL     1       3.694   6.398  17.725  0.00  0.00    +0.000 A 
ATOM      9  C   UNL     1       3.238   7.720  17.650  0.00  0.00    +0.000 A 
ATOM     10  C   UNL     1       2.384   8.205  18.651  0.00  0.00    +0.000 A 
ATOM     11  C   UNL     1       1.970   7.417  19.722  0.00  0.00    +0.000 A 
ATOM     12  C   UNL     1       1.111   8.242  20.537  0.00  0.00    +0.000 A 
ATOM     13  C   UNL     1       0.393   8.029  21.737  0.00  0.00    +0.000 A 
ATOM     14  C   UNL     1      -0.373   9.056  22.295  0.00  0.00    +0.000 A 
ATOM     15  C   UNL     1      -0.438  10.297  21.678  0.00  0.00    +0.000 A 
ATOM     16  C   UNL     1       0.259  10.542  20.493  0.00  0.00    +0.000 A 
ATOM     17  C   UNL     1       1.028   9.502  19.937  0.00  0.00    +0.000 A 
ATOM     18  N   UNL     1       1.806   9.453  18.801  0.00  0.00    +0.000 N 
ATOM     19  C   UNL     1       2.007  10.545  17.872  0.00  0.00    +0.000 C 
ENDROOT
TORSDOF 0
ENDMDL
MODEL 3
REMARK VINA RESULT:      -6.7      1.180      3.183
REMARK  Name = 
REMARK  2 active torsions:
REMARK  status: ('A' for Active; 'I' for Inactive)
REMARK    1  A    between atoms: C_1  and  C_2
REMARK    2  A    between atoms: N_18  and  C_19
REMARK                            x       y       z     vdW  Elec       q    Type
REMARK                         _______ _______ _______ _____ _____    ______ ____
ROOT
ATOM      1  C   UNL     1       0.755   7.464  21.654  0.00  0.00    +0.000 C 
ATOM      2  C   UNL     1       1.478   7.697  20.351  0.00  0.00    +0.000 A 
ATOM      3  C   UNL     1       1.440   8.972  19.688  0.00  0.00    +0.000 A 
ATOM      4  C   UNL     1       0.753  10.111  20.153  0.00  0.00    +0.000 A 
ATOM      5  N   UNL     1       0.703  11.322  19.544  0.00  0.00    +0.000 NA
ATOM      6  C   UNL     1       1.378  11.435  18.390  0.00  0.00    +0.000 A 
ATOM      7  C   UNL     1       2.093  10.396  17.823  0.00  0.00    +0.000 A 
ATOM      8  C   UNL     1       2.129   9.153  18.471  0.00  0.00    +0.000 A 
ATOM      9  C   UNL     1       2.854   8.102  17.897  0.00  0.00    +0.000 A 
ATOM     10  C   UNL     1       2.886   6.860  18.549  0.00  0.00    +0.000 A 
ATOM     11  C   UNL     1       2.222   6.634  19.752  0.00  0.00    +0.000 A 
ATOM     12  C   UNL     1       2.477   5.262  20.117  0.00  0.00    +0.000 A 
ATOM     13  C   UNL     1       2.090   4.444  21.204  0.00  0.00    +0.000 A 
ATOM     14  C   UNL     1       2.514   3.114  21.276  0.00  0.00    +0.000 A 
ATOM     15  C   UNL     1       3.318   2.580  20.279  0.00  0.00    +0.000 A 
ATOM     16  C   UNL     1       3.719   3.359  19.191  0.00  0.00    +0.000 A 
ATOM     17  C   UNL     1       3.289   4.697  19.127  0.00  0.00    +0.000 A 
ATOM     18  N   UNL     1       3.520   5.683  18.193  0.00  0.00    +0.000 N 
ATOM     19  C   UNL     1       4.315   5.534  16.992  0.00  0.00    +0.000 C 
ENDROOT
TORSDOF 0
ENDMDL
MODEL 4
REMARK VINA RESULT:      -6.5      4.154      5.292
REMARK  Name = 
REMARK  2 active torsions:
REMARK  status: ('A' for Active; 'I' for Inactive)
REMARK    1  A    between atoms: C_1  and  C_2
REMARK    2  A    between atoms: N_18  and  C_19
REMARK                            x       y       z     vdW  Elec       q    Type
REMARK                         _______ _______ _______ _____ _____    ______ ____
ROOT
ATOM      1  C   UNL     1       2.485   2.703  16.414  0.00  0.00    +0.000 C 
ATOM      2  C   UNL     1       3.188   3.422  17.538  0.00  0.00    +0.000 A 
ATOM      3  C   UNL     1       2.633   3.474  18.862  0.00  0.00    +0.000 A 
ATOM      4  C   UNL     1       1.414   2.886  19.256  0.00  0.00    +0.000 A 
ATOM      5  N   UNL     1       0.871   2.923  20.499  0.00  0.00    +0.000 NA
ATOM      6  C   UNL     1       1.570   3.585  21.434  0.00  0.00    +0.000 A 
ATOM      7  C   UNL     1       2.779   4.207  21.180  0.00  0.00    +0.000 A 
ATOM      8  C   UNL     1       3.319   4.156  19.888  0.00  0.00    +0.000 A 
ATOM      9  C   UNL     1       4.544   4.785  19.631  0.00  0.00    +0.000 A 
ATOM     10  C   UNL     1       5.081   4.730  18.337  0.00  0.00    +0.000 A 
ATOM     11  C   UNL     1       4.438   4.070  17.292  0.00  0.00    +0.000 A 
ATOM     12  C   UNL     1       5.275   4.224  16.127  0.00  0.00    +0.000 A 
ATOM     13  C   UNL     1       5.178   3.794  14.782  0.00  0.00    +0.000 A 
ATOM     14  C   UNL     1       6.181   4.112  13.863  0.00  0.00    +0.000 A 
ATOM     15  C   UNL     1       7.285   4.854  14.259  0.00  0.00    +0.000 A 
ATOM     16  C   UNL     1       7.413   5.295  15.578  0.00  0.00    +0.000 A 
ATOM     17  C   UNL     1       6.398   4.970  16.497  0.00  0.00    +0.000 A 
ATOM     18  N   UNL     1       6.255   5.263  17.836  0.00  0.00    +0.000 N 
ATOM     19  C   UNL     1       7.193   6.024  18.635  0.00  0.00    +0.000 C 
ENDROOT
TORSDOF 0
ENDMDL
MODEL 5
REMARK VINA RESULT:      -6.5      1.308      5.414
REMARK  Name = 
REMARK  2 active torsions:
REMARK  status: ('A' for Active; 'I' for Inactive)
REMARK    1  A    between atoms: C_1  and  C_2
REMARK    2  A    between atoms: N_18  and  C_19
REMARK                            x       y       z     vdW  Elec       q    Type
REMARK                         _______ _______ _______ _____ _____    ______ ____
ROOT
ATOM      1  C   UNL     1       3.829   6.740  17.538  0.00  0.00    +0.000 C 
ATOM      2  C   UNL     1       3.010   6.447  18.771  0.00  0.00    +0.000 A 
ATOM      3  C   UNL     1       3.036   5.155  19.401  0.00  0.00    +0.000 A 
ATOM      4  C   UNL     1       3.796   4.052  18.964  0.00  0.00    +0.000 A 
ATOM      5  N   UNL     1       3.836   2.825  19.543  0.00  0.00    +0.000 NA
ATOM      6  C   UNL     1       3.074   2.659  20.635  0.00  0.00    +0.000 A 
ATOM      7  C   UNL     1       2.282   3.659  21.168  0.00  0.00    +0.000 A 
ATOM      8  C   UNL     1       2.257   4.918  20.552  0.00  0.00    +0.000 A 
ATOM      9  C   UNL     1       1.455   5.930  21.093  0.00  0.00    +0.000 A 
ATOM     10  C   UNL     1       1.434   7.188  20.473  0.00  0.00    +0.000 A 
ATOM     11  C   UNL     1       2.185   7.469  19.335  0.00  0.00    +0.000 A 
ATOM     12  C   UNL     1       1.914   8.842  18.985  0.00  0.00    +0.000 A 
ATOM     13  C   UNL     1       2.357   9.701  17.953  0.00  0.00    +0.000 A 
ATOM     14  C   UNL     1       1.899  11.019  17.882  0.00  0.00    +0.000 A 
ATOM     15  C   UNL     1       1.000  11.500  18.824  0.00  0.00    +0.000 A 
ATOM     16  C   UNL     1       0.540  10.679  19.857  0.00  0.00    +0.000 A 
ATOM     17  C   UNL     1       1.008   9.353  19.921  0.00  0.00    +0.000 A 
ATOM     18  N   UNL     1       0.735   8.334  20.807  0.00  0.00    +0.000 N 
ATOM     19  C   UNL     1      -0.159   8.424  21.942  0.00  0.00    +0.000 C 
ENDROOT
TORSDOF 0
ENDMDL
MODEL 6
REMARK VINA RESULT:      -6.4      3.456      6.362
REMARK  Name = 
REMARK  2 active torsions:
REMARK  status: ('A' for Active; 'I' for Inactive)
REMARK    1  A    between atoms: C_1  and  C_2
REMARK    2  A    between atoms: N_18  and  C_19
REMARK                            x       y       z     vdW  Elec       q    Type
REMARK                         _______ _______ _______ _____ _____    ______ ____
ROOT
ATOM      1  C   UNL     1       3.931   7.083  17.456  0.00  0.00    +0.000 C 
ATOM      2  C   UNL     1       4.319   5.659  17.144  0.00  0.00    +0.000 A 
ATOM      3  C   UNL     1       5.213   5.342  16.063  0.00  0.00    +0.000 A 
ATOM      4  C   UNL     1       5.810   6.283  15.199  0.00  0.00    +0.000 A 
ATOM      5  N   UNL     1       6.654   6.006  14.174  0.00  0.00    +0.000 NA
ATOM      6  C   UNL     1       6.942   4.711  13.974  0.00  0.00    +0.000 A 
ATOM      7  C   UNL     1       6.424   3.689  14.748  0.00  0.00    +0.000 A 
ATOM      8  C   UNL     1       5.553   3.999  15.801  0.00  0.00    +0.000 A 
ATOM      9  C   UNL     1       5.030   2.964  16.586  0.00  0.00    +0.000 A 
ATOM     10  C   UNL     1       4.159   3.280  17.639  0.00  0.00    +0.000 A 
ATOM     11  C   UNL     1       3.794   4.591  17.934  0.00  0.00    +0.000 A 
ATOM     12  C   UNL     1       2.898   4.528  19.064  0.00  0.00    +0.000 A 
ATOM     13  C   UNL     1       2.197   5.498  19.819  0.00  0.00    +0.000 A 
ATOM     14  C   UNL     1       1.384   5.111  20.888  0.00  0.00    +0.000 A 
ATOM     15  C   UNL     1       1.253   3.770  21.219  0.00  0.00    +0.000 A 
ATOM     16  C   UNL     1       1.929   2.786  20.494  0.00  0.00    +0.000 A 
ATOM     17  C   UNL     1       2.747   3.184  19.420  0.00  0.00    +0.000 A 
ATOM     18  N   UNL     1       3.518   2.453  18.544  0.00  0.00    +0.000 N 
ATOM     19  C   UNL     1       3.658   1.012  18.548  0.00  0.00    +0.000 C 
ENDROOT
TORSDOF 0
ENDMDL
MODEL 7
REMARK VINA RESULT:      -6.3      2.173      7.510
REMARK  Name = 
REMARK  2 active torsions:
REMARK  status: ('A' for Active; 'I' for Inactive)
REMARK    1  A    between atoms: C_1  and  C_2
REMARK    2  A    between atoms: N_18  and  C_19
REMARK                            x       y       z     vdW  Elec       q    Type
REMARK                         _______ _______ _______ _____ _____    ______ ____
ROOT
ATOM      1  C   UNL     1       0.229   8.858  22.486  0.00  0.00    +0.000 C 
ATOM      2  C   UNL     1       0.446   9.434  21.109  0.00  0.00    +0.000 A 
ATOM      3  C   UNL     1       1.227   8.742  20.119  0.00  0.00    +0.000 A 
ATOM      4  C   UNL     1       1.859   7.497  20.306  0.00  0.00    +0.000 A 
ATOM      5  N   UNL     1       2.600   6.828  19.388  0.00  0.00    +0.000 NA
ATOM      6  C   UNL     1       2.737   7.418  18.191  0.00  0.00    +0.000 A 
ATOM      7  C   UNL     1       2.169   8.639  17.876  0.00  0.00    +0.000 A 
ATOM      8  C   UNL     1       1.408   9.312  18.842  0.00  0.00    +0.000 A 
ATOM      9  C   UNL     1       0.833  10.548  18.523  0.00  0.00    +0.000 A 
ATOM     10  C   UNL     1       0.072  11.217  19.492  0.00  0.00    +0.000 A 
ATOM     11  C   UNL     1      -0.133  10.695  20.767  0.00  0.00    +0.000 A 
ATOM     12  C   UNL     1      -0.952  11.646  21.479  0.00  0.00    +0.000 A 
ATOM     13  C   UNL     1      -1.492  11.696  22.785  0.00  0.00    +0.000 A 
ATOM     14  C   UNL     1      -2.269  12.785  23.189  0.00  0.00    +0.000 A 
ATOM     15  C   UNL     1      -2.518  13.832  22.313  0.00  0.00    +0.000 A 
ATOM     16  C   UNL     1      -1.999  13.816  21.016  0.00  0.00    +0.000 A 
ATOM     17  C   UNL     1      -1.219  12.715  20.617  0.00  0.00    +0.000 A 
ATOM     18  N   UNL     1      -0.589  12.430  19.425  0.00  0.00    +0.000 N 
ATOM     19  C   UNL     1      -0.601  13.270  18.246  0.00  0.00    +0.000 C 
ENDROOT
TORSDOF 0
ENDMDL
MODEL 8
REMARK VINA RESULT:      -6.2      9.333     10.076
REMARK  Name = 
REMARK  2 active torsions:
REMARK  status: ('A' for Active; 'I' for Inactive)
REMARK    1  A    between atoms: C_1  and  C_2
REMARK    2  A    between atoms: N_18  and  C_19
REMARK                            x       y       z     vdW  Elec       q    Type
REMARK                         _______ _______ _______ _____ _____    ______ ____
ROOT
ATOM      1  C   UNL     1      10.286  15.521  22.010  0.00  0.00    +0.000 C 
ATOM      2  C   UNL     1       9.695  14.134  21.988  0.00  0.00    +0.000 A 
ATOM      3  C   UNL     1       8.940  13.620  23.098  0.00  0.00    +0.000 A 
ATOM      4  C   UNL     1       8.671  14.319  24.292  0.00  0.00    +0.000 A 
ATOM      5  N   UNL     1       7.962  13.854  25.351  0.00  0.00    +0.000 NA
ATOM      6  C   UNL     1       7.474  12.609  25.239  0.00  0.00    +0.000 A 
ATOM      7  C   UNL     1       7.665  11.815  24.122  0.00  0.00    +0.000 A 
ATOM      8  C   UNL     1       8.402  12.317  23.041  0.00  0.00    +0.000 A 
ATOM      9  C   UNL     1       8.595  11.514  21.910  0.00  0.00    +0.000 A 
ATOM     10  C   UNL     1       9.333  12.021  20.831  0.00  0.00    +0.000 A 
ATOM     11  C   UNL     1       9.883  13.301  20.842  0.00  0.00    +0.000 A 
ATOM     12  C   UNL     1      10.563  13.472  19.581  0.00  0.00    +0.000 A 
ATOM     13  C   UNL     1      11.304  14.526  18.997  0.00  0.00    +0.000 A 
ATOM     14  C   UNL     1      11.853  14.383  17.720  0.00  0.00    +0.000 A 
ATOM     15  C   UNL     1      11.680  13.203  17.010  0.00  0.00    +0.000 A 
ATOM     16  C   UNL     1      10.955  12.142  17.557  0.00  0.00    +0.000 A 
ATOM     17  C   UNL     1      10.405  12.294  18.843  0.00  0.00    +0.000 A 
ATOM     18  N   UNL     1       9.659  11.436  19.621  0.00  0.00    +0.000 N 
ATOM     19  C   UNL     1       9.256  10.096  19.246  0.00  0.00    +0.000 C 
ENDROOT
TORSDOF 0
ENDMDL
MODEL 9
REMARK VINA RESULT:      -6.2      2.938      6.470
REMARK  Name = 
REMARK  2 active torsions:
REMARK  status: ('A' for Active; 'I' for Inactive)
REMARK    1  A    between atoms: C_1  and  C_2
REMARK    2  A    between atoms: N_18  and  C_19
REMARK                            x       y       z     vdW  Elec       q    Type
REMARK                         _______ _______ _______ _____ _____    ______ ____
ROOT
ATOM      1  C   UNL     1       5.103   7.428  17.404  0.00  0.00    +0.000 C 
ATOM      2  C   UNL     1       4.883   5.993  16.994  0.00  0.00    +0.000 A 
ATOM      3  C   UNL     1       5.629   5.393  15.922  0.00  0.00    +0.000 A 
ATOM      4  C   UNL     1       6.615   6.044  15.154  0.00  0.00    +0.000 A 
ATOM      5  N   UNL     1       7.330   5.498  14.138  0.00  0.00    +0.000 NA
ATOM      6  C   UNL     1       7.065   4.216  13.847  0.00  0.00    +0.000 A 
ATOM      7  C   UNL     1       6.122   3.462  14.522  0.00  0.00    +0.000 A 
ATOM      8  C   UNL     1       5.395   4.048  15.567  0.00  0.00    +0.000 A 
ATOM      9  C   UNL     1       4.442   3.285  16.252  0.00  0.00    +0.000 A 
ATOM     10  C   UNL     1       3.717   3.876  17.297  0.00  0.00    +0.000 A 
ATOM     11  C   UNL     1       3.913   5.200  17.682  0.00  0.00    +0.000 A 
ATOM     12  C   UNL     1       3.004   5.454  18.773  0.00  0.00    +0.000 A 
ATOM     13  C   UNL     1       2.724   6.583  19.579  0.00  0.00    +0.000 A 
ATOM     14  C   UNL     1       1.759   6.512  20.587  0.00  0.00    +0.000 A 
ATOM     15  C   UNL     1       1.062   5.333  20.808  0.00  0.00    +0.000 A 
ATOM     16  C   UNL     1       1.312   4.200  20.031  0.00  0.00    +0.000 A 
ATOM     17  C   UNL     1       2.286   4.279  19.019  0.00  0.00    +0.000 A 
ATOM     18  N   UNL     1       2.736   3.343  18.114  0.00  0.00    +0.000 N 
ATOM     19  C   UNL     1       2.263   1.979  18.010  0.00  0.00    +0.000 C 
ENDROOT
TORSDOF 0
ENDMDL
