MODEL 1
REMARK VINA RESULT:      -7.7      0.000      0.000
REMARK  Name = 
REMARK  6 active torsions:
REMARK  status: ('A' for Active; 'I' for Inactive)
REMARK    1  A    between atoms: C_1  and  O_2
REMARK    2  A    between atoms: O_2  and  C_3
REMARK    3  A    between atoms: C_3  and  C_5
REMARK    4  A    between atoms: C_6  and  C_7
REMARK    5  A    between atoms: C_10  and  C_11
REMARK    6  A    between atoms: N_21  and  C_22
REMARK                            x       y       z     vdW  Elec       q    Type
REMARK                         _______ _______ _______ _____ _____    ______ ____
ROOT
ATOM      1  C   UNL     1       2.020   5.414  19.454  0.00  0.00    +0.000 C 
ATOM      2  C   UNL     1       2.040   4.729  18.077  0.00  0.00    +0.000 C 
ATOM      3  C   UNL     1       1.382   3.326  18.333  0.00  0.00    +0.000 C 
ATOM      4  C   UNL     1       2.096   2.494  19.418  0.00  0.00    +0.000 C 
ATOM      5  C   UNL     1       1.539   2.446  20.844  0.00  0.00    +0.000 C 
ATOM      6  C   UNL     1       1.849   3.821  21.438  0.00  0.00    +0.000 C 
ATOM      7  C   UNL     1       2.857   4.455  20.446  0.00  0.00    +0.000 C 
ATOM      8  N   UNL     1       3.325   3.231  19.686  0.00  0.00    +0.000 NA
ATOM      9  C   UNL     1       4.380   2.345  20.148  0.00  0.00    +0.000 C 
ENDROOT
BRANCH   2  10
ATOM     10  C   UNL     1       3.433   4.822  17.392  0.00  0.00    +0.000 A 
ATOM     11  C   UNL     1       4.237   5.992  17.378  0.00  0.00    +0.000 A 
ATOM     12  C   UNL     1       5.419   6.096  16.649  0.00  0.00    +0.000 A 
ATOM     13  C   UNL     1       5.863   5.022  15.864  0.00  0.00    +0.000 A 
ATOM     14  C   UNL     1       5.099   3.843  15.902  0.00  0.00    +0.000 A 
ATOM     15  C   UNL     1       3.934   3.732  16.688  0.00  0.00    +0.000 A 
BRANCH  13  16
ATOM     16  C   UNL     1       7.020   5.076  14.956  0.00  0.00    +0.000 C 
ATOM     17  C   UNL     1       7.209   4.573  13.730  0.00  0.00    +0.000 C 
ATOM     18 BR   UNL     1       6.066   3.591  12.660  0.00  0.00    +0.000 Br
ENDBRANCH  13  16
ENDBRANCH   2  10
BRANCH   1  19
ATOM     19  C   UNL     1       2.145   6.934  19.159  0.00  0.00    +0.000 C 
ATOM     20  O   UNL     1       2.656   7.690  19.975  0.00  0.00    +0.000 OA
BRANCH  19  22
ATOM     21  C   UNL     1       1.852   8.789  17.813  0.00  0.00    +0.000 C 
ATOM     22  O   UNL     1       1.760   7.348  17.925  0.00  0.00    +0.000 OA
ENDBRANCH  19  22
ENDBRANCH   1  19
TORSDOF 4
ENDMDL
MODEL 2
REMARK VINA RESULT:      -7.6      2.227      3.295
REMARK  Name = 
REMARK  6 active torsions:
REMARK  status: ('A' for Active; 'I' for Inactive)
REMARK    1  A    between atoms: C_1  and  O_2
REMARK    2  A    between atoms: O_2  and  C_3
REMARK    3  A    between atoms: C_3  and  C_5
REMARK    4  A    between atoms: C_6  and  C_7
REMARK    5  A    between atoms: C_10  and  C_11
REMARK    6  A    between atoms: N_21  and  C_22
REMARK                            x       y       z     vdW  Elec       q    Type
REMARK                         _______ _______ _______ _____ _____    ______ ____
ROOT
ATOM      1  C   UNL     1       4.987   5.487  19.198  0.00  0.00    +0.000 C 
ATOM      2  C   UNL     1       4.530   6.219  17.925  0.00  0.00    +0.000 C 
ATOM      3  C   UNL     1       3.020   6.559  18.193  0.00  0.00    +0.000 C 
ATOM      4  C   UNL     1       2.153   5.324  18.510  0.00  0.00    +0.000 C 
ATOM      5  C   UNL     1       1.804   4.976  19.959  0.00  0.00    +0.000 C 
ATOM      6  C   UNL     1       3.104   4.443  20.564  0.00  0.00    +0.000 C 
ATOM      7  C   UNL     1       4.028   4.198  19.344  0.00  0.00    +0.000 C 
ATOM      8  N   UNL     1       3.020   4.190  18.214  0.00  0.00    +0.000 NA
ATOM      9  C   UNL     1       2.246   3.022  17.826  0.00  0.00    +0.000 C 
ENDROOT
BRANCH   2  10
ATOM     10  C   UNL     1       4.938   5.460  16.630  0.00  0.00    +0.000 A 
ATOM     11  C   UNL     1       5.298   4.087  16.591  0.00  0.00    +0.000 A 
ATOM     12  C   UNL     1       5.787   3.459  15.448  0.00  0.00    +0.000 A 
ATOM     13  C   UNL     1       5.963   4.186  14.262  0.00  0.00    +0.000 A 
ATOM     14  C   UNL     1       5.572   5.536  14.275  0.00  0.00    +0.000 A 
ATOM     15  C   UNL     1       5.027   6.146  15.422  0.00  0.00    +0.000 A 
BRANCH  13  16
ATOM     16  C   UNL     1       6.596   3.653  13.045  0.00  0.00    +0.000 C 
ATOM     17  C   UNL     1       6.076   3.232  11.886  0.00  0.00    +0.000 C 
ATOM     18 BR   UNL     1       4.314   3.154  11.335  0.00  0.00    +0.000 Br
ENDBRANCH  13  16
ENDBRANCH   2  10
BRANCH   1  19
ATOM     19  C   UNL     1       6.535   5.614  19.212  0.00  0.00    +0.000 C 
ATOM     20  O   UNL     1       7.199   5.075  20.088  0.00  0.00    +0.000 OA
BRANCH  19  22
ATOM     21  C   UNL     1       8.142   7.159  18.603  0.00  0.00    +0.000 C 
ATOM     22  O   UNL     1       7.103   6.253  18.158  0.00  0.00    +0.000 OA
ENDBRANCH  19  22
ENDBRANCH   1  19
TORSDOF 4
ENDMDL
MODEL 3
REMARK VINA RESULT:      -7.3      3.236      5.596
REMARK  Name = 
REMARK  6 active torsions:
REMARK  status: ('A' for Active; 'I' for Inactive)
REMARK    1  A    between atoms: C_1  and  O_2
REMARK    2  A    between atoms: O_2  and  C_3
REMARK    3  A    between atoms: C_3  and  C_5
REMARK    4  A    between atoms: C_6  and  C_7
REMARK    5  A    between atoms: C_10  and  C_11
REMARK    6  A    between atoms: N_21  and  C_22
REMARK                            x       y       z     vdW  Elec       q    Type
REMARK                         _______ _______ _______ _____ _____    ______ ____
ROOT
ATOM      1  C   UNL     1       4.735   5.364  17.472  0.00  0.00    +0.000 C 
ATOM      2  C   UNL     1       4.380   5.938  18.854  0.00  0.00    +0.000 C 
ATOM      3  C   UNL     1       4.244   4.673  19.776  0.00  0.00    +0.000 C 
ATOM      4  C   UNL     1       3.204   3.650  19.275  0.00  0.00    +0.000 C 
ATOM      5  C   UNL     1       3.654   2.407  18.501  0.00  0.00    +0.000 C 
ATOM      6  C   UNL     1       4.073   2.926  17.125  0.00  0.00    +0.000 C 
ATOM      7  C   UNL     1       3.525   4.375  17.072  0.00  0.00    +0.000 C 
ATOM      8  N   UNL     1       2.510   4.342  18.195  0.00  0.00    +0.000 NA
ATOM      9  C   UNL     1       1.150   3.851  18.045  0.00  0.00    +0.000 C 
ENDROOT
BRANCH   2  10
ATOM     10  C   UNL     1       3.225   6.977  18.784  0.00  0.00    +0.000 A 
ATOM     11  C   UNL     1       2.965   7.803  17.658  0.00  0.00    +0.000 A 
ATOM     12  C   UNL     1       2.011   8.818  17.662  0.00  0.00    +0.000 A 
ATOM     13  C   UNL     1       1.262   9.081  18.818  0.00  0.00    +0.000 A 
ATOM     14  C   UNL     1       1.481   8.243  19.926  0.00  0.00    +0.000 A 
ATOM     15  C   UNL     1       2.410   7.184  19.892  0.00  0.00    +0.000 A 
BRANCH  13  16
ATOM     16  C   UNL     1       0.332  10.211  18.969  0.00  0.00    +0.000 C 
ATOM     17  C   UNL     1       0.523  11.533  18.893  0.00  0.00    +0.000 C 
ATOM     18 BR   UNL     1       2.067  12.492  18.557  0.00  0.00    +0.000 Br
ENDBRANCH  13  16
ENDBRANCH   2  10
BRANCH   1  19
ATOM     19  C   UNL     1       5.391   6.539  16.696  0.00  0.00    +0.000 C 
ATOM     20  O   UNL     1       5.097   6.759  15.528  0.00  0.00    +0.000 OA
BRANCH  19  22
ATOM     21  C   UNL     1       7.536   6.783  17.519  0.00  0.00    +0.000 C 
ATOM     22  O   UNL     1       6.210   7.355  17.405  0.00  0.00    +0.000 OA
ENDBRANCH  19  22
ENDBRANCH   1  19
TORSDOF 4
ENDMDL
MODEL 4
REMARK VINA RESULT:      -7.3      3.203      5.320
REMARK  Name = 
REMARK  6 active torsions:
REMARK  status: ('A' for Active; 'I' for Inactive)
REMARK    1  A    between atoms: C_1  and  O_2
REMARK    2  A    between atoms: O_2  and  C_3
REMARK    3  A    between atoms: C_3  and  C_5
REMARK    4  A    between atoms: C_6  and  C_7
REMARK    5  A    between atoms: C_10  and  C_11
REMARK    6  A    between atoms: N_21  and  C_22
REMARK                            x       y       z     vdW  Elec       q    Type
REMARK                         _______ _______ _______ _____ _____    ______ ____
ROOT
ATOM      1  C   UNL     1       4.433   4.352  18.899  0.00  0.00    +0.000 C 
ATOM      2  C   UNL     1       3.557   5.024  19.970  0.00  0.00    +0.000 C 
ATOM      3  C   UNL     1       2.643   3.866  20.508  0.00  0.00    +0.000 C 
ATOM      4  C   UNL     1       1.809   3.173  19.410  0.00  0.00    +0.000 C 
ATOM      5  C   UNL     1       2.272   1.842  18.813  0.00  0.00    +0.000 C 
ATOM      6  C   UNL     1       3.470   2.198  17.931  0.00  0.00    +0.000 C 
ATOM      7  C   UNL     1       3.416   3.742  17.805  0.00  0.00    +0.000 C 
ATOM      8  N   UNL     1       1.990   4.017  18.235  0.00  0.00    +0.000 NA
ATOM      9  C   UNL     1       0.844   3.932  17.345  0.00  0.00    +0.000 C 
ENDROOT
BRANCH   2  10
ATOM     10  C   UNL     1       2.918   6.348  19.463  0.00  0.00    +0.000 A 
ATOM     11  C   UNL     1       3.191   6.931  18.198  0.00  0.00    +0.000 A 
ATOM     12  C   UNL     1       2.712   8.181  17.815  0.00  0.00    +0.000 A 
ATOM     13  C   UNL     1       1.933   8.942  18.699  0.00  0.00    +0.000 A 
ATOM     14  C   UNL     1       1.621   8.359  19.939  0.00  0.00    +0.000 A 
ATOM     15  C   UNL     1       2.065   7.069  20.293  0.00  0.00    +0.000 A 
BRANCH  13  16
ATOM     16  C   UNL     1       1.494  10.323  18.445  0.00  0.00    +0.000 C 
ATOM     17  C   UNL     1       0.276  10.848  18.266  0.00  0.00    +0.000 C 
ATOM     18 BR   UNL     1      -1.382  10.031  18.273  0.00  0.00    +0.000 Br
ENDBRANCH  13  16
ENDBRANCH   2  10
BRANCH   1  19
ATOM     19  C   UNL     1       5.669   5.278  18.738  0.00  0.00    +0.000 C 
ATOM     20  O   UNL     1       6.310   5.640  19.716  0.00  0.00    +0.000 OA
BRANCH  19  22
ATOM     21  C   UNL     1       7.126   4.696  17.043  0.00  0.00    +0.000 C 
ATOM     22  O   UNL     1       6.051   5.568  17.470  0.00  0.00    +0.000 OA
ENDBRANCH  19  22
ENDBRANCH   1  19
TORSDOF 4
ENDMDL
MODEL 5
REMARK VINA RESULT:      -7.2      2.975      5.427
REMARK  Name = 
REMARK  6 active torsions:
REMARK  status: ('A' for Active; 'I' for Inactive)
REMARK    1  A    between atoms: C_1  and  O_2
REMARK    2  A    between atoms: O_2  and  C_3
REMARK    3  A    between atoms: C_3  and  C_5
REMARK    4  A    between atoms: C_6  and  C_7
REMARK    5  A    between atoms: C_10  and  C_11
REMARK    6  A    between atoms: N_21  and  C_22
REMARK                            x       y       z     vdW  Elec       q    Type
REMARK                         _______ _______ _______ _____ _____    ______ ____
ROOT
ATOM      1  C   UNL     1       4.499   4.912  17.777  0.00  0.00    +0.000 C 
ATOM      2  C   UNL     1       4.164   5.492  19.162  0.00  0.00    +0.000 C 
ATOM      3  C   UNL     1       3.863   4.231  20.049  0.00  0.00    +0.000 C 
ATOM      4  C   UNL     1       2.737   3.335  19.493  0.00  0.00    +0.000 C 
ATOM      5  C   UNL     1       3.077   2.067  18.705  0.00  0.00    +0.000 C 
ATOM      6  C   UNL     1       3.594   2.566  17.354  0.00  0.00    +0.000 C 
ATOM      7  C   UNL     1       3.205   4.066  17.318  0.00  0.00    +0.000 C 
ATOM      8  N   UNL     1       2.156   4.119  18.409  0.00  0.00    +0.000 NA
ATOM      9  C   UNL     1       0.757   3.780  18.206  0.00  0.00    +0.000 C 
ENDROOT
BRANCH   2  10
ATOM     10  C   UNL     1       3.128   6.650  19.080  0.00  0.00    +0.000 A 
ATOM     11  C   UNL     1       2.983   7.511  17.961  0.00  0.00    +0.000 A 
ATOM     12  C   UNL     1       2.144   8.623  17.958  0.00  0.00    +0.000 A 
ATOM     13  C   UNL     1       1.402   8.952  19.101  0.00  0.00    +0.000 A 
ATOM     14  C   UNL     1       1.505   8.085  20.202  0.00  0.00    +0.000 A 
ATOM     15  C   UNL     1       2.315   6.932  20.173  0.00  0.00    +0.000 A 
BRANCH  13  16
ATOM     16  C   UNL     1       0.595  10.174  19.247  0.00  0.00    +0.000 C 
ATOM     17  C   UNL     1      -0.529  10.573  18.639  0.00  0.00    +0.000 C 
ATOM     18 BR   UNL     1      -1.544   9.726  17.348  0.00  0.00    +0.000 Br
ENDBRANCH  13  16
ENDBRANCH   2  10
BRANCH   1  19
ATOM     19  C   UNL     1       5.302   6.025  17.049  0.00  0.00    +0.000 C 
ATOM     20  O   UNL     1       6.179   6.647  17.634  0.00  0.00    +0.000 OA
BRANCH  19  22
ATOM     21  C   UNL     1       5.704   5.154  14.947  0.00  0.00    +0.000 C 
ATOM     22  O   UNL     1       5.053   6.188  15.726  0.00  0.00    +0.000 OA
ENDBRANCH  19  22
ENDBRANCH   1  19
TORSDOF 4
ENDMDL
MODEL 6
REMARK VINA RESULT:      -7.2      2.986      5.383
REMARK  Name = 
REMARK  6 active torsions:
REMARK  status: ('A' for Active; 'I' for Inactive)
REMARK    1  A    between atoms: C_1  and  O_2
REMARK    2  A    between atoms: O_2  and  C_3
REMARK    3  A    between atoms: C_3  and  C_5
REMARK    4  A    between atoms: C_6  and  C_7
REMARK    5  A    between atoms: C_10  and  C_11
REMARK    6  A    between atoms: N_21  and  C_22
REMARK                            x       y       z     vdW  Elec       q    Type
REMARK                         _______ _______ _______ _____ _____    ______ ____
ROOT
ATOM      1  C   UNL     1       4.647   4.848  17.734  0.00  0.00    +0.000 C 
ATOM      2  C   UNL     1       4.324   5.486  19.096  0.00  0.00    +0.000 C 
ATOM      3  C   UNL     1       4.088   4.262  20.051  0.00  0.00    +0.000 C 
ATOM      4  C   UNL     1       2.982   3.301  19.569  0.00  0.00    +0.000 C 
ATOM      5  C   UNL     1       3.347   2.007  18.836  0.00  0.00    +0.000 C 
ATOM      6  C   UNL     1       3.815   2.455  17.450  0.00  0.00    +0.000 C 
ATOM      7  C   UNL     1       3.373   3.937  17.350  0.00  0.00    +0.000 C 
ATOM      8  N   UNL     1       2.348   4.009  18.462  0.00  0.00    +0.000 NA
ATOM      9  C   UNL     1       0.958   3.614  18.312  0.00  0.00    +0.000 C 
ENDROOT
BRANCH   2  10
ATOM     10  C   UNL     1       3.247   6.602  18.983  0.00  0.00    +0.000 A 
ATOM     11  C   UNL     1       3.077   7.433  17.844  0.00  0.00    +0.000 A 
ATOM     12  C   UNL     1       2.198   8.512  17.811  0.00  0.00    +0.000 A 
ATOM     13  C   UNL     1       1.437   8.839  18.943  0.00  0.00    +0.000 A 
ATOM     14  C   UNL     1       1.565   8.001  20.064  0.00  0.00    +0.000 A 
ATOM     15  C   UNL     1       2.418   6.879  20.065  0.00  0.00    +0.000 A 
BRANCH  13  16
ATOM     16  C   UNL     1       0.585  10.034  19.057  0.00  0.00    +0.000 C 
ATOM     17  C   UNL     1       0.832  11.326  18.811  0.00  0.00    +0.000 C 
ATOM     18 BR   UNL     1       2.375  12.147  18.211  0.00  0.00    +0.000 Br
ENDBRANCH  13  16
ENDBRANCH   2  10
BRANCH   1  19
ATOM     19  C   UNL     1       5.393   5.949  16.932  0.00  0.00    +0.000 C 
ATOM     20  O   UNL     1       6.221   6.667  17.477  0.00  0.00    +0.000 OA
BRANCH  19  22
ATOM     21  C   UNL     1       6.034   5.090  14.885  0.00  0.00    +0.000 C 
ATOM     22  O   UNL     1       5.157   5.996  15.597  0.00  0.00    +0.000 OA
ENDBRANCH  19  22
ENDBRANCH   1  19
TORSDOF 4
ENDMDL
MODEL 7
REMARK VINA RESULT:      -7.2      3.400      5.359
REMARK  Name = 
REMARK  6 active torsions:
REMARK  status: ('A' for Active; 'I' for Inactive)
REMARK    1  A    between atoms: C_1  and  O_2
REMARK    2  A    between atoms: O_2  and  C_3
REMARK    3  A    between atoms: C_3  and  C_5
REMARK    4  A    between atoms: C_6  and  C_7
REMARK    5  A    between atoms: C_10  and  C_11
REMARK    6  A    between atoms: N_21  and  C_22
REMARK                            x       y       z     vdW  Elec       q    Type
REMARK                         _______ _______ _______ _____ _____    ______ ____
ROOT
ATOM      1  C   UNL     1       4.581   4.121  18.923  0.00  0.00    +0.000 C 
ATOM      2  C   UNL     1       3.740   4.779  20.030  0.00  0.00    +0.000 C 
ATOM      3  C   UNL     1       2.771   3.640  20.510  0.00  0.00    +0.000 C 
ATOM      4  C   UNL     1       1.904   3.047  19.380  0.00  0.00    +0.000 C 
ATOM      5  C   UNL     1       2.302   1.727  18.714  0.00  0.00    +0.000 C 
ATOM      6  C   UNL     1       3.515   2.070  17.848  0.00  0.00    +0.000 C 
ATOM      7  C   UNL     1       3.536   3.619  17.802  0.00  0.00    +0.000 C 
ATOM      8  N   UNL     1       2.125   3.940  18.249  0.00  0.00    +0.000 NA
ATOM      9  C   UNL     1       0.976   3.958  17.360  0.00  0.00    +0.000 C 
ENDROOT
BRANCH   2  10
ATOM     10  C   UNL     1       3.166   6.157  19.593  0.00  0.00    +0.000 A 
ATOM     11  C   UNL     1       2.232   6.908  20.356  0.00  0.00    +0.000 A 
ATOM     12  C   UNL     1       1.630   8.074  19.889  0.00  0.00    +0.000 A 
ATOM     13  C   UNL     1       1.919   8.554  18.603  0.00  0.00    +0.000 A 
ATOM     14  C   UNL     1       2.872   7.843  17.855  0.00  0.00    +0.000 A 
ATOM     15  C   UNL     1       3.516   6.695  18.359  0.00  0.00    +0.000 A 
BRANCH  13  16
ATOM     16  C   UNL     1       1.238   9.693  17.968  0.00  0.00    +0.000 C 
ATOM     17  C   UNL     1       0.309  10.540  18.427  0.00  0.00    +0.000 C 
ATOM     18 BR   UNL     1      -0.506  10.624  20.084  0.00  0.00    +0.000 Br
ENDBRANCH  13  16
ENDBRANCH   2  10
BRANCH   1  19
ATOM     19  C   UNL     1       5.861   4.994  18.806  0.00  0.00    +0.000 C 
ATOM     20  O   UNL     1       6.499   5.305  19.804  0.00  0.00    +0.000 OA
BRANCH  19  22
ATOM     21  C   UNL     1       7.487   4.560  17.222  0.00  0.00    +0.000 C 
ATOM     22  O   UNL     1       6.281   5.293  17.552  0.00  0.00    +0.000 OA
ENDBRANCH  19  22
ENDBRANCH   1  19
TORSDOF 4
ENDMDL
MODEL 8
REMARK VINA RESULT:      -7.2      2.206      3.080
REMARK  Name = 
REMARK  6 active torsions:
REMARK  status: ('A' for Active; 'I' for Inactive)
REMARK    1  A    between atoms: C_1  and  O_2
REMARK    2  A    between atoms: O_2  and  C_3
REMARK    3  A    between atoms: C_3  and  C_5
REMARK    4  A    between atoms: C_6  and  C_7
REMARK    5  A    between atoms: C_10  and  C_11
REMARK    6  A    between atoms: N_21  and  C_22
REMARK                            x       y       z     vdW  Elec       q    Type
REMARK                         _______ _______ _______ _____ _____    ______ ____
ROOT
ATOM      1  C   UNL     1       4.687   5.256  19.122  0.00  0.00    +0.000 C 
ATOM      2  C   UNL     1       4.237   5.976  17.840  0.00  0.00    +0.000 C 
ATOM      3  C   UNL     1       2.671   6.017  17.946  0.00  0.00    +0.000 C 
ATOM      4  C   UNL     1       2.023   4.626  18.102  0.00  0.00    +0.000 C 
ATOM      5  C   UNL     1       1.594   4.124  19.484  0.00  0.00    +0.000 C 
ATOM      6  C   UNL     1       2.900   3.797  20.210  0.00  0.00    +0.000 C 
ATOM      7  C   UNL     1       3.978   3.807  19.096  0.00  0.00    +0.000 C 
ATOM      8  N   UNL     1       3.115   3.691  17.858  0.00  0.00    +0.000 NA
ATOM      9  C   UNL     1       2.620   2.431  17.329  0.00  0.00    +0.000 C 
ENDROOT
BRANCH   2  10
ATOM     10  C   UNL     1       4.916   5.393  16.568  0.00  0.00    +0.000 A 
ATOM     11  C   UNL     1       4.998   6.075  15.324  0.00  0.00    +0.000 A 
ATOM     12  C   UNL     1       5.491   5.486  14.163  0.00  0.00    +0.000 A 
ATOM     13  C   UNL     1       5.921   4.151  14.174  0.00  0.00    +0.000 A 
ATOM     14  C   UNL     1       5.883   3.477  15.407  0.00  0.00    +0.000 A 
ATOM     15  C   UNL     1       5.434   4.102  16.588  0.00  0.00    +0.000 A 
BRANCH  13  16
ATOM     16  C   UNL     1       6.329   3.398  12.978  0.00  0.00    +0.000 C 
ATOM     17  C   UNL     1       5.649   3.037  11.882  0.00  0.00    +0.000 C 
ATOM     18 BR   UNL     1       3.888   3.352  11.420  0.00  0.00    +0.000 Br
ENDBRANCH  13  16
ENDBRANCH   2  10
BRANCH   1  19
ATOM     19  C   UNL     1       6.173   5.662  19.322  0.00  0.00    +0.000 C 
ATOM     20  O   UNL     1       6.917   4.985  20.019  0.00  0.00    +0.000 OA
BRANCH  19  22
ATOM     21  C   UNL     1       8.033   6.614  18.336  0.00  0.00    +0.000 C 
ATOM     22  O   UNL     1       6.614   6.727  18.607  0.00  0.00    +0.000 OA
ENDBRANCH  19  22
ENDBRANCH   1  19
TORSDOF 4
ENDMDL
MODEL 9
REMARK VINA RESULT:      -7.1      3.258      5.320
REMARK  Name = 
REMARK  6 active torsions:
REMARK  status: ('A' for Active; 'I' for Inactive)
REMARK    1  A    between atoms: C_1  and  O_2
REMARK    2  A    between atoms: O_2  and  C_3
REMARK    3  A    between atoms: C_3  and  C_5
REMARK    4  A    between atoms: C_6  and  C_7
REMARK    5  A    between atoms: C_10  and  C_11
REMARK    6  A    between atoms: N_21  and  C_22
REMARK                            x       y       z     vdW  Elec       q    Type
REMARK                         _______ _______ _______ _____ _____    ______ ____
ROOT
ATOM      1  C   UNL     1       4.902   3.984  17.515  0.00  0.00    +0.000 C 
ATOM      2  C   UNL     1       4.810   4.741  18.851  0.00  0.00    +0.000 C 
ATOM      3  C   UNL     1       4.438   3.633  19.901  0.00  0.00    +0.000 C 
ATOM      4  C   UNL     1       3.143   2.868  19.563  0.00  0.00    +0.000 C 
ATOM      5  C   UNL     1       3.210   1.492  18.894  0.00  0.00    +0.000 C 
ATOM      6  C   UNL     1       3.635   1.772  17.452  0.00  0.00    +0.000 C 
ATOM      7  C   UNL     1       3.458   3.303  17.284  0.00  0.00    +0.000 C 
ATOM      8  N   UNL     1       2.557   3.621  18.459  0.00  0.00    +0.000 NA
ATOM      9  C   UNL     1       1.111   3.479  18.434  0.00  0.00    +0.000 C 
ENDROOT
BRANCH   2  10
ATOM     10  C   UNL     1       3.944   6.029  18.741  0.00  0.00    +0.000 A 
ATOM     11  C   UNL     1       2.954   6.407  19.686  0.00  0.00    +0.000 A 
ATOM     12  C   UNL     1       2.100   7.491  19.502  0.00  0.00    +0.000 A 
ATOM     13  C   UNL     1       2.176   8.263  18.334  0.00  0.00    +0.000 A 
ATOM     14  C   UNL     1       3.179   7.925  17.409  0.00  0.00    +0.000 A 
ATOM     15  C   UNL     1       4.074   6.859  17.632  0.00  0.00    +0.000 A 
BRANCH  13  16
ATOM     16  C   UNL     1       1.236   9.339  17.983  0.00  0.00    +0.000 C 
ATOM     17  C   UNL     1       0.620  10.258  18.736  0.00  0.00    +0.000 C 
ATOM     18 BR   UNL     1       0.709  10.555  20.558  0.00  0.00    +0.000 Br
ENDBRANCH  13  16
ENDBRANCH   2  10
BRANCH   1  19
ATOM     19  C   UNL     1       5.764   4.887  16.591  0.00  0.00    +0.000 C 
ATOM     20  O   UNL     1       6.831   5.343  16.981  0.00  0.00    +0.000 OA
BRANCH  19  22
ATOM     21  C   UNL     1       5.994   4.125  14.422  0.00  0.00    +0.000 C 
ATOM     22  O   UNL     1       5.327   5.047  15.317  0.00  0.00    +0.000 OA
ENDBRANCH  19  22
ENDBRANCH   1  19
TORSDOF 4
ENDMDL
