MODEL 1
REMARK VINA RESULT:      -7.9      0.000      0.000
REMARK  Name = 
REMARK  4 active torsions:
REMARK  status: ('A' for Active; 'I' for Inactive)
REMARK    1  A    between atoms: C_1  and  O_2
REMARK    2  A    between atoms: O_2  and  C_3
REMARK    3  A    between atoms: C_5  and  C_6
REMARK    4  A    between atoms: C_19  and  O_20
REMARK                            x       y       z     vdW  Elec       q    Type
REMARK                         _______ _______ _______ _____ _____    ______ ____
ROOT
ATOM      1  C   UNL     1       2.953   7.257  17.912  0.00  0.00    +0.000 C 
ATOM      2  C   UNL     1       2.204   7.922  18.804  0.00  0.00    +0.000 C 
ATOM      3  C   UNL     1       1.869   7.531  20.223  0.00  0.00    +0.000 C 
ATOM      4  C   UNL     1       1.120   8.713  20.750  0.00  0.00    +0.000 A 
ATOM      5  C   UNL     1       0.628   8.903  22.032  0.00  0.00    +0.000 A 
ATOM      6  C   UNL     1      -0.048  10.091  22.313  0.00  0.00    +0.000 A 
ATOM      7  C   UNL     1      -0.233  11.068  21.319  0.00  0.00    +0.000 A 
ATOM      8  C   UNL     1       0.262  10.873  20.026  0.00  0.00    +0.000 A 
ATOM      9  C   UNL     1       0.937   9.692  19.772  0.00  0.00    +0.000 A 
ATOM     10  C   UNL     1       1.579   9.254  18.524  0.00  0.00    +0.000 C 
ATOM     11  O   UNL     1       1.595   9.860  17.473  0.00  0.00    +0.000 OA
ENDROOT
BRANCH   1  14
ATOM     12  C   UNL     1       5.412   4.638  19.103  0.00  0.00    +0.000 A 
ATOM     13  C   UNL     1       4.868   5.865  18.688  0.00  0.00    +0.000 A 
ATOM     14  C   UNL     1       3.544   5.957  18.240  0.00  0.00    +0.000 A 
ATOM     15  C   UNL     1       2.759   4.805  18.190  0.00  0.00    +0.000 A 
ATOM     16  C   UNL     1       3.284   3.580  18.603  0.00  0.00    +0.000 A 
ATOM     17  C   UNL     1       4.602   3.496  19.062  0.00  0.00    +0.000 A 
BRANCH  12  19
ATOM     18  C   UNL     1       7.498   5.806  19.003  0.00  0.00    +0.000 C 
ATOM     19  O   UNL     1       6.713   4.739  19.519  0.00  0.00    +0.000 OA
ENDBRANCH  12  19
BRANCH  17  20
ATOM     20  O   UNL     1       5.062   2.276  19.475  0.00  0.00    +0.000 OA
ATOM     21  H   UNL     1       4.341   1.628  19.429  0.00  0.00    +0.000 HD
ENDBRANCH  17  20
ENDBRANCH   1  14
TORSDOF 3
ENDMDL
MODEL 2
REMARK VINA RESULT:      -7.8      1.022      2.328
REMARK  Name = 
REMARK  4 active torsions:
REMARK  status: ('A' for Active; 'I' for Inactive)
REMARK    1  A    between atoms: C_1  and  O_2
REMARK    2  A    between atoms: O_2  and  C_3
REMARK    3  A    between atoms: C_5  and  C_6
REMARK    4  A    between atoms: C_19  and  O_20
REMARK                            x       y       z     vdW  Elec       q    Type
REMARK                         _______ _______ _______ _____ _____    ______ ____
ROOT
ATOM      1  C   UNL     1       2.948   6.969  18.110  0.00  0.00    +0.000 C 
ATOM      2  C   UNL     1       2.203   7.737  18.918  0.00  0.00    +0.000 C 
ATOM      3  C   UNL     1       1.764   7.456  20.335  0.00  0.00    +0.000 C 
ATOM      4  C   UNL     1       1.076   8.718  20.751  0.00  0.00    +0.000 A 
ATOM      5  C   UNL     1       0.531   9.018  21.988  0.00  0.00    +0.000 A 
ATOM      6  C   UNL     1      -0.069  10.265  22.164  0.00  0.00    +0.000 A 
ATOM      7  C   UNL     1      -0.128  11.192  21.108  0.00  0.00    +0.000 A 
ATOM      8  C   UNL     1       0.421  10.885  19.859  0.00  0.00    +0.000 A 
ATOM      9  C   UNL     1       1.020   9.647  19.710  0.00  0.00    +0.000 A 
ATOM     10  C   UNL     1       1.694   9.091  18.528  0.00  0.00    +0.000 C 
ATOM     11  O   UNL     1       1.812   9.630  17.448  0.00  0.00    +0.000 OA
ENDROOT
BRANCH   1  14
ATOM     12  C   UNL     1       3.117   3.232  18.682  0.00  0.00    +0.000 A 
ATOM     13  C   UNL     1       2.631   4.512  18.365  0.00  0.00    +0.000 A 
ATOM     14  C   UNL     1       3.423   5.653  18.543  0.00  0.00    +0.000 A 
ATOM     15  C   UNL     1       4.711   5.516  19.061  0.00  0.00    +0.000 A 
ATOM     16  C   UNL     1       5.209   4.251  19.376  0.00  0.00    +0.000 A 
ATOM     17  C   UNL     1       4.419   3.113  19.183  0.00  0.00    +0.000 A 
BRANCH  12  19
ATOM     18  C   UNL     1       0.856   2.456  18.800  0.00  0.00    +0.000 C 
ATOM     19  O   UNL     1       2.211   2.235  18.432  0.00  0.00    +0.000 OA
ENDBRANCH  12  19
BRANCH  17  20
ATOM     20  O   UNL     1       4.961   1.895  19.488  0.00  0.00    +0.000 OA
ATOM     21  H   UNL     1       4.263   1.220  19.478  0.00  0.00    +0.000 HD
ENDBRANCH  17  20
ENDBRANCH   1  14
TORSDOF 3
ENDMDL
MODEL 3
REMARK VINA RESULT:      -7.8      3.935      7.345
REMARK  Name = 
REMARK  4 active torsions:
REMARK  status: ('A' for Active; 'I' for Inactive)
REMARK    1  A    between atoms: C_1  and  O_2
REMARK    2  A    between atoms: O_2  and  C_3
REMARK    3  A    between atoms: C_5  and  C_6
REMARK    4  A    between atoms: C_19  and  O_20
REMARK                            x       y       z     vdW  Elec       q    Type
REMARK                         _______ _______ _______ _____ _____    ______ ____
ROOT
ATOM      1  C   UNL     1       5.224   5.494  17.681  0.00  0.00    +0.000 C 
ATOM      2  C   UNL     1       5.614   5.079  16.467  0.00  0.00    +0.000 C 
ATOM      3  C   UNL     1       4.959   4.053  15.573  0.00  0.00    +0.000 C 
ATOM      4  C   UNL     1       5.766   4.112  14.314  0.00  0.00    +0.000 A 
ATOM      5  C   UNL     1       5.556   3.409  13.139  0.00  0.00    +0.000 A 
ATOM      6  C   UNL     1       6.436   3.616  12.077  0.00  0.00    +0.000 A 
ATOM      7  C   UNL     1       7.516   4.509  12.198  0.00  0.00    +0.000 A 
ATOM      8  C   UNL     1       7.727   5.215  13.386  0.00  0.00    +0.000 A 
ATOM      9  C   UNL     1       6.836   5.002  14.423  0.00  0.00    +0.000 A 
ATOM     10  C   UNL     1       6.809   5.631  15.752  0.00  0.00    +0.000 C 
ATOM     11  O   UNL     1       7.604   6.441  16.180  0.00  0.00    +0.000 OA
ENDROOT
BRANCH   1  14
ATOM     12  C   UNL     1       3.061   3.385  19.961  0.00  0.00    +0.000 A 
ATOM     13  C   UNL     1       4.173   3.872  19.252  0.00  0.00    +0.000 A 
ATOM     14  C   UNL     1       4.044   4.922  18.334  0.00  0.00    +0.000 A 
ATOM     15  C   UNL     1       2.786   5.480  18.107  0.00  0.00    +0.000 A 
ATOM     16  C   UNL     1       1.674   5.010  18.807  0.00  0.00    +0.000 A 
ATOM     17  C   UNL     1       1.810   3.971  19.733  0.00  0.00    +0.000 A 
BRANCH  12  19
ATOM     18  C   UNL     1       4.672   1.792  20.731  0.00  0.00    +0.000 C 
ATOM     19  O   UNL     1       3.376   2.368  20.823  0.00  0.00    +0.000 OA
ENDBRANCH  12  19
BRANCH  17  20
ATOM     20  O   UNL     1       0.693   3.561  20.407  0.00  0.00    +0.000 OA
ATOM     21  H   UNL     1       0.834   3.671  21.361  0.00  0.00    +0.000 HD
ENDBRANCH  17  20
ENDBRANCH   1  14
TORSDOF 3
ENDMDL
MODEL 4
REMARK VINA RESULT:      -7.5      1.317      2.488
REMARK  Name = 
REMARK  4 active torsions:
REMARK  status: ('A' for Active; 'I' for Inactive)
REMARK    1  A    between atoms: C_1  and  O_2
REMARK    2  A    between atoms: O_2  and  C_3
REMARK    3  A    between atoms: C_5  and  C_6
REMARK    4  A    between atoms: C_19  and  O_20
REMARK                            x       y       z     vdW  Elec       q    Type
REMARK                         _______ _______ _______ _____ _____    ______ ____
ROOT
ATOM      1  C   UNL     1       2.441   7.784  18.145  0.00  0.00    +0.000 C 
ATOM      2  C   UNL     1       1.744   8.337  19.148  0.00  0.00    +0.000 C 
ATOM      3  C   UNL     1       1.380   7.732  20.482  0.00  0.00    +0.000 C 
ATOM      4  C   UNL     1       0.721   8.857  21.215  0.00  0.00    +0.000 A 
ATOM      5  C   UNL     1       0.245   8.857  22.516  0.00  0.00    +0.000 A 
ATOM      6  C   UNL     1      -0.340  10.025  23.008  0.00  0.00    +0.000 A 
ATOM      7  C   UNL     1      -0.451  11.171  22.200  0.00  0.00    +0.000 A 
ATOM      8  C   UNL     1       0.028  11.167  20.887  0.00  0.00    +0.000 A 
ATOM      9  C   UNL     1       0.613  10.001  20.423  0.00  0.00    +0.000 A 
ATOM     10  C   UNL     1       1.221   9.740  19.110  0.00  0.00    +0.000 C 
ATOM     11  O   UNL     1       1.283  10.516  18.180  0.00  0.00    +0.000 OA
ENDROOT
BRANCH   1  14
ATOM     12  C   UNL     1       2.568   4.005  17.959  0.00  0.00    +0.000 A 
ATOM     13  C   UNL     1       2.083   5.324  17.977  0.00  0.00    +0.000 A 
ATOM     14  C   UNL     1       2.933   6.406  18.236  0.00  0.00    +0.000 A 
ATOM     15  C   UNL     1       4.282   6.167  18.498  0.00  0.00    +0.000 A 
ATOM     16  C   UNL     1       4.779   4.863  18.480  0.00  0.00    +0.000 A 
ATOM     17  C   UNL     1       3.928   3.787  18.207  0.00  0.00    +0.000 A 
BRANCH  12  19
ATOM     18  C   UNL     1       0.968   2.420  18.768  0.00  0.00    +0.000 C 
ATOM     19  O   UNL     1       1.599   3.079  17.678  0.00  0.00    +0.000 OA
ENDBRANCH  12  19
BRANCH  17  20
ATOM     20  O   UNL     1       4.469   2.531  18.181  0.00  0.00    +0.000 OA
ATOM     21  H   UNL     1       5.393   2.572  18.479  0.00  0.00    +0.000 HD
ENDBRANCH  17  20
ENDBRANCH   1  14
TORSDOF 3
ENDMDL
MODEL 5
REMARK VINA RESULT:      -7.3      2.414      3.115
REMARK  Name = 
REMARK  4 active torsions:
REMARK  status: ('A' for Active; 'I' for Inactive)
REMARK    1  A    between atoms: C_1  and  O_2
REMARK    2  A    between atoms: O_2  and  C_3
REMARK    3  A    between atoms: C_5  and  C_6
REMARK    4  A    between atoms: C_19  and  O_20
REMARK                            x       y       z     vdW  Elec       q    Type
REMARK                         _______ _______ _______ _____ _____    ______ ____
ROOT
ATOM      1  C   UNL     1       3.690   5.662  18.776  0.00  0.00    +0.000 C 
ATOM      2  C   UNL     1       2.980   6.792  18.903  0.00  0.00    +0.000 C 
ATOM      3  C   UNL     1       2.969   7.999  17.996  0.00  0.00    +0.000 C 
ATOM      4  C   UNL     1       1.901   8.871  18.576  0.00  0.00    +0.000 A 
ATOM      5  C   UNL     1       1.440  10.084  18.091  0.00  0.00    +0.000 A 
ATOM      6  C   UNL     1       0.427  10.737  18.794  0.00  0.00    +0.000 A 
ATOM      7  C   UNL     1      -0.108  10.183  19.971  0.00  0.00    +0.000 A 
ATOM      8  C   UNL     1       0.361   8.960  20.459  0.00  0.00    +0.000 A 
ATOM      9  C   UNL     1       1.359   8.324  19.741  0.00  0.00    +0.000 A 
ATOM     10  C   UNL     1       2.001   7.029  20.012  0.00  0.00    +0.000 C 
ATOM     11  O   UNL     1       1.775   6.299  20.953  0.00  0.00    +0.000 OA
ENDROOT
BRANCH   1  14
ATOM     12  C   UNL     1       6.731   6.063  16.559  0.00  0.00    +0.000 A 
ATOM     13  C   UNL     1       5.767   6.294  17.555  0.00  0.00    +0.000 A 
ATOM     14  C   UNL     1       4.633   5.481  17.670  0.00  0.00    +0.000 A 
ATOM     15  C   UNL     1       4.449   4.434  16.766  0.00  0.00    +0.000 A 
ATOM     16  C   UNL     1       5.400   4.190  15.774  0.00  0.00    +0.000 A 
ATOM     17  C   UNL     1       6.538   4.997  15.673  0.00  0.00    +0.000 A 
BRANCH  12  19
ATOM     18  C   UNL     1       7.744   7.968  17.595  0.00  0.00    +0.000 C 
ATOM     19  O   UNL     1       7.776   6.947  16.606  0.00  0.00    +0.000 OA
ENDBRANCH  12  19
BRANCH  17  20
ATOM     20  O   UNL     1       7.449   4.702  14.696  0.00  0.00    +0.000 OA
ATOM     21  H   UNL     1       8.025   3.982  15.000  0.00  0.00    +0.000 HD
ENDBRANCH  17  20
ENDBRANCH   1  14
TORSDOF 3
ENDMDL
MODEL 6
REMARK VINA RESULT:      -7.3      3.722      7.245
REMARK  Name = 
REMARK  4 active torsions:
REMARK  status: ('A' for Active; 'I' for Inactive)
REMARK    1  A    between atoms: C_1  and  O_2
REMARK    2  A    between atoms: O_2  and  C_3
REMARK    3  A    between atoms: C_5  and  C_6
REMARK    4  A    between atoms: C_19  and  O_20
REMARK                            x       y       z     vdW  Elec       q    Type
REMARK                         _______ _______ _______ _____ _____    ______ ____
ROOT
ATOM      1  C   UNL     1       5.677   5.339  18.262  0.00  0.00    +0.000 C 
ATOM      2  C   UNL     1       5.896   4.969  16.993  0.00  0.00    +0.000 C 
ATOM      3  C   UNL     1       5.131   3.966  16.164  0.00  0.00    +0.000 C 
ATOM      4  C   UNL     1       5.753   4.075  14.808  0.00  0.00    +0.000 A 
ATOM      5  C   UNL     1       5.386   3.410  13.650  0.00  0.00    +0.000 A 
ATOM      6  C   UNL     1       6.109   3.661  12.483  0.00  0.00    +0.000 A 
ATOM      7  C   UNL     1       7.188   4.563  12.484  0.00  0.00    +0.000 A 
ATOM      8  C   UNL     1       7.558   5.231  13.655  0.00  0.00    +0.000 A 
ATOM      9  C   UNL     1       6.822   4.974  14.798  0.00  0.00    +0.000 A 
ATOM     10  C   UNL     1       6.975   5.559  16.138  0.00  0.00    +0.000 C 
ATOM     11  O   UNL     1       7.817   6.363  16.479  0.00  0.00    +0.000 OA
ENDROOT
BRANCH   1  14
ATOM     12  C   UNL     1       2.484   4.934  20.255  0.00  0.00    +0.000 A 
ATOM     13  C   UNL     1       3.572   5.517  19.584  0.00  0.00    +0.000 A 
ATOM     14  C   UNL     1       4.603   4.732  19.053  0.00  0.00    +0.000 A 
ATOM     15  C   UNL     1       4.556   3.346  19.211  0.00  0.00    +0.000 A 
ATOM     16  C   UNL     1       3.479   2.752  19.871  0.00  0.00    +0.000 A 
ATOM     17  C   UNL     1       2.446   3.541  20.387  0.00  0.00    +0.000 A 
BRANCH  12  19
ATOM     18  C   UNL     1       1.794   7.222  20.387  0.00  0.00    +0.000 C 
ATOM     19  O   UNL     1       1.567   5.852  20.694  0.00  0.00    +0.000 OA
ENDBRANCH  12  19
BRANCH  17  20
ATOM     20  O   UNL     1       1.404   2.908  21.007  0.00  0.00    +0.000 OA
ATOM     21  H   UNL     1       1.677   2.010  21.260  0.00  0.00    +0.000 HD
ENDBRANCH  17  20
ENDBRANCH   1  14
TORSDOF 3
ENDMDL
MODEL 7
REMARK VINA RESULT:      -7.1      4.086      7.602
REMARK  Name = 
REMARK  4 active torsions:
REMARK  status: ('A' for Active; 'I' for Inactive)
REMARK    1  A    between atoms: C_1  and  O_2
REMARK    2  A    between atoms: O_2  and  C_3
REMARK    3  A    between atoms: C_5  and  C_6
REMARK    4  A    between atoms: C_19  and  O_20
REMARK                            x       y       z     vdW  Elec       q    Type
REMARK                         _______ _______ _______ _____ _____    ______ ____
ROOT
ATOM      1  C   UNL     1       5.068   4.860  17.516  0.00  0.00    +0.000 C 
ATOM      2  C   UNL     1       5.571   4.659  16.290  0.00  0.00    +0.000 C 
ATOM      3  C   UNL     1       5.052   3.752  15.201  0.00  0.00    +0.000 C 
ATOM      4  C   UNL     1       5.943   4.047  14.037  0.00  0.00    +0.000 A 
ATOM      5  C   UNL     1       5.866   3.525  12.756  0.00  0.00    +0.000 A 
ATOM      6  C   UNL     1       6.807   3.940  11.813  0.00  0.00    +0.000 A 
ATOM      7  C   UNL     1       7.815   4.859  12.156  0.00  0.00    +0.000 A 
ATOM      8  C   UNL     1       7.892   5.382  13.450  0.00  0.00    +0.000 A 
ATOM      9  C   UNL     1       6.943   4.964  14.367  0.00  0.00    +0.000 A 
ATOM     10  C   UNL     1       6.777   5.377  15.768  0.00  0.00    +0.000 C 
ATOM     11  O   UNL     1       7.485   6.151  16.377  0.00  0.00    +0.000 OA
ENDROOT
BRANCH   1  14
ATOM     12  C   UNL     1       1.767   4.089  19.201  0.00  0.00    +0.000 A 
ATOM     13  C   UNL     1       2.959   4.738  18.837  0.00  0.00    +0.000 A 
ATOM     14  C   UNL     1       3.882   4.132  17.976  0.00  0.00    +0.000 A 
ATOM     15  C   UNL     1       3.620   2.852  17.487  0.00  0.00    +0.000 A 
ATOM     16  C   UNL     1       2.439   2.195  17.837  0.00  0.00    +0.000 A 
ATOM     17  C   UNL     1       1.515   2.812  18.686  0.00  0.00    +0.000 A 
BRANCH  12  19
ATOM     18  C   UNL     1       1.614   5.810  20.857  0.00  0.00    +0.000 C 
ATOM     19  O   UNL     1       0.981   4.835  20.038  0.00  0.00    +0.000 OA
ENDBRANCH  12  19
BRANCH  17  20
ATOM     20  O   UNL     1       0.364   2.134  18.981  0.00  0.00    +0.000 OA
ATOM     21  H   UNL     1      -0.394   2.736  18.899  0.00  0.00    +0.000 HD
ENDBRANCH  17  20
ENDBRANCH   1  14
TORSDOF 3
ENDMDL
MODEL 8
REMARK VINA RESULT:      -7.1      1.240      1.365
REMARK  Name = 
REMARK  4 active torsions:
REMARK  status: ('A' for Active; 'I' for Inactive)
REMARK    1  A    between atoms: C_1  and  O_2
REMARK    2  A    between atoms: O_2  and  C_3
REMARK    3  A    between atoms: C_5  and  C_6
REMARK    4  A    between atoms: C_19  and  O_20
REMARK                            x       y       z     vdW  Elec       q    Type
REMARK                         _______ _______ _______ _____ _____    ______ ____
ROOT
ATOM      1  C   UNL     1       2.295   8.101  18.014  0.00  0.00    +0.000 C 
ATOM      2  C   UNL     1       1.610   8.565  19.070  0.00  0.00    +0.000 C 
ATOM      3  C   UNL     1       1.574   8.019  20.477  0.00  0.00    +0.000 C 
ATOM      4  C   UNL     1       0.752   9.019  21.225  0.00  0.00    +0.000 A 
ATOM      5  C   UNL     1       0.453   9.029  22.578  0.00  0.00    +0.000 A 
ATOM      6  C   UNL     1      -0.339  10.065  23.075  0.00  0.00    +0.000 A 
ATOM      7  C   UNL     1      -0.828  11.071  22.223  0.00  0.00    +0.000 A 
ATOM      8  C   UNL     1      -0.527  11.057  20.857  0.00  0.00    +0.000 A 
ATOM      9  C   UNL     1       0.267  10.026  20.388  0.00  0.00    +0.000 A 
ATOM     10  C   UNL     1       0.755   9.794  19.020  0.00  0.00    +0.000 C 
ATOM     11  O   UNL     1       0.508  10.472  18.046  0.00  0.00    +0.000 OA
ENDROOT
BRANCH   1  14
ATOM     12  C   UNL     1       5.285   5.785  17.889  0.00  0.00    +0.000 A 
ATOM     13  C   UNL     1       4.456   6.903  17.699  0.00  0.00    +0.000 A 
ATOM     14  C   UNL     1       3.120   6.895  18.118  0.00  0.00    +0.000 A 
ATOM     15  C   UNL     1       2.600   5.748  18.720  0.00  0.00    +0.000 A 
ATOM     16  C   UNL     1       3.412   4.631  18.919  0.00  0.00    +0.000 A 
ATOM     17  C   UNL     1       4.750   4.650  18.510  0.00  0.00    +0.000 A 
BRANCH  12  19
ATOM     18  C   UNL     1       6.921   5.379  16.189  0.00  0.00    +0.000 C 
ATOM     19  O   UNL     1       6.561   5.976  17.429  0.00  0.00    +0.000 OA
ENDBRANCH  12  19
BRANCH  17  20
ATOM     20  O   UNL     1       5.509   3.537  18.747  0.00  0.00    +0.000 OA
ATOM     21  H   UNL     1       4.965   2.863  19.187  0.00  0.00    +0.000 HD
ENDBRANCH  17  20
ENDBRANCH   1  14
TORSDOF 3
ENDMDL
MODEL 9
REMARK VINA RESULT:      -7.0      2.180      6.879
REMARK  Name = 
REMARK  4 active torsions:
REMARK  status: ('A' for Active; 'I' for Inactive)
REMARK    1  A    between atoms: C_1  and  O_2
REMARK    2  A    between atoms: O_2  and  C_3
REMARK    3  A    between atoms: C_5  and  C_6
REMARK    4  A    between atoms: C_19  and  O_20
REMARK                            x       y       z     vdW  Elec       q    Type
REMARK                         _______ _______ _______ _____ _____    ______ ____
ROOT
ATOM      1  C   UNL     1       2.683   8.150  18.074  0.00  0.00    +0.000 C 
ATOM      2  C   UNL     1       2.720   6.814  18.174  0.00  0.00    +0.000 C 
ATOM      3  C   UNL     1       1.726   5.896  18.845  0.00  0.00    +0.000 C 
ATOM      4  C   UNL     1       2.231   4.527  18.520  0.00  0.00    +0.000 A 
ATOM      5  C   UNL     1       1.654   3.311  18.847  0.00  0.00    +0.000 A 
ATOM      6  C   UNL     1       2.297   2.141  18.441  0.00  0.00    +0.000 A 
ATOM      7  C   UNL     1       3.506   2.194  17.725  0.00  0.00    +0.000 A 
ATOM      8  C   UNL     1       4.087   3.423  17.398  0.00  0.00    +0.000 A 
ATOM      9  C   UNL     1       3.428   4.570  17.802  0.00  0.00    +0.000 A 
ATOM     10  C   UNL     1       3.799   5.973  17.564  0.00  0.00    +0.000 C 
ATOM     11  O   UNL     1       4.789   6.365  16.985  0.00  0.00    +0.000 OA
ENDROOT
BRANCH   1  14
ATOM     12  C   UNL     1       0.633  10.030  20.642  0.00  0.00    +0.000 A 
ATOM     13  C   UNL     1       1.608   9.202  20.061  0.00  0.00    +0.000 A 
ATOM     14  C   UNL     1       1.601   8.925  18.688  0.00  0.00    +0.000 A 
ATOM     15  C   UNL     1       0.596   9.469  17.887  0.00  0.00    +0.000 A 
ATOM     16  C   UNL     1      -0.377  10.296  18.449  0.00  0.00    +0.000 A 
ATOM     17  C   UNL     1      -0.357  10.580  19.819  0.00  0.00    +0.000 A 
BRANCH  12  19
ATOM     18  C   UNL     1       0.012   9.409  22.868  0.00  0.00    +0.000 C 
ATOM     19  O   UNL     1       0.804  10.199  21.990  0.00  0.00    +0.000 OA
ENDBRANCH  12  19
BRANCH  17  20
ATOM     20  O   UNL     1      -1.321  11.413  20.316  0.00  0.00    +0.000 OA
ATOM     21  H   UNL     1      -1.284  11.407  21.286  0.00  0.00    +0.000 HD
ENDBRANCH  17  20
ENDBRANCH   1  14
TORSDOF 3
ENDMDL
