MODEL 1
REMARK VINA RESULT:      -8.3      0.000      0.000
REMARK  Name = 
REMARK  7 active torsions:
REMARK  status: ('A' for Active; 'I' for Inactive)
REMARK    1  A    between atoms: C_5  and  C_6
REMARK    2  A    between atoms: N_16  and  C_17
REMARK    3  A    between atoms: C_17  and  C_18
REMARK    4  A    between atoms: C_18  and  C_19
REMARK    5  A    between atoms: C_19  and  C_20
REMARK    6  A    between atoms: C_20  and  C_21
REMARK    7  A    between atoms: C_21  and  N_22
REMARK                            x       y       z     vdW  Elec       q    Type
REMARK                         _______ _______ _______ _____ _____    ______ ____
ROOT
ATOM      1  O   UNL     1       4.802   2.012  20.506  0.00  0.00    +0.000 OA
ATOM      2  C   UNL     1       4.656   2.779  19.557  0.00  0.00    +0.000 A 
ATOM      3  N   UNL     1       5.608   3.733  19.337  0.00  0.00    +0.000 N 
ATOM      4  C   UNL     1       5.581   4.659  18.292  0.00  0.00    +0.000 A 
ATOM      5  C   UNL     1       6.587   5.626  18.134  0.00  0.00    +0.000 A 
ATOM      6  C   UNL     1       6.463   6.561  17.086  0.00  0.00    +0.000 A 
ATOM      7  C   UNL     1       5.390   6.511  16.197  0.00  0.00    +0.000 A 
ATOM      8  C   UNL     1       4.422   5.522  16.340  0.00  0.00    +0.000 A 
ATOM      9  C   UNL     1       4.515   4.605  17.392  0.00  0.00    +0.000 A 
ATOM     10  C   UNL     1       3.482   3.563  17.560  0.00  0.00    +0.000 A 
ATOM     11  O   UNL     1       2.595   3.467  16.714  0.00  0.00    +0.000 OA
ATOM     12  N   UNL     1       3.589   2.743  18.679  0.00  0.00    +0.000 N 
ATOM     13  H   UNL     1       6.365   3.728  20.015  0.00  0.00    +0.000 HD
ENDROOT
BRANCH   5  14
ATOM     14  C   UNL     1       7.806   5.713  19.015  0.00  0.00    +0.000 C 
ATOM     15  F   UNL     1       7.534   5.641  20.350  0.00  0.00    +0.000 F 
ATOM     16  F   UNL     1       8.694   4.713  18.765  0.00  0.00    +0.000 F 
ATOM     17  F   UNL     1       8.492   6.876  18.840  0.00  0.00    +0.000 F 
ENDBRANCH   5  14
BRANCH  12  18
ATOM     18  C   UNL     1       2.579   1.700  18.864  0.00  0.00    +0.000 C 
BRANCH  18  19
ATOM     19  C   UNL     1       1.243   2.203  19.424  0.00  0.00    +0.000 C 
BRANCH  19  20
ATOM     20  C   UNL     1       1.365   3.056  20.689  0.00  0.00    +0.000 C 
BRANCH  20  21
ATOM     21  C   UNL     1       1.033   4.515  20.358  0.00  0.00    +0.000 C 
BRANCH  21  22
ATOM     22  C   UNL     1       2.135   5.479  20.786  0.00  0.00    +0.000 C 
BRANCH  22  23
ATOM     23  N   UNL     1       2.003   6.758  20.112  0.00  0.00    +0.000 N 
ATOM     24  C   UNL     1       2.373   7.039  18.828  0.00  0.00    +0.000 A 
ATOM     25  C   UNL     1       2.072   8.370  18.657  0.00  0.00    +0.000 A 
ATOM     26  N   UNL     1       1.531   8.898  19.801  0.00  0.00    +0.000 NA
ATOM     27  C   UNL     1       1.503   7.904  20.660  0.00  0.00    +0.000 A 
ENDBRANCH  22  23
ENDBRANCH  21  22
ENDBRANCH  20  21
ENDBRANCH  19  20
ENDBRANCH  18  19
ENDBRANCH  12  18
TORSDOF 7
ENDMDL
MODEL 2
REMARK VINA RESULT:      -8.1      0.394      1.029
REMARK  Name = 
REMARK  7 active torsions:
REMARK  status: ('A' for Active; 'I' for Inactive)
REMARK    1  A    between atoms: C_5  and  C_6
REMARK    2  A    between atoms: N_16  and  C_17
REMARK    3  A    between atoms: C_17  and  C_18
REMARK    4  A    between atoms: C_18  and  C_19
REMARK    5  A    between atoms: C_19  and  C_20
REMARK    6  A    between atoms: C_20  and  C_21
REMARK    7  A    between atoms: C_21  and  N_22
REMARK                            x       y       z     vdW  Elec       q    Type
REMARK                         _______ _______ _______ _____ _____    ______ ____
ROOT
ATOM      1  O   UNL     1       4.815   2.021  20.481  0.00  0.00    +0.000 OA
ATOM      2  C   UNL     1       4.658   2.794  19.539  0.00  0.00    +0.000 A 
ATOM      3  N   UNL     1       5.597   3.760  19.323  0.00  0.00    +0.000 N 
ATOM      4  C   UNL     1       5.557   4.693  18.286  0.00  0.00    +0.000 A 
ATOM      5  C   UNL     1       6.551   5.673  18.132  0.00  0.00    +0.000 A 
ATOM      6  C   UNL     1       6.413   6.615  17.092  0.00  0.00    +0.000 A 
ATOM      7  C   UNL     1       5.339   6.558  16.204  0.00  0.00    +0.000 A 
ATOM      8  C   UNL     1       4.383   5.557  16.343  0.00  0.00    +0.000 A 
ATOM      9  C   UNL     1       4.490   4.633  17.388  0.00  0.00    +0.000 A 
ATOM     10  C   UNL     1       3.469   3.578  17.550  0.00  0.00    +0.000 A 
ATOM     11  O   UNL     1       2.582   3.478  16.705  0.00  0.00    +0.000 OA
ATOM     12  N   UNL     1       3.589   2.751  18.663  0.00  0.00    +0.000 N 
ATOM     13  H   UNL     1       6.357   3.759  20.000  0.00  0.00    +0.000 HD
ENDROOT
BRANCH   5  14
ATOM     14  C   UNL     1       7.771   5.769  19.011  0.00  0.00    +0.000 C 
ATOM     15  F   UNL     1       8.666   4.755  18.832  0.00  0.00    +0.000 F 
ATOM     16  F   UNL     1       8.469   6.918  18.801  0.00  0.00    +0.000 F 
ATOM     17  F   UNL     1       7.460   5.756  20.336  0.00  0.00    +0.000 F 
ENDBRANCH   5  14
BRANCH  12  18
ATOM     18  C   UNL     1       2.592   1.695  18.843  0.00  0.00    +0.000 C 
BRANCH  18  19
ATOM     19  C   UNL     1       1.256   2.176  19.421  0.00  0.00    +0.000 C 
BRANCH  19  20
ATOM     20  C   UNL     1       1.384   3.080  20.650  0.00  0.00    +0.000 C 
BRANCH  20  21
ATOM     21  C   UNL     1       1.067   4.527  20.258  0.00  0.00    +0.000 C 
BRANCH  21  22
ATOM     22  C   UNL     1       2.123   5.513  20.747  0.00  0.00    +0.000 C 
BRANCH  22  23
ATOM     23  N   UNL     1       2.021   6.781  20.047  0.00  0.00    +0.000 N 
ATOM     24  C   UNL     1       1.593   7.964  20.576  0.00  0.00    +0.000 A 
ATOM     25  C   UNL     1       1.654   8.860  19.533  0.00  0.00    +0.000 A 
ATOM     26  N   UNL     1       2.107   8.248  18.392  0.00  0.00    +0.000 NA
ATOM     27  C   UNL     1       2.319   6.996  18.732  0.00  0.00    +0.000 A 
ENDBRANCH  22  23
ENDBRANCH  21  22
ENDBRANCH  20  21
ENDBRANCH  19  20
ENDBRANCH  18  19
ENDBRANCH  12  18
TORSDOF 7
ENDMDL
MODEL 3
REMARK VINA RESULT:      -7.7      4.422      6.633
REMARK  Name = 
REMARK  7 active torsions:
REMARK  status: ('A' for Active; 'I' for Inactive)
REMARK    1  A    between atoms: C_5  and  C_6
REMARK    2  A    between atoms: N_16  and  C_17
REMARK    3  A    between atoms: C_17  and  C_18
REMARK    4  A    between atoms: C_18  and  C_19
REMARK    5  A    between atoms: C_19  and  C_20
REMARK    6  A    between atoms: C_20  and  C_21
REMARK    7  A    between atoms: C_21  and  N_22
REMARK                            x       y       z     vdW  Elec       q    Type
REMARK                         _______ _______ _______ _____ _____    ______ ____
ROOT
ATOM      1  O   UNL     1       6.762   5.344  20.045  0.00  0.00    +0.000 OA
ATOM      2  C   UNL     1       5.855   4.995  19.293  0.00  0.00    +0.000 A 
ATOM      3  N   UNL     1       4.718   4.472  19.839  0.00  0.00    +0.000 N 
ATOM      4  C   UNL     1       3.605   4.051  19.110  0.00  0.00    +0.000 A 
ATOM      5  C   UNL     1       2.472   3.506  19.737  0.00  0.00    +0.000 A 
ATOM      6  C   UNL     1       1.409   3.053  18.929  0.00  0.00    +0.000 A 
ATOM      7  C   UNL     1       1.453   3.175  17.541  0.00  0.00    +0.000 A 
ATOM      8  C   UNL     1       2.563   3.755  16.936  0.00  0.00    +0.000 A 
ATOM      9  C   UNL     1       3.639   4.183  17.721  0.00  0.00    +0.000 A 
ATOM     10  C   UNL     1       4.828   4.784  17.083  0.00  0.00    +0.000 A 
ATOM     11  O   UNL     1       4.815   4.977  15.869  0.00  0.00    +0.000 OA
ATOM     12  N   UNL     1       5.897   5.103  17.915  0.00  0.00    +0.000 N 
ATOM     13  H   UNL     1       4.739   4.403  20.853  0.00  0.00    +0.000 HD
ENDROOT
BRANCH   5  14
ATOM     14  C   UNL     1       2.321   3.390  21.231  0.00  0.00    +0.000 C 
ATOM     15  F   UNL     1       3.183   2.506  21.811  0.00  0.00    +0.000 F 
ATOM     16  F   UNL     1       2.529   4.576  21.864  0.00  0.00    +0.000 F 
ATOM     17  F   UNL     1       1.074   2.984  21.597  0.00  0.00    +0.000 F 
ENDBRANCH   5  14
BRANCH  12  18
ATOM     18  C   UNL     1       7.084   5.704  17.307  0.00  0.00    +0.000 C 
BRANCH  18  19
ATOM     19  C   UNL     1       7.115   7.237  17.356  0.00  0.00    +0.000 C 
BRANCH  19  20
ATOM     20  C   UNL     1       8.238   7.822  18.215  0.00  0.00    +0.000 C 
BRANCH  20  21
ATOM     21  C   UNL     1       8.273   9.345  18.045  0.00  0.00    +0.000 C 
BRANCH  21  22
ATOM     22  C   UNL     1       9.142  10.033  19.094  0.00  0.00    +0.000 C 
BRANCH  22  23
ATOM     23  N   UNL     1       9.769  11.226  18.555  0.00  0.00    +0.000 N 
ATOM     24  C   UNL     1      11.087  11.566  18.661  0.00  0.00    +0.000 A 
ATOM     25  C   UNL     1      11.193  12.777  18.017  0.00  0.00    +0.000 A 
ATOM     26  N   UNL     1       9.976  13.174  17.525  0.00  0.00    +0.000 NA
ATOM     27  C   UNL     1       9.137  12.221  17.866  0.00  0.00    +0.000 A 
ENDBRANCH  22  23
ENDBRANCH  21  22
ENDBRANCH  20  21
ENDBRANCH  19  20
ENDBRANCH  18  19
ENDBRANCH  12  18
TORSDOF 7
ENDMDL
MODEL 4
REMARK VINA RESULT:      -7.7      4.571      6.814
REMARK  Name = 
REMARK  7 active torsions:
REMARK  status: ('A' for Active; 'I' for Inactive)
REMARK    1  A    between atoms: C_5  and  C_6
REMARK    2  A    between atoms: N_16  and  C_17
REMARK    3  A    between atoms: C_17  and  C_18
REMARK    4  A    between atoms: C_18  and  C_19
REMARK    5  A    between atoms: C_19  and  C_20
REMARK    6  A    between atoms: C_20  and  C_21
REMARK    7  A    between atoms: C_21  and  N_22
REMARK                            x       y       z     vdW  Elec       q    Type
REMARK                         _______ _______ _______ _____ _____    ______ ____
ROOT
ATOM      1  O   UNL     1       7.152   5.270  20.030  0.00  0.00    +0.000 OA
ATOM      2  C   UNL     1       6.253   4.985  19.242  0.00  0.00    +0.000 A 
ATOM      3  N   UNL     1       5.148   4.339  19.717  0.00  0.00    +0.000 N 
ATOM      4  C   UNL     1       4.047   3.970  18.942  0.00  0.00    +0.000 A 
ATOM      5  C   UNL     1       2.949   3.290  19.494  0.00  0.00    +0.000 A 
ATOM      6  C   UNL     1       1.897   2.903  18.638  0.00  0.00    +0.000 A 
ATOM      7  C   UNL     1       1.919   3.218  17.280  0.00  0.00    +0.000 A 
ATOM      8  C   UNL     1       2.993   3.927  16.754  0.00  0.00    +0.000 A 
ATOM      9  C   UNL     1       4.058   4.293  17.585  0.00  0.00    +0.000 A 
ATOM     10  C   UNL     1       5.210   5.032  17.029  0.00  0.00    +0.000 A 
ATOM     11  O   UNL     1       5.173   5.390  15.854  0.00  0.00    +0.000 OA
ATOM     12  N   UNL     1       6.273   5.284  17.892  0.00  0.00    +0.000 N 
ATOM     13  H   UNL     1       5.185   4.132  20.712  0.00  0.00    +0.000 HD
ENDROOT
BRANCH   5  14
ATOM     14  C   UNL     1       2.821   2.963  20.959  0.00  0.00    +0.000 C 
ATOM     15  F   UNL     1       2.735   4.057  21.769  0.00  0.00    +0.000 F 
ATOM     16  F   UNL     1       1.712   2.220  21.226  0.00  0.00    +0.000 F 
ATOM     17  F   UNL     1       3.877   2.241  21.425  0.00  0.00    +0.000 F 
ENDBRANCH   5  14
BRANCH  12  18
ATOM     18  C   UNL     1       7.424   6.019  17.365  0.00  0.00    +0.000 C 
BRANCH  18  19
ATOM     19  C   UNL     1       7.354   7.537  17.568  0.00  0.00    +0.000 C 
BRANCH  19  20
ATOM     20  C   UNL     1       8.416   8.101  18.514  0.00  0.00    +0.000 C 
BRANCH  20  21
ATOM     21  C   UNL     1       8.587   9.602  18.257  0.00  0.00    +0.000 C 
BRANCH  21  22
ATOM     22  C   UNL     1       9.239  10.329  19.430  0.00  0.00    +0.000 C 
BRANCH  22  23
ATOM     23  N   UNL     1      10.320  11.187  18.980  0.00  0.00    +0.000 N 
ATOM     24  C   UNL     1      11.298  11.732  19.761  0.00  0.00    +0.000 A 
ATOM     25  C   UNL     1      12.068  12.475  18.896  0.00  0.00    +0.000 A 
ATOM     26  N   UNL     1      11.580  12.391  17.616  0.00  0.00    +0.000 NA
ATOM     27  C   UNL     1      10.527  11.610  17.698  0.00  0.00    +0.000 A 
ENDBRANCH  22  23
ENDBRANCH  21  22
ENDBRANCH  20  21
ENDBRANCH  19  20
ENDBRANCH  18  19
ENDBRANCH  12  18
TORSDOF 7
ENDMDL
MODEL 5
REMARK VINA RESULT:      -7.6      3.668      6.323
REMARK  Name = 
REMARK  7 active torsions:
REMARK  status: ('A' for Active; 'I' for Inactive)
REMARK    1  A    between atoms: C_5  and  C_6
REMARK    2  A    between atoms: N_16  and  C_17
REMARK    3  A    between atoms: C_17  and  C_18
REMARK    4  A    between atoms: C_18  and  C_19
REMARK    5  A    between atoms: C_19  and  C_20
REMARK    6  A    between atoms: C_20  and  C_21
REMARK    7  A    between atoms: C_21  and  N_22
REMARK                            x       y       z     vdW  Elec       q    Type
REMARK                         _______ _______ _______ _____ _____    ______ ____
ROOT
ATOM      1  O   UNL     1       2.530   4.902  20.986  0.00  0.00    +0.000 OA
ATOM      2  C   UNL     1       2.455   5.891  20.261  0.00  0.00    +0.000 A 
ATOM      3  N   UNL     1       1.691   6.945  20.669  0.00  0.00    +0.000 N 
ATOM      4  C   UNL     1       1.529   8.135  19.957  0.00  0.00    +0.000 A 
ATOM      5  C   UNL     1       0.712   9.175  20.430  0.00  0.00    +0.000 A 
ATOM      6  C   UNL     1       0.555  10.325  19.629  0.00  0.00    +0.000 A 
ATOM      7  C   UNL     1       1.223  10.454  18.412  0.00  0.00    +0.000 A 
ATOM      8  C   UNL     1       2.061   9.433  17.975  0.00  0.00    +0.000 A 
ATOM      9  C   UNL     1       2.205   8.274  18.744  0.00  0.00    +0.000 A 
ATOM     10  C   UNL     1       3.080   7.180  18.277  0.00  0.00    +0.000 A 
ATOM     11  O   UNL     1       3.740   7.345  17.253  0.00  0.00    +0.000 OA
ATOM     12  N   UNL     1       3.106   6.020  19.047  0.00  0.00    +0.000 N 
ATOM     13  H   UNL     1       1.225   6.798  21.561  0.00  0.00    +0.000 HD
ENDROOT
BRANCH   5  14
ATOM     14  C   UNL     1       0.002   9.140  21.758  0.00  0.00    +0.000 C 
ATOM     15  F   UNL     1       0.835   9.018  22.832  0.00  0.00    +0.000 F 
ATOM     16  F   UNL     1      -0.726  10.268  21.983  0.00  0.00    +0.000 F 
ATOM     17  F   UNL     1      -0.875   8.103  21.852  0.00  0.00    +0.000 F 
ENDBRANCH   5  14
BRANCH  12  18
ATOM     18  C   UNL     1       3.969   4.924  18.607  0.00  0.00    +0.000 C 
BRANCH  18  19
ATOM     19  C   UNL     1       3.418   4.116  17.426  0.00  0.00    +0.000 C 
BRANCH  19  20
ATOM     20  C   UNL     1       4.487   3.538  16.497  0.00  0.00    +0.000 C 
BRANCH  20  21
ATOM     21  C   UNL     1       5.165   4.676  15.725  0.00  0.00    +0.000 C 
BRANCH  21  22
ATOM     22  C   UNL     1       6.688   4.608  15.798  0.00  0.00    +0.000 C 
BRANCH  22  23
ATOM     23  N   UNL     1       7.183   5.228  17.013  0.00  0.00    +0.000 N 
ATOM     24  C   UNL     1       7.223   6.567  17.280  0.00  0.00    +0.000 A 
ATOM     25  C   UNL     1       7.787   6.660  18.532  0.00  0.00    +0.000 A 
ATOM     26  N   UNL     1       8.086   5.416  19.025  0.00  0.00    +0.000 NA
ATOM     27  C   UNL     1       7.712   4.574  18.088  0.00  0.00    +0.000 A 
ENDBRANCH  22  23
ENDBRANCH  21  22
ENDBRANCH  20  21
ENDBRANCH  19  20
ENDBRANCH  18  19
ENDBRANCH  12  18
TORSDOF 7
ENDMDL
MODEL 6
REMARK VINA RESULT:      -7.4      3.909      6.610
REMARK  Name = 
REMARK  7 active torsions:
REMARK  status: ('A' for Active; 'I' for Inactive)
REMARK    1  A    between atoms: C_5  and  C_6
REMARK    2  A    between atoms: N_16  and  C_17
REMARK    3  A    between atoms: C_17  and  C_18
REMARK    4  A    between atoms: C_18  and  C_19
REMARK    5  A    between atoms: C_19  and  C_20
REMARK    6  A    between atoms: C_20  and  C_21
REMARK    7  A    between atoms: C_21  and  N_22
REMARK                            x       y       z     vdW  Elec       q    Type
REMARK                         _______ _______ _______ _____ _____    ______ ____
ROOT
ATOM      1  O   UNL     1       2.306   5.752  20.864  0.00  0.00    +0.000 OA
ATOM      2  C   UNL     1       2.025   6.804  20.294  0.00  0.00    +0.000 A 
ATOM      3  N   UNL     1       1.345   7.762  20.989  0.00  0.00    +0.000 N 
ATOM      4  C   UNL     1       0.975   9.007  20.476  0.00  0.00    +0.000 A 
ATOM      5  C   UNL     1       0.259   9.940  21.243  0.00  0.00    +0.000 A 
ATOM      6  C   UNL     1      -0.126  11.154  20.639  0.00  0.00    +0.000 A 
ATOM      7  C   UNL     1       0.225  11.448  19.321  0.00  0.00    +0.000 A 
ATOM      8  C   UNL     1       0.969  10.532  18.586  0.00  0.00    +0.000 A 
ATOM      9  C   UNL     1       1.334   9.310  19.162  0.00  0.00    +0.000 A 
ATOM     10  C   UNL     1       2.109   8.325  18.381  0.00  0.00    +0.000 A 
ATOM     11  O   UNL     1       2.497   8.635  17.256  0.00  0.00    +0.000 OA
ATOM     12  N   UNL     1       2.359   7.097  18.985  0.00  0.00    +0.000 N 
ATOM     13  H   UNL     1       1.112   7.496  21.943  0.00  0.00    +0.000 HD
ENDROOT
BRANCH   5  14
ATOM     14  C   UNL     1      -0.109   9.726  22.688  0.00  0.00    +0.000 C 
ATOM     15  F   UNL     1      -0.973   8.690  22.894  0.00  0.00    +0.000 F 
ATOM     16  F   UNL     1       0.978   9.459  23.463  0.00  0.00    +0.000 F 
ATOM     17  F   UNL     1      -0.705  10.818  23.241  0.00  0.00    +0.000 F 
ENDBRANCH   5  14
BRANCH  12  18
ATOM     18  C   UNL     1       3.130   6.106  18.232  0.00  0.00    +0.000 C 
BRANCH  18  19
ATOM     19  C   UNL     1       2.287   4.987  17.609  0.00  0.00    +0.000 C 
BRANCH  19  20
ATOM     20  C   UNL     1       3.100   3.853  16.982  0.00  0.00    +0.000 C 
BRANCH  20  21
ATOM     21  C   UNL     1       4.067   3.279  18.023  0.00  0.00    +0.000 C 
BRANCH  21  22
ATOM     22  C   UNL     1       3.556   1.985  18.650  0.00  0.00    +0.000 C 
BRANCH  22  23
ATOM     23  N   UNL     1       2.851   2.247  19.892  0.00  0.00    +0.000 N 
ATOM     24  C   UNL     1       1.501   2.386  20.042  0.00  0.00    +0.000 A 
ATOM     25  C   UNL     1       1.319   2.639  21.382  0.00  0.00    +0.000 A 
ATOM     26  N   UNL     1       2.521   2.655  22.042  0.00  0.00    +0.000 NA
ATOM     27  C   UNL     1       3.425   2.417  21.118  0.00  0.00    +0.000 A 
ENDBRANCH  22  23
ENDBRANCH  21  22
ENDBRANCH  20  21
ENDBRANCH  19  20
ENDBRANCH  18  19
ENDBRANCH  12  18
TORSDOF 7
ENDMDL
MODEL 7
REMARK VINA RESULT:      -7.3      3.608      6.188
REMARK  Name = 
REMARK  7 active torsions:
REMARK  status: ('A' for Active; 'I' for Inactive)
REMARK    1  A    between atoms: C_5  and  C_6
REMARK    2  A    between atoms: N_16  and  C_17
REMARK    3  A    between atoms: C_17  and  C_18
REMARK    4  A    between atoms: C_18  and  C_19
REMARK    5  A    between atoms: C_19  and  C_20
REMARK    6  A    between atoms: C_20  and  C_21
REMARK    7  A    between atoms: C_21  and  N_22
REMARK                            x       y       z     vdW  Elec       q    Type
REMARK                         _______ _______ _______ _____ _____    ______ ____
ROOT
ATOM      1  O   UNL     1       2.512   4.743  20.977  0.00  0.00    +0.000 OA
ATOM      2  C   UNL     1       2.473   5.731  20.247  0.00  0.00    +0.000 A 
ATOM      3  N   UNL     1       1.720   6.801  20.635  0.00  0.00    +0.000 N 
ATOM      4  C   UNL     1       1.597   7.992  19.916  0.00  0.00    +0.000 A 
ATOM      5  C   UNL     1       0.789   9.048  20.367  0.00  0.00    +0.000 A 
ATOM      6  C   UNL     1       0.672  10.198  19.559  0.00  0.00    +0.000 A 
ATOM      7  C   UNL     1       1.370  10.310  18.357  0.00  0.00    +0.000 A 
ATOM      8  C   UNL     1       2.199   9.273  17.943  0.00  0.00    +0.000 A 
ATOM      9  C   UNL     1       2.303   8.113  18.718  0.00  0.00    +0.000 A 
ATOM     10  C   UNL     1       3.168   7.001  18.275  0.00  0.00    +0.000 A 
ATOM     11  O   UNL     1       3.853   7.151  17.266  0.00  0.00    +0.000 OA
ATOM     12  N   UNL     1       3.153   5.844  19.048  0.00  0.00    +0.000 N 
ATOM     13  H   UNL     1       1.231   6.666  21.516  0.00  0.00    +0.000 HD
ENDROOT
BRANCH   5  14
ATOM     14  C   UNL     1       0.048   9.031  21.679  0.00  0.00    +0.000 C 
ATOM     15  F   UNL     1      -0.679  10.159  21.922  0.00  0.00    +0.000 F 
ATOM     16  F   UNL     1      -0.836   7.999  21.758  0.00  0.00    +0.000 F 
ATOM     17  F   UNL     1       0.882   8.892  22.746  0.00  0.00    +0.000 F 
ENDBRANCH   5  14
BRANCH  12  18
ATOM     18  C   UNL     1       4.006   4.730  18.632  0.00  0.00    +0.000 C 
BRANCH  18  19
ATOM     19  C   UNL     1       3.454   3.914  17.457  0.00  0.00    +0.000 C 
BRANCH  19  20
ATOM     20  C   UNL     1       4.192   4.128  16.133  0.00  0.00    +0.000 C 
BRANCH  20  21
ATOM     21  C   UNL     1       5.660   3.718  16.291  0.00  0.00    +0.000 C 
BRANCH  21  22
ATOM     22  C   UNL     1       6.626   4.823  15.873  0.00  0.00    +0.000 C 
BRANCH  22  23
ATOM     23  N   UNL     1       7.172   5.508  17.031  0.00  0.00    +0.000 N 
ATOM     24  C   UNL     1       7.570   4.928  18.201  0.00  0.00    +0.000 A 
ATOM     25  C   UNL     1       7.990   5.974  18.989  0.00  0.00    +0.000 A 
ATOM     26  N   UNL     1       7.857   7.167  18.325  0.00  0.00    +0.000 NA
ATOM     27  C   UNL     1       7.361   6.855  17.149  0.00  0.00    +0.000 A 
ENDBRANCH  22  23
ENDBRANCH  21  22
ENDBRANCH  20  21
ENDBRANCH  19  20
ENDBRANCH  18  19
ENDBRANCH  12  18
TORSDOF 7
ENDMDL
MODEL 8
REMARK VINA RESULT:      -7.2      4.089      6.910
REMARK  Name = 
REMARK  7 active torsions:
REMARK  status: ('A' for Active; 'I' for Inactive)
REMARK    1  A    between atoms: C_5  and  C_6
REMARK    2  A    between atoms: N_16  and  C_17
REMARK    3  A    between atoms: C_17  and  C_18
REMARK    4  A    between atoms: C_18  and  C_19
REMARK    5  A    between atoms: C_19  and  C_20
REMARK    6  A    between atoms: C_20  and  C_21
REMARK    7  A    between atoms: C_21  and  N_22
REMARK                            x       y       z     vdW  Elec       q    Type
REMARK                         _______ _______ _______ _____ _____    ______ ____
ROOT
ATOM      1  O   UNL     1       2.343   6.199  20.650  0.00  0.00    +0.000 OA
ATOM      2  C   UNL     1       1.954   7.265  20.180  0.00  0.00    +0.000 A 
ATOM      3  N   UNL     1       1.192   8.085  20.961  0.00  0.00    +0.000 N 
ATOM      4  C   UNL     1       0.696   9.329  20.565  0.00  0.00    +0.000 A 
ATOM      5  C   UNL     1      -0.098  10.114  21.417  0.00  0.00    +0.000 A 
ATOM      6  C   UNL     1      -0.607  11.335  20.927  0.00  0.00    +0.000 A 
ATOM      7  C   UNL     1      -0.302  11.780  19.641  0.00  0.00    +0.000 A 
ATOM      8  C   UNL     1       0.519  11.011  18.822  0.00  0.00    +0.000 A 
ATOM      9  C   UNL     1       1.009   9.784  19.284  0.00  0.00    +0.000 A 
ATOM     10  C   UNL     1       1.867   8.955  18.413  0.00  0.00    +0.000 A 
ATOM     11  O   UNL     1       2.209   9.403  17.320  0.00  0.00    +0.000 OA
ATOM     12  N   UNL     1       2.242   7.708  18.902  0.00  0.00    +0.000 N 
ATOM     13  H   UNL     1       0.997   7.712  21.887  0.00  0.00    +0.000 HD
ENDROOT
BRANCH   5  14
ATOM     14  C   UNL     1      -0.427   9.734  22.837  0.00  0.00    +0.000 C 
ATOM     15  F   UNL     1      -1.211  10.641  23.488  0.00  0.00    +0.000 F 
ATOM     16  F   UNL     1      -1.092   8.550  22.912  0.00  0.00    +0.000 F 
ATOM     17  F   UNL     1       0.686   9.589  23.608  0.00  0.00    +0.000 F 
ENDBRANCH   5  14
BRANCH  12  18
ATOM     18  C   UNL     1       3.097   6.870  18.059  0.00  0.00    +0.000 C 
BRANCH  18  19
ATOM     19  C   UNL     1       2.507   5.494  17.728  0.00  0.00    +0.000 C 
BRANCH  19  20
ATOM     20  C   UNL     1       3.546   4.385  17.542  0.00  0.00    +0.000 C 
BRANCH  20  21
ATOM     21  C   UNL     1       2.838   3.070  17.202  0.00  0.00    +0.000 C 
BRANCH  21  22
ATOM     22  C   UNL     1       3.097   1.979  18.236  0.00  0.00    +0.000 C 
BRANCH  22  23
ATOM     23  N   UNL     1       2.577   2.355  19.538  0.00  0.00    +0.000 N 
ATOM     24  C   UNL     1       3.306   2.544  20.677  0.00  0.00    +0.000 A 
ATOM     25  C   UNL     1       2.378   2.866  21.641  0.00  0.00    +0.000 A 
ATOM     26  N   UNL     1       1.112   2.876  21.113  0.00  0.00    +0.000 NA
ATOM     27  C   UNL     1       1.263   2.564  19.846  0.00  0.00    +0.000 A 
ENDBRANCH  22  23
ENDBRANCH  21  22
ENDBRANCH  20  21
ENDBRANCH  19  20
ENDBRANCH  18  19
ENDBRANCH  12  18
TORSDOF 7
ENDMDL
MODEL 9
REMARK VINA RESULT:      -7.2      4.020      6.279
REMARK  Name = 
REMARK  7 active torsions:
REMARK  status: ('A' for Active; 'I' for Inactive)
REMARK    1  A    between atoms: C_5  and  C_6
REMARK    2  A    between atoms: N_16  and  C_17
REMARK    3  A    between atoms: C_17  and  C_18
REMARK    4  A    between atoms: C_18  and  C_19
REMARK    5  A    between atoms: C_19  and  C_20
REMARK    6  A    between atoms: C_20  and  C_21
REMARK    7  A    between atoms: C_21  and  N_22
REMARK                            x       y       z     vdW  Elec       q    Type
REMARK                         _______ _______ _______ _____ _____    ______ ____
ROOT
ATOM      1  O   UNL     1       6.729   5.286  20.015  0.00  0.00    +0.000 OA
ATOM      2  C   UNL     1       5.898   4.766  19.274  0.00  0.00    +0.000 A 
ATOM      3  N   UNL     1       4.724   4.327  19.814  0.00  0.00    +0.000 N 
ATOM      4  C   UNL     1       3.687   3.733  19.092  0.00  0.00    +0.000 A 
ATOM      5  C   UNL     1       2.510   3.289  19.716  0.00  0.00    +0.000 A 
ATOM      6  C   UNL     1       1.531   2.650  18.928  0.00  0.00    +0.000 A 
ATOM      7  C   UNL     1       1.699   2.494  17.553  0.00  0.00    +0.000 A 
ATOM      8  C   UNL     1       2.852   2.975  16.941  0.00  0.00    +0.000 A 
ATOM      9  C   UNL     1       3.846   3.585  17.713  0.00  0.00    +0.000 A 
ATOM     10  C   UNL     1       5.080   4.083  17.072  0.00  0.00    +0.000 A 
ATOM     11  O   UNL     1       5.174   4.028  15.847  0.00  0.00    +0.000 OA
ATOM     12  N   UNL     1       6.064   4.596  17.911  0.00  0.00    +0.000 N 
ATOM     13  H   UNL     1       4.654   4.463  20.819  0.00  0.00    +0.000 HD
ENDROOT
BRANCH   5  14
ATOM     14  C   UNL     1       2.225   3.470  21.184  0.00  0.00    +0.000 C 
ATOM     15  F   UNL     1       0.943   3.173  21.543  0.00  0.00    +0.000 F 
ATOM     16  F   UNL     1       3.017   2.685  21.964  0.00  0.00    +0.000 F 
ATOM     17  F   UNL     1       2.437   4.749  21.601  0.00  0.00    +0.000 F 
ENDBRANCH   5  14
BRANCH  12  18
ATOM     18  C   UNL     1       7.294   5.100  17.299  0.00  0.00    +0.000 C 
BRANCH  18  19
ATOM     19  C   UNL     1       7.152   6.471  16.627  0.00  0.00    +0.000 C 
BRANCH  19  20
ATOM     20  C   UNL     1       6.851   7.622  17.589  0.00  0.00    +0.000 C 
BRANCH  20  21
ATOM     21  C   UNL     1       8.160   8.306  17.997  0.00  0.00    +0.000 C 
BRANCH  21  22
ATOM     22  C   UNL     1       8.193   9.784  17.621  0.00  0.00    +0.000 C 
BRANCH  22  23
ATOM     23  N   UNL     1       9.171  10.506  18.415  0.00  0.00    +0.000 N 
ATOM     24  C   UNL     1      10.147  11.333  17.939  0.00  0.00    +0.000 A 
ATOM     25  C   UNL     1      10.825  11.760  19.058  0.00  0.00    +0.000 A 
ATOM     26  N   UNL     1      10.282  11.213  20.193  0.00  0.00    +0.000 NA
ATOM     27  C   UNL     1       9.289  10.461  19.774  0.00  0.00    +0.000 A 
ENDBRANCH  22  23
ENDBRANCH  21  22
ENDBRANCH  20  21
ENDBRANCH  19  20
ENDBRANCH  18  19
ENDBRANCH  12  18
TORSDOF 7
ENDMDL
