MODEL 1
REMARK VINA RESULT:      -7.5      0.000      0.000
REMARK  Name = 
REMARK  8 active torsions:
REMARK  status: ('A' for Active; 'I' for Inactive)
REMARK    1  A    between atoms: C_1  and  C_2
REMARK    2  A    between atoms: C_2  and  C_23
REMARK    3  A    between atoms: N_3  and  N_4
REMARK    4  A    between atoms: N_7  and  N_8
REMARK    5  A    between atoms: C_9  and  C_10
REMARK    6  A    between atoms: C_9  and  C_11
REMARK    7  A    between atoms: C_14  and  N_15
REMARK    8  A    between atoms: C_26  and  N_27
REMARK                            x       y       z     vdW  Elec       q    Type
REMARK                         _______ _______ _______ _____ _____    ______ ____
ROOT
ATOM      1  N   UNL     1       1.864   8.155  19.776  0.00  0.00    +0.000 N 
ATOM      2  C   UNL     1       1.173   9.348  19.652  0.00  0.00    +0.000 C 
ATOM      3  N   UNL     1       0.926   9.847  18.482  0.00  0.00    +0.000 NA
ATOM      4  N   UNL     1       0.805   9.905  20.862  0.00  0.00    +0.000 N 
ATOM      5  H   UNL     1       1.385   7.531  20.418  0.00  0.00    +0.000 HD
ATOM      6  H   UNL     1       1.360   9.159  17.855  0.00  0.00    +0.000 HD
ATOM      7  H   UNL     1       1.608   9.922  21.479  0.00  0.00    +0.000 HD
ENDROOT
BRANCH   1  10
ATOM      8  C   UNL     1       2.315   5.306  19.708  0.00  0.00    +0.000 C 
ATOM      9  C   UNL     1       2.819   6.322  18.699  0.00  0.00    +0.000 C 
ATOM     10  N   UNL     1       2.571   7.603  18.735  0.00  0.00    +0.000 NA
BRANCH   9  11
ATOM     11  C   UNL     1       3.703   5.791  17.590  0.00  0.00    +0.000 A 
ATOM     12  C   UNL     1       3.861   4.421  17.355  0.00  0.00    +0.000 A 
ATOM     13  C   UNL     1       4.736   3.959  16.355  0.00  0.00    +0.000 A 
ATOM     14  C   UNL     1       5.476   4.832  15.549  0.00  0.00    +0.000 A 
ATOM     15  C   UNL     1       5.292   6.202  15.792  0.00  0.00    +0.000 A 
ATOM     16  C   UNL     1       4.425   6.677  16.794  0.00  0.00    +0.000 A 
BRANCH  14  17
ATOM     17  N   UNL     1       6.330   4.367  14.574  0.00  0.00    +0.000 N 
ATOM     18  C   UNL     1       6.029   3.203  13.727  0.00  0.00    +0.000 C 
ATOM     19  C   UNL     1       6.051   3.604  12.236  0.00  0.00    +0.000 C 
ATOM     20  N   UNL     1       7.323   4.236  11.825  0.00  0.00    +0.000 NA
ATOM     21  C   UNL     1       7.597   5.390  12.705  0.00  0.00    +0.000 C 
ATOM     22  C   UNL     1       7.584   5.053  14.219  0.00  0.00    +0.000 C 
ATOM     23  H   UNL     1       7.232   4.564  10.865  0.00  0.00    +0.000 HD
ENDBRANCH  14  17
ENDBRANCH   9  11
ENDBRANCH   1  10
BRANCH   4  24
ATOM     24  N   UNL     1      -0.119  10.912  20.975  0.00  0.00    +0.000 NA
ATOM     25  C   UNL     1      -0.863  11.033  22.038  0.00  0.00    +0.000 C 
ATOM     26  C   UNL     1      -0.784  10.145  23.265  0.00  0.00    +0.000 C 
BRANCH  25  27
ATOM     27  C   UNL     1      -1.920  12.116  22.062  0.00  0.00    +0.000 A 
ATOM     28  C   UNL     1      -2.029  13.020  21.002  0.00  0.00    +0.000 A 
ATOM     29  C   UNL     1      -3.032  14.011  21.005  0.00  0.00    +0.000 A 
ATOM     30  C   UNL     1      -3.960  14.137  22.049  0.00  0.00    +0.000 A 
ATOM     31  C   UNL     1      -3.828  13.221  23.100  0.00  0.00    +0.000 A 
ATOM     32  C   UNL     1      -2.834  12.232  23.113  0.00  0.00    +0.000 A 
BRANCH  30  33
ATOM     33  N   UNL     1      -4.946  15.101  22.054  0.00  0.00    +0.000 N 
ATOM     34  C   UNL     1      -6.107  15.069  21.149  0.00  0.00    +0.000 C 
ATOM     35  C   UNL     1      -7.417  15.123  21.963  0.00  0.00    +0.000 C 
ATOM     36  N   UNL     1      -7.488  16.286  22.870  0.00  0.00    +0.000 NA
ATOM     37  C   UNL     1      -6.301  16.290  23.749  0.00  0.00    +0.000 C 
ATOM     38  C   UNL     1      -4.948  16.236  22.990  0.00  0.00    +0.000 C 
ATOM     39  H   UNL     1      -8.324  16.205  23.446  0.00  0.00    +0.000 HD
ENDBRANCH  30  33
ENDBRANCH  25  27
ENDBRANCH   4  24
TORSDOF 6
ENDMDL
MODEL 2
REMARK VINA RESULT:      -7.4      0.643     14.001
REMARK  Name = 
REMARK  8 active torsions:
REMARK  status: ('A' for Active; 'I' for Inactive)
REMARK    1  A    between atoms: C_1  and  C_2
REMARK    2  A    between atoms: C_2  and  C_23
REMARK    3  A    between atoms: N_3  and  N_4
REMARK    4  A    between atoms: N_7  and  N_8
REMARK    5  A    between atoms: C_9  and  C_10
REMARK    6  A    between atoms: C_9  and  C_11
REMARK    7  A    between atoms: C_14  and  N_15
REMARK    8  A    between atoms: C_26  and  N_27
REMARK                            x       y       z     vdW  Elec       q    Type
REMARK                         _______ _______ _______ _____ _____    ______ ____
ROOT
ATOM      1  N   UNL     1       0.680   9.867  20.794  0.00  0.00    +0.000 N 
ATOM      2  C   UNL     1       1.111   9.327  19.595  0.00  0.00    +0.000 C 
ATOM      3  N   UNL     1       0.853   9.924  18.474  0.00  0.00    +0.000 NA
ATOM      4  N   UNL     1       1.805   8.141  19.737  0.00  0.00    +0.000 N 
ATOM      5  H   UNL     1       1.437   9.882  21.470  0.00  0.00    +0.000 HD
ATOM      6  H   UNL     1       0.322  10.748  18.782  0.00  0.00    +0.000 HD
ATOM      7  H   UNL     1       1.281   7.518  20.339  0.00  0.00    +0.000 HD
ENDROOT
BRANCH   1  10
ATOM      8  C   UNL     1      -0.794  10.284  23.239  0.00  0.00    +0.000 C 
ATOM      9  C   UNL     1      -0.974  11.045  21.938  0.00  0.00    +0.000 C 
ATOM     10  N   UNL     1      -0.270  10.859  20.856  0.00  0.00    +0.000 NA
BRANCH   9  11
ATOM     11  C   UNL     1      -2.085  12.074  21.906  0.00  0.00    +0.000 A 
ATOM     12  C   UNL     1      -2.383  12.812  20.756  0.00  0.00    +0.000 A 
ATOM     13  C   UNL     1      -3.383  13.801  20.775  0.00  0.00    +0.000 A 
ATOM     14  C   UNL     1      -4.127  14.089  21.926  0.00  0.00    +0.000 A 
ATOM     15  C   UNL     1      -3.822  13.327  23.064  0.00  0.00    +0.000 A 
ATOM     16  C   UNL     1      -2.819  12.339  23.060  0.00  0.00    +0.000 A 
BRANCH  14  17
ATOM     17  N   UNL     1      -5.103  15.061  21.932  0.00  0.00    +0.000 N 
ATOM     18  C   UNL     1      -4.979  16.331  21.200  0.00  0.00    +0.000 C 
ATOM     19  C   UNL     1      -6.145  16.490  20.201  0.00  0.00    +0.000 C 
ATOM     20  N   UNL     1      -7.474  16.380  20.838  0.00  0.00    +0.000 NA
ATOM     21  C   UNL     1      -7.555  15.100  21.572  0.00  0.00    +0.000 C 
ATOM     22  C   UNL     1      -6.406  14.878  22.590  0.00  0.00    +0.000 C 
ATOM     23  H   UNL     1      -8.189  16.393  20.113  0.00  0.00    +0.000 HD
ENDBRANCH  14  17
ENDBRANCH   9  11
ENDBRANCH   1  10
BRANCH   4  24
ATOM     24  N   UNL     1       2.561   7.588  18.735  0.00  0.00    +0.000 NA
ATOM     25  C   UNL     1       2.921   6.336  18.769  0.00  0.00    +0.000 C 
ATOM     26  C   UNL     1       2.532   5.345  19.849  0.00  0.00    +0.000 C 
BRANCH  25  27
ATOM     27  C   UNL     1       3.825   5.814  17.673  0.00  0.00    +0.000 A 
ATOM     28  C   UNL     1       3.912   4.442  17.423  0.00  0.00    +0.000 A 
ATOM     29  C   UNL     1       4.729   3.953  16.384  0.00  0.00    +0.000 A 
ATOM     30  C   UNL     1       5.480   4.802  15.557  0.00  0.00    +0.000 A 
ATOM     31  C   UNL     1       5.378   6.171  15.830  0.00  0.00    +0.000 A 
ATOM     32  C   UNL     1       4.572   6.673  16.862  0.00  0.00    +0.000 A 
BRANCH  30  33
ATOM     33  N   UNL     1       6.277   4.328  14.536  0.00  0.00    +0.000 N 
ATOM     34  C   UNL     1       5.893   3.196  13.675  0.00  0.00    +0.000 C 
ATOM     35  C   UNL     1       5.933   3.618  12.191  0.00  0.00    +0.000 C 
ATOM     36  N   UNL     1       7.239   4.172  11.782  0.00  0.00    +0.000 NA
ATOM     37  C   UNL     1       7.593   5.293  12.676  0.00  0.00    +0.000 C 
ATOM     38  C   UNL     1       7.571   4.934  14.186  0.00  0.00    +0.000 C 
ATOM     39  H   UNL     1       7.165   4.523  10.829  0.00  0.00    +0.000 HD
ENDBRANCH  30  33
ENDBRANCH  25  27
ENDBRANCH   4  24
TORSDOF 6
ENDMDL
MODEL 3
REMARK VINA RESULT:      -7.3      0.472     14.083
REMARK  Name = 
REMARK  8 active torsions:
REMARK  status: ('A' for Active; 'I' for Inactive)
REMARK    1  A    between atoms: C_1  and  C_2
REMARK    2  A    between atoms: C_2  and  C_23
REMARK    3  A    between atoms: N_3  and  N_4
REMARK    4  A    between atoms: N_7  and  N_8
REMARK    5  A    between atoms: C_9  and  C_10
REMARK    6  A    between atoms: C_9  and  C_11
REMARK    7  A    between atoms: C_14  and  N_15
REMARK    8  A    between atoms: C_26  and  N_27
REMARK                            x       y       z     vdW  Elec       q    Type
REMARK                         _______ _______ _______ _____ _____    ______ ____
ROOT
ATOM      1  N   UNL     1       0.856   9.518  21.020  0.00  0.00    +0.000 N 
ATOM      2  C   UNL     1       1.323   9.058  19.801  0.00  0.00    +0.000 C 
ATOM      3  N   UNL     1       1.107   9.734  18.716  0.00  0.00    +0.000 NA
ATOM      4  N   UNL     1       2.003   7.859  19.883  0.00  0.00    +0.000 N 
ATOM      5  H   UNL     1       1.590   9.479  21.720  0.00  0.00    +0.000 HD
ATOM      6  H   UNL     1       0.572  10.539  19.063  0.00  0.00    +0.000 HD
ATOM      7  H   UNL     1       1.455   7.200  20.423  0.00  0.00    +0.000 HD
ENDROOT
BRANCH   1  10
ATOM      8  C   UNL     1      -0.468   9.985  23.541  0.00  0.00    +0.000 C 
ATOM      9  C   UNL     1      -0.726  10.720  22.239  0.00  0.00    +0.000 C 
ATOM     10  N   UNL     1      -0.088  10.512  21.119  0.00  0.00    +0.000 NA
BRANCH   9  11
ATOM     11  C   UNL     1      -1.837  11.749  22.253  0.00  0.00    +0.000 A 
ATOM     12  C   UNL     1      -2.697  11.901  23.345  0.00  0.00    +0.000 A 
ATOM     13  C   UNL     1      -3.756  12.825  23.305  0.00  0.00    +0.000 A 
ATOM     14  C   UNL     1      -3.996  13.637  22.189  0.00  0.00    +0.000 A 
ATOM     15  C   UNL     1      -3.112  13.479  21.110  0.00  0.00    +0.000 A 
ATOM     16  C   UNL     1      -2.053  12.553  21.136  0.00  0.00    +0.000 A 
BRANCH  14  17
ATOM     17  N   UNL     1      -5.037  14.538  22.161  0.00  0.00    +0.000 N 
ATOM     18  C   UNL     1      -6.429  14.153  21.881  0.00  0.00    +0.000 C 
ATOM     19  C   UNL     1      -7.344  14.558  23.056  0.00  0.00    +0.000 C 
ATOM     20  N   UNL     1      -7.256  15.995  23.390  0.00  0.00    +0.000 NA
ATOM     21  C   UNL     1      -5.845  16.347  23.652  0.00  0.00    +0.000 C 
ATOM     22  C   UNL     1      -4.871  15.959  22.508  0.00  0.00    +0.000 C 
ATOM     23  H   UNL     1      -7.803  16.172  24.231  0.00  0.00    +0.000 HD
ENDBRANCH  14  17
ENDBRANCH   9  11
ENDBRANCH   1  10
BRANCH   4  24
ATOM     24  N   UNL     1       2.789   7.370  18.871  0.00  0.00    +0.000 NA
ATOM     25  C   UNL     1       2.868   6.092  18.630  0.00  0.00    +0.000 C 
ATOM     26  C   UNL     1       2.101   5.015  19.373  0.00  0.00    +0.000 C 
BRANCH  25  27
ATOM     27  C   UNL     1       3.819   5.616  17.553  0.00  0.00    +0.000 A 
ATOM     28  C   UNL     1       4.002   4.249  17.325  0.00  0.00    +0.000 A 
ATOM     29  C   UNL     1       4.863   3.802  16.303  0.00  0.00    +0.000 A 
ATOM     30  C   UNL     1       5.562   4.687  15.470  0.00  0.00    +0.000 A 
ATOM     31  C   UNL     1       5.364   6.050  15.720  0.00  0.00    +0.000 A 
ATOM     32  C   UNL     1       4.514   6.511  16.735  0.00  0.00    +0.000 A 
BRANCH  30  33
ATOM     33  N   UNL     1       6.402   4.253  14.465  0.00  0.00    +0.000 N 
ATOM     34  C   UNL     1       6.080   3.119  13.582  0.00  0.00    +0.000 C 
ATOM     35  C   UNL     1       6.143   3.560  12.104  0.00  0.00    +0.000 C 
ATOM     36  N   UNL     1       7.440   4.164  11.736  0.00  0.00    +0.000 NA
ATOM     37  C   UNL     1       7.732   5.286  12.652  0.00  0.00    +0.000 C 
ATOM     38  C   UNL     1       7.683   4.907  14.156  0.00  0.00    +0.000 C 
ATOM     39  H   UNL     1       7.378   4.524  10.785  0.00  0.00    +0.000 HD
ENDBRANCH  30  33
ENDBRANCH  25  27
ENDBRANCH   4  24
TORSDOF 6
ENDMDL
MODEL 4
REMARK VINA RESULT:      -7.3      0.698     14.077
REMARK  Name = 
REMARK  8 active torsions:
REMARK  status: ('A' for Active; 'I' for Inactive)
REMARK    1  A    between atoms: C_1  and  C_2
REMARK    2  A    between atoms: C_2  and  C_23
REMARK    3  A    between atoms: N_3  and  N_4
REMARK    4  A    between atoms: N_7  and  N_8
REMARK    5  A    between atoms: C_9  and  C_10
REMARK    6  A    between atoms: C_9  and  C_11
REMARK    7  A    between atoms: C_14  and  N_15
REMARK    8  A    between atoms: C_26  and  N_27
REMARK                            x       y       z     vdW  Elec       q    Type
REMARK                         _______ _______ _______ _____ _____    ______ ____
ROOT
ATOM      1  N   UNL     1       0.949   9.683  21.079  0.00  0.00    +0.000 N 
ATOM      2  C   UNL     1       1.360   9.250  19.831  0.00  0.00    +0.000 C 
ATOM      3  N   UNL     1       1.296  10.040  18.806  0.00  0.00    +0.000 NA
ATOM      4  N   UNL     1       1.816   7.946  19.817  0.00  0.00    +0.000 N 
ATOM      5  H   UNL     1       1.646   9.455  21.782  0.00  0.00    +0.000 HD
ATOM      6  H   UNL     1       0.903  10.896  19.215  0.00  0.00    +0.000 HD
ATOM      7  H   UNL     1       1.147   7.353  20.292  0.00  0.00    +0.000 HD
ENDROOT
BRANCH   1  10
ATOM      8  C   UNL     1      -0.766   9.917  23.388  0.00  0.00    +0.000 C 
ATOM      9  C   UNL     1      -0.617  10.933  22.270  0.00  0.00    +0.000 C 
ATOM     10  N   UNL     1       0.193  10.817  21.253  0.00  0.00    +0.000 NA
BRANCH   9  11
ATOM     11  C   UNL     1      -1.510  12.153  22.343  0.00  0.00    +0.000 A 
ATOM     12  C   UNL     1      -1.139  13.382  21.787  0.00  0.00    +0.000 A 
ATOM     13  C   UNL     1      -1.966  14.512  21.923  0.00  0.00    +0.000 A 
ATOM     14  C   UNL     1      -3.190  14.465  22.603  0.00  0.00    +0.000 A 
ATOM     15  C   UNL     1      -3.549  13.219  23.140  0.00  0.00    +0.000 A 
ATOM     16  C   UNL     1      -2.728  12.083  23.017  0.00  0.00    +0.000 A 
BRANCH  14  17
ATOM     17  N   UNL     1      -3.990  15.579  22.730  0.00  0.00    +0.000 N 
ATOM     18  C   UNL     1      -4.509  16.333  21.579  0.00  0.00    +0.000 C 
ATOM     19  C   UNL     1      -6.052  16.375  21.618  0.00  0.00    +0.000 C 
ATOM     20  N   UNL     1      -6.585  16.918  22.885  0.00  0.00    +0.000 NA
ATOM     21  C   UNL     1      -6.032  16.145  24.015  0.00  0.00    +0.000 C 
ATOM     22  C   UNL     1      -4.483  16.061  24.030  0.00  0.00    +0.000 C 
ATOM     23  H   UNL     1      -7.599  16.824  22.883  0.00  0.00    +0.000 HD
ENDBRANCH  14  17
ENDBRANCH   9  11
ENDBRANCH   1  10
BRANCH   4  24
ATOM     24  N   UNL     1       2.531   7.410  18.776  0.00  0.00    +0.000 NA
ATOM     25  C   UNL     1       3.034   6.210  18.844  0.00  0.00    +0.000 C 
ATOM     26  C   UNL     1       2.870   5.261  20.016  0.00  0.00    +0.000 C 
BRANCH  25  27
ATOM     27  C   UNL     1       3.882   5.714  17.693  0.00  0.00    +0.000 A 
ATOM     28  C   UNL     1       4.527   6.622  16.848  0.00  0.00    +0.000 A 
ATOM     29  C   UNL     1       5.342   6.164  15.793  0.00  0.00    +0.000 A 
ATOM     30  C   UNL     1       5.551   4.800  15.543  0.00  0.00    +0.000 A 
ATOM     31  C   UNL     1       4.891   3.912  16.401  0.00  0.00    +0.000 A 
ATOM     32  C   UNL     1       4.075   4.351  17.453  0.00  0.00    +0.000 A 
BRANCH  30  33
ATOM     33  N   UNL     1       6.351   4.348  14.515  0.00  0.00    +0.000 N 
ATOM     34  C   UNL     1       6.024   3.165  13.702  0.00  0.00    +0.000 C 
ATOM     35  C   UNL     1       5.995   3.539  12.205  0.00  0.00    +0.000 C 
ATOM     36  N   UNL     1       7.248   4.167  11.742  0.00  0.00    +0.000 NA
ATOM     37  C   UNL     1       7.549   5.338  12.590  0.00  0.00    +0.000 C 
ATOM     38  C   UNL     1       7.591   5.028  14.110  0.00  0.00    +0.000 C 
ATOM     39  H   UNL     1       7.125   4.480  10.780  0.00  0.00    +0.000 HD
ENDBRANCH  30  33
ENDBRANCH  25  27
ENDBRANCH   4  24
TORSDOF 6
ENDMDL
MODEL 5
REMARK VINA RESULT:      -7.3      1.031     13.980
REMARK  Name = 
REMARK  8 active torsions:
REMARK  status: ('A' for Active; 'I' for Inactive)
REMARK    1  A    between atoms: C_1  and  C_2
REMARK    2  A    between atoms: C_2  and  C_23
REMARK    3  A    between atoms: N_3  and  N_4
REMARK    4  A    between atoms: N_7  and  N_8
REMARK    5  A    between atoms: C_9  and  C_10
REMARK    6  A    between atoms: C_9  and  C_11
REMARK    7  A    between atoms: C_14  and  N_15
REMARK    8  A    between atoms: C_26  and  N_27
REMARK                            x       y       z     vdW  Elec       q    Type
REMARK                         _______ _______ _______ _____ _____    ______ ____
ROOT
ATOM      1  N   UNL     1       0.840   9.019  21.482  0.00  0.00    +0.000 N 
ATOM      2  C   UNL     1       1.239   8.507  20.259  0.00  0.00    +0.000 C 
ATOM      3  N   UNL     1       0.704   8.936  19.160  0.00  0.00    +0.000 NA
ATOM      4  N   UNL     1       2.218   7.537  20.356  0.00  0.00    +0.000 N 
ATOM      5  H   UNL     1       1.647   9.267  22.044  0.00  0.00    +0.000 HD
ATOM      6  H   UNL     1       0.028   9.630  19.502  0.00  0.00    +0.000 HD
ATOM      7  H   UNL     1       1.944   6.855  21.053  0.00  0.00    +0.000 HD
ENDROOT
BRANCH   1  10
ATOM      8  C   UNL     1       0.890  11.862  20.992  0.00  0.00    +0.000 C 
ATOM      9  C   UNL     1      -0.307  11.048  21.449  0.00  0.00    +0.000 C 
ATOM     10  N   UNL     1      -0.311   9.755  21.631  0.00  0.00    +0.000 NA
BRANCH   9  11
ATOM     11  C   UNL     1      -1.576  11.820  21.743  0.00  0.00    +0.000 A 
ATOM     12  C   UNL     1      -2.138  11.868  23.023  0.00  0.00    +0.000 A 
ATOM     13  C   UNL     1      -3.350  12.545  23.251  0.00  0.00    +0.000 A 
ATOM     14  C   UNL     1      -4.041  13.205  22.227  0.00  0.00    +0.000 A 
ATOM     15  C   UNL     1      -3.452  13.156  20.954  0.00  0.00    +0.000 A 
ATOM     16  C   UNL     1      -2.244  12.476  20.711  0.00  0.00    +0.000 A 
BRANCH  14  17
ATOM     17  N   UNL     1      -5.227  13.864  22.464  0.00  0.00    +0.000 N 
ATOM     18  C   UNL     1      -6.504  13.169  22.693  0.00  0.00    +0.000 C 
ATOM     19  C   UNL     1      -7.093  13.568  24.063  0.00  0.00    +0.000 C 
ATOM     20  N   UNL     1      -7.255  15.028  24.221  0.00  0.00    +0.000 NA
ATOM     21  C   UNL     1      -5.959  15.691  23.971  0.00  0.00    +0.000 C 
ATOM     22  C   UNL     1      -5.311  15.326  22.609  0.00  0.00    +0.000 C 
ATOM     23  H   UNL     1      -7.551  15.225  25.176  0.00  0.00    +0.000 HD
ENDBRANCH  14  17
ENDBRANCH   9  11
ENDBRANCH   1  10
BRANCH   4  24
ATOM     24  N   UNL     1       2.958   7.107  19.284  0.00  0.00    +0.000 NA
ATOM     25  C   UNL     1       2.803   5.912  18.789  0.00  0.00    +0.000 C 
ATOM     26  C   UNL     1       1.794   4.890  19.276  0.00  0.00    +0.000 C 
BRANCH  25  27
ATOM     27  C   UNL     1       3.711   5.473  17.660  0.00  0.00    +0.000 A 
ATOM     28  C   UNL     1       4.399   6.421  16.898  0.00  0.00    +0.000 A 
ATOM     29  C   UNL     1       5.269   6.015  15.866  0.00  0.00    +0.000 A 
ATOM     30  C   UNL     1       5.492   4.665  15.558  0.00  0.00    +0.000 A 
ATOM     31  C   UNL     1       4.788   3.736  16.334  0.00  0.00    +0.000 A 
ATOM     32  C   UNL     1       3.917   4.123  17.362  0.00  0.00    +0.000 A 
BRANCH  30  33
ATOM     33  N   UNL     1       6.346   4.264  14.553  0.00  0.00    +0.000 N 
ATOM     34  C   UNL     1       6.062   3.127  13.662  0.00  0.00    +0.000 C 
ATOM     35  C   UNL     1       6.114   3.579  12.187  0.00  0.00    +0.000 C 
ATOM     36  N   UNL     1       7.392   4.225  11.826  0.00  0.00    +0.000 NA
ATOM     37  C   UNL     1       7.648   5.348  12.750  0.00  0.00    +0.000 C 
ATOM     38  C   UNL     1       7.607   4.959  14.251  0.00  0.00    +0.000 C 
ATOM     39  H   UNL     1       7.322   4.589  10.877  0.00  0.00    +0.000 HD
ENDBRANCH  30  33
ENDBRANCH  25  27
ENDBRANCH   4  24
TORSDOF 6
ENDMDL
MODEL 6
REMARK VINA RESULT:      -7.2      0.522      1.319
REMARK  Name = 
REMARK  8 active torsions:
REMARK  status: ('A' for Active; 'I' for Inactive)
REMARK    1  A    between atoms: C_1  and  C_2
REMARK    2  A    between atoms: C_2  and  C_23
REMARK    3  A    between atoms: N_3  and  N_4
REMARK    4  A    between atoms: N_7  and  N_8
REMARK    5  A    between atoms: C_9  and  C_10
REMARK    6  A    between atoms: C_9  and  C_11
REMARK    7  A    between atoms: C_14  and  N_15
REMARK    8  A    between atoms: C_26  and  N_27
REMARK                            x       y       z     vdW  Elec       q    Type
REMARK                         _______ _______ _______ _____ _____    ______ ____
ROOT
ATOM      1  N   UNL     1       1.831   8.165  19.779  0.00  0.00    +0.000 N 
ATOM      2  C   UNL     1       1.132   9.347  19.609  0.00  0.00    +0.000 C 
ATOM      3  N   UNL     1       0.921   9.822  18.422  0.00  0.00    +0.000 NA
ATOM      4  N   UNL     1       0.715   9.921  20.794  0.00  0.00    +0.000 N 
ATOM      5  H   UNL     1       1.336   7.547  20.414  0.00  0.00    +0.000 HD
ATOM      6  H   UNL     1       1.385   9.129  17.823  0.00  0.00    +0.000 HD
ATOM      7  H   UNL     1       1.495   9.958  21.440  0.00  0.00    +0.000 HD
ENDROOT
BRANCH   1  10
ATOM      8  C   UNL     1       2.625   5.397  19.965  0.00  0.00    +0.000 C 
ATOM      9  C   UNL     1       2.983   6.363  18.850  0.00  0.00    +0.000 C 
ATOM     10  N   UNL     1       2.581   7.603  18.774  0.00  0.00    +0.000 NA
BRANCH   9  11
ATOM     11  C   UNL     1       3.905   5.837  17.771  0.00  0.00    +0.000 A 
ATOM     12  C   UNL     1       4.833   6.656  17.120  0.00  0.00    +0.000 A 
ATOM     13  C   UNL     1       5.635   6.151  16.081  0.00  0.00    +0.000 A 
ATOM     14  C   UNL     1       5.553   4.819  15.655  0.00  0.00    +0.000 A 
ATOM     15  C   UNL     1       4.625   4.011  16.331  0.00  0.00    +0.000 A 
ATOM     16  C   UNL     1       3.813   4.507  17.368  0.00  0.00    +0.000 A 
BRANCH  14  17
ATOM     17  N   UNL     1       6.343   4.337  14.635  0.00  0.00    +0.000 N 
ATOM     18  C   UNL     1       5.958   3.199  13.786  0.00  0.00    +0.000 C 
ATOM     19  C   UNL     1       5.927   3.623  12.302  0.00  0.00    +0.000 C 
ATOM     20  N   UNL     1       7.202   4.211  11.841  0.00  0.00    +0.000 NA
ATOM     21  C   UNL     1       7.562   5.340  12.724  0.00  0.00    +0.000 C 
ATOM     22  C   UNL     1       7.604   4.980  14.232  0.00  0.00    +0.000 C 
ATOM     23  H   UNL     1       7.080   4.558  10.892  0.00  0.00    +0.000 HD
ENDBRANCH  14  17
ENDBRANCH   9  11
ENDBRANCH   1  10
BRANCH   4  24
ATOM     24  N   UNL     1      -0.224  10.919  20.857  0.00  0.00    +0.000 NA
ATOM     25  C   UNL     1      -0.946  11.105  21.926  0.00  0.00    +0.000 C 
ATOM     26  C   UNL     1      -0.823  10.309  23.211  0.00  0.00    +0.000 C 
BRANCH  25  27
ATOM     27  C   UNL     1      -2.021  12.170  21.896  0.00  0.00    +0.000 A 
ATOM     28  C   UNL     1      -2.893  12.324  22.977  0.00  0.00    +0.000 A 
ATOM     29  C   UNL     1      -3.876  13.335  22.967  0.00  0.00    +0.000 A 
ATOM     30  C   UNL     1      -4.024  14.227  21.895  0.00  0.00    +0.000 A 
ATOM     31  C   UNL     1      -3.141  14.049  20.824  0.00  0.00    +0.000 A 
ATOM     32  C   UNL     1      -2.160  13.047  20.817  0.00  0.00    +0.000 A 
BRANCH  30  33
ATOM     33  N   UNL     1      -4.981  15.220  21.883  0.00  0.00    +0.000 N 
ATOM     34  C   UNL     1      -6.384  14.989  22.266  0.00  0.00    +0.000 C 
ATOM     35  C   UNL     1      -6.796  15.961  23.391  0.00  0.00    +0.000 C 
ATOM     36  N   UNL     1      -6.571  17.378  23.042  0.00  0.00    +0.000 NA
ATOM     37  C   UNL     1      -5.159  17.565  22.651  0.00  0.00    +0.000 C 
ATOM     38  C   UNL     1      -4.681  16.614  21.522  0.00  0.00    +0.000 C 
ATOM     39  H   UNL     1      -6.765  17.955  23.859  0.00  0.00    +0.000 HD
ENDBRANCH  30  33
ENDBRANCH  25  27
ENDBRANCH   4  24
TORSDOF 6
ENDMDL
MODEL 7
REMARK VINA RESULT:      -7.2      0.684      1.410
REMARK  Name = 
REMARK  8 active torsions:
REMARK  status: ('A' for Active; 'I' for Inactive)
REMARK    1  A    between atoms: C_1  and  C_2
REMARK    2  A    between atoms: C_2  and  C_23
REMARK    3  A    between atoms: N_3  and  N_4
REMARK    4  A    between atoms: N_7  and  N_8
REMARK    5  A    between atoms: C_9  and  C_10
REMARK    6  A    between atoms: C_9  and  C_11
REMARK    7  A    between atoms: C_14  and  N_15
REMARK    8  A    between atoms: C_26  and  N_27
REMARK                            x       y       z     vdW  Elec       q    Type
REMARK                         _______ _______ _______ _____ _____    ______ ____
ROOT
ATOM      1  N   UNL     1       1.845   8.181  19.766  0.00  0.00    +0.000 N 
ATOM      2  C   UNL     1       1.161   9.377  19.629  0.00  0.00    +0.000 C 
ATOM      3  N   UNL     1       0.893   9.851  18.454  0.00  0.00    +0.000 NA
ATOM      4  N   UNL     1       0.823   9.964  20.833  0.00  0.00    +0.000 N 
ATOM      5  H   UNL     1       1.374   7.576  20.432  0.00  0.00    +0.000 HD
ATOM      6  H   UNL     1       1.309   9.146  17.833  0.00  0.00    +0.000 HD
ATOM      7  H   UNL     1       1.639   9.988  21.433  0.00  0.00    +0.000 HD
ENDROOT
BRANCH   1  10
ATOM      8  C   UNL     1       2.762   5.456  20.002  0.00  0.00    +0.000 C 
ATOM      9  C   UNL     1       2.981   6.380  18.819  0.00  0.00    +0.000 C 
ATOM     10  N   UNL     1       2.526   7.600  18.723  0.00  0.00    +0.000 NA
BRANCH   9  11
ATOM     11  C   UNL     1       3.826   5.837  17.685  0.00  0.00    +0.000 A 
ATOM     12  C   UNL     1       3.770   4.496  17.292  0.00  0.00    +0.000 A 
ATOM     13  C   UNL     1       4.609   4.009  16.273  0.00  0.00    +0.000 A 
ATOM     14  C   UNL     1       5.525   4.831  15.604  0.00  0.00    +0.000 A 
ATOM     15  C   UNL     1       5.554   6.176  16.005  0.00  0.00    +0.000 A 
ATOM     16  C   UNL     1       4.724   6.674  17.026  0.00  0.00    +0.000 A 
BRANCH  14  17
ATOM     17  N   UNL     1       6.343   4.342  14.610  0.00  0.00    +0.000 N 
ATOM     18  C   UNL     1       5.993   3.180  13.777  0.00  0.00    +0.000 C 
ATOM     19  C   UNL     1       5.985   3.574  12.284  0.00  0.00    +0.000 C 
ATOM     20  N   UNL     1       7.259   4.175  11.837  0.00  0.00    +0.000 NA
ATOM     21  C   UNL     1       7.582   5.327  12.702  0.00  0.00    +0.000 C 
ATOM     22  C   UNL     1       7.601   4.998  14.218  0.00  0.00    +0.000 C 
ATOM     23  H   UNL     1       7.150   4.500  10.878  0.00  0.00    +0.000 HD
ENDBRANCH  14  17
ENDBRANCH   9  11
ENDBRANCH   1  10
BRANCH   4  24
ATOM     24  N   UNL     1      -0.090  10.982  20.943  0.00  0.00    +0.000 NA
ATOM     25  C   UNL     1      -0.860  11.092  21.988  0.00  0.00    +0.000 C 
ATOM     26  C   UNL     1      -0.825  10.179  23.199  0.00  0.00    +0.000 C 
BRANCH  25  27
ATOM     27  C   UNL     1      -1.904  12.189  22.006  0.00  0.00    +0.000 A 
ATOM     28  C   UNL     1      -2.517  12.561  23.205  0.00  0.00    +0.000 A 
ATOM     29  C   UNL     1      -3.466  13.603  23.231  0.00  0.00    +0.000 A 
ATOM     30  C   UNL     1      -3.834  14.312  22.079  0.00  0.00    +0.000 A 
ATOM     31  C   UNL     1      -3.208  13.918  20.891  0.00  0.00    +0.000 A 
ATOM     32  C   UNL     1      -2.264  12.882  20.848  0.00  0.00    +0.000 A 
BRANCH  30  33
ATOM     33  N   UNL     1      -4.759  15.335  22.101  0.00  0.00    +0.000 N 
ATOM     34  C   UNL     1      -4.495  16.644  22.721  0.00  0.00    +0.000 C 
ATOM     35  C   UNL     1      -4.725  17.775  21.696  0.00  0.00    +0.000 C 
ATOM     36  N   UNL     1      -6.071  17.740  21.089  0.00  0.00    +0.000 NA
ATOM     37  C   UNL     1      -6.302  16.410  20.492  0.00  0.00    +0.000 C 
ATOM     38  C   UNL     1      -6.085  15.227  21.473  0.00  0.00    +0.000 C 
ATOM     39  H   UNL     1      -6.120  18.444  20.354  0.00  0.00    +0.000 HD
ENDBRANCH  30  33
ENDBRANCH  25  27
ENDBRANCH   4  24
TORSDOF 6
ENDMDL
MODEL 8
REMARK VINA RESULT:      -7.1      0.742      1.354
REMARK  Name = 
REMARK  8 active torsions:
REMARK  status: ('A' for Active; 'I' for Inactive)
REMARK    1  A    between atoms: C_1  and  C_2
REMARK    2  A    between atoms: C_2  and  C_23
REMARK    3  A    between atoms: N_3  and  N_4
REMARK    4  A    between atoms: N_7  and  N_8
REMARK    5  A    between atoms: C_9  and  C_10
REMARK    6  A    between atoms: C_9  and  C_11
REMARK    7  A    between atoms: C_14  and  N_15
REMARK    8  A    between atoms: C_26  and  N_27
REMARK                            x       y       z     vdW  Elec       q    Type
REMARK                         _______ _______ _______ _____ _____    ______ ____
ROOT
ATOM      1  N   UNL     1       1.814   7.902  19.704  0.00  0.00    +0.000 N 
ATOM      2  C   UNL     1       1.193   9.135  19.603  0.00  0.00    +0.000 C 
ATOM      3  N   UNL     1       1.055   9.710  18.450  0.00  0.00    +0.000 NA
ATOM      4  N   UNL     1       0.768   9.644  20.815  0.00  0.00    +0.000 N 
ATOM      5  H   UNL     1       1.260   7.271  20.274  0.00  0.00    +0.000 HD
ATOM      6  H   UNL     1       1.499   9.036  17.815  0.00  0.00    +0.000 HD
ATOM      7  H   UNL     1       1.525   9.584  21.486  0.00  0.00    +0.000 HD
ENDROOT
BRANCH   1  10
ATOM      8  C   UNL     1       3.019   5.300  20.022  0.00  0.00    +0.000 C 
ATOM      9  C   UNL     1       3.150   6.212  18.816  0.00  0.00    +0.000 C 
ATOM     10  N   UNL     1       2.566   7.371  18.684  0.00  0.00    +0.000 NA
BRANCH   9  11
ATOM     11  C   UNL     1       4.061   5.734  17.704  0.00  0.00    +0.000 A 
ATOM     12  C   UNL     1       4.737   6.622  16.862  0.00  0.00    +0.000 A 
ATOM     13  C   UNL     1       5.530   6.147  15.802  0.00  0.00    +0.000 A 
ATOM     14  C   UNL     1       5.689   4.780  15.543  0.00  0.00    +0.000 A 
ATOM     15  C   UNL     1       5.013   3.905  16.409  0.00  0.00    +0.000 A 
ATOM     16  C   UNL     1       4.212   4.369  17.469  0.00  0.00    +0.000 A 
BRANCH  14  17
ATOM     17  N   UNL     1       6.467   4.327  14.501  0.00  0.00    +0.000 N 
ATOM     18  C   UNL     1       6.090   3.188  13.649  0.00  0.00    +0.000 C 
ATOM     19  C   UNL     1       6.017   3.626  12.171  0.00  0.00    +0.000 C 
ATOM     20  N   UNL     1       7.266   4.250  11.688  0.00  0.00    +0.000 NA
ATOM     21  C   UNL     1       7.618   5.379  12.574  0.00  0.00    +0.000 C 
ATOM     22  C   UNL     1       7.703   5.004  14.077  0.00  0.00    +0.000 C 
ATOM     23  H   UNL     1       7.115   4.603  10.745  0.00  0.00    +0.000 HD
ENDBRANCH  14  17
ENDBRANCH   9  11
ENDBRANCH   1  10
BRANCH   4  24
ATOM     24  N   UNL     1      -0.111  10.691  20.924  0.00  0.00    +0.000 NA
ATOM     25  C   UNL     1      -0.795  10.893  22.015  0.00  0.00    +0.000 C 
ATOM     26  C   UNL     1      -0.686  10.062  23.279  0.00  0.00    +0.000 C 
BRANCH  25  27
ATOM     27  C   UNL     1      -1.808  12.017  22.036  0.00  0.00    +0.000 A 
ATOM     28  C   UNL     1      -2.180  12.656  20.850  0.00  0.00    +0.000 A 
ATOM     29  C   UNL     1      -3.146  13.683  20.862  0.00  0.00    +0.000 A 
ATOM     30  C   UNL     1      -3.779  14.105  22.040  0.00  0.00    +0.000 A 
ATOM     31  C   UNL     1      -3.387  13.451  23.214  0.00  0.00    +0.000 A 
ATOM     32  C   UNL     1      -2.426  12.430  23.220  0.00  0.00    +0.000 A 
BRANCH  30  33
ATOM     33  N   UNL     1      -4.728  15.105  22.055  0.00  0.00    +0.000 N 
ATOM     34  C   UNL     1      -5.416  15.542  23.281  0.00  0.00    +0.000 C 
ATOM     35  C   UNL     1      -5.230  17.061  23.483  0.00  0.00    +0.000 C 
ATOM     36  N   UNL     1      -5.670  17.857  22.319  0.00  0.00    +0.000 NA
ATOM     37  C   UNL     1      -4.969  17.379  21.110  0.00  0.00    +0.000 C 
ATOM     38  C   UNL     1      -5.116  15.856  20.851  0.00  0.00    +0.000 C 
ATOM     39  H   UNL     1      -5.427  18.833  22.476  0.00  0.00    +0.000 HD
ENDBRANCH  30  33
ENDBRANCH  25  27
ENDBRANCH   4  24
TORSDOF 6
ENDMDL
MODEL 9
REMARK VINA RESULT:      -7.1      0.803      1.562
REMARK  Name = 
REMARK  8 active torsions:
REMARK  status: ('A' for Active; 'I' for Inactive)
REMARK    1  A    between atoms: C_1  and  C_2
REMARK    2  A    between atoms: C_2  and  C_23
REMARK    3  A    between atoms: N_3  and  N_4
REMARK    4  A    between atoms: N_7  and  N_8
REMARK    5  A    between atoms: C_9  and  C_10
REMARK    6  A    between atoms: C_9  and  C_11
REMARK    7  A    between atoms: C_14  and  N_15
REMARK    8  A    between atoms: C_26  and  N_27
REMARK                            x       y       z     vdW  Elec       q    Type
REMARK                         _______ _______ _______ _____ _____    ______ ____
ROOT
ATOM      1  N   UNL     1       1.787   7.870  19.781  0.00  0.00    +0.000 N 
ATOM      2  C   UNL     1       1.278   9.156  19.741  0.00  0.00    +0.000 C 
ATOM      3  N   UNL     1       1.239   9.815  18.626  0.00  0.00    +0.000 NA
ATOM      4  N   UNL     1       0.846   9.621  20.968  0.00  0.00    +0.000 N 
ATOM      5  H   UNL     1       1.157   7.254  20.285  0.00  0.00    +0.000 HD
ATOM      6  H   UNL     1       1.651   9.147  17.963  0.00  0.00    +0.000 HD
ATOM      7  H   UNL     1       1.564   9.451  21.661  0.00  0.00    +0.000 HD
ENDROOT
BRANCH   1  10
ATOM      8  C   UNL     1       2.788   5.171  19.984  0.00  0.00    +0.000 C 
ATOM      9  C   UNL     1       3.028   6.137  18.838  0.00  0.00    +0.000 C 
ATOM     10  N   UNL     1       2.534   7.342  18.755  0.00  0.00    +0.000 NA
BRANCH   9  11
ATOM     11  C   UNL     1       3.941   5.655  17.730  0.00  0.00    +0.000 A 
ATOM     12  C   UNL     1       4.567   6.539  16.845  0.00  0.00    +0.000 A 
ATOM     13  C   UNL     1       5.363   6.057  15.790  0.00  0.00    +0.000 A 
ATOM     14  C   UNL     1       5.575   4.688  15.579  0.00  0.00    +0.000 A 
ATOM     15  C   UNL     1       4.948   3.820  16.487  0.00  0.00    +0.000 A 
ATOM     16  C   UNL     1       4.144   4.290  17.543  0.00  0.00    +0.000 A 
BRANCH  14  17
ATOM     17  N   UNL     1       6.355   4.229  14.541  0.00  0.00    +0.000 N 
ATOM     18  C   UNL     1       5.941   3.141  13.642  0.00  0.00    +0.000 C 
ATOM     19  C   UNL     1       5.931   3.631  12.178  0.00  0.00    +0.000 C 
ATOM     20  N   UNL     1       7.224   4.203  11.748  0.00  0.00    +0.000 NA
ATOM     21  C   UNL     1       7.612   5.281  12.681  0.00  0.00    +0.000 C 
ATOM     22  C   UNL     1       7.636   4.853  14.172  0.00  0.00    +0.000 C 
ATOM     23  H   UNL     1       7.117   4.595  10.814  0.00  0.00    +0.000 HD
ENDBRANCH  14  17
ENDBRANCH   9  11
ENDBRANCH   1  10
BRANCH   4  24
ATOM     24  N   UNL     1       0.055  10.732  21.115  0.00  0.00    +0.000 NA
ATOM     25  C   UNL     1      -0.655  10.922  22.191  0.00  0.00    +0.000 C 
ATOM     26  C   UNL     1      -0.670  10.005  23.400  0.00  0.00    +0.000 C 
BRANCH  25  27
ATOM     27  C   UNL     1      -1.569  12.127  22.252  0.00  0.00    +0.000 A 
ATOM     28  C   UNL     1      -2.691  12.121  23.085  0.00  0.00    +0.000 A 
ATOM     29  C   UNL     1      -3.528  13.253  23.167  0.00  0.00    +0.000 A 
ATOM     30  C   UNL     1      -3.281  14.424  22.437  0.00  0.00    +0.000 A 
ATOM     31  C   UNL     1      -2.154  14.403  21.607  0.00  0.00    +0.000 A 
ATOM     32  C   UNL     1      -1.313  13.285  21.512  0.00  0.00    +0.000 A 
BRANCH  30  33
ATOM     33  N   UNL     1      -4.095  15.535  22.518  0.00  0.00    +0.000 N 
ATOM     34  C   UNL     1      -3.669  16.876  22.086  0.00  0.00    +0.000 C 
ATOM     35  C   UNL     1      -4.660  17.439  21.045  0.00  0.00    +0.000 C 
ATOM     36  N   UNL     1      -6.055  17.459  21.526  0.00  0.00    +0.000 NA
ATOM     37  C   UNL     1      -6.438  16.101  21.963  0.00  0.00    +0.000 C 
ATOM     38  C   UNL     1      -5.479  15.476  23.011  0.00  0.00    +0.000 C 
ATOM     39  H   UNL     1      -6.665  17.742  20.761  0.00  0.00    +0.000 HD
ENDBRANCH  30  33
ENDBRANCH  25  27
ENDBRANCH   4  24
TORSDOF 6
ENDMDL
