MODEL 1
REMARK VINA RESULT:      -9.1      0.000      0.000
REMARK  Name = 
REMARK  7 active torsions:
REMARK  status: ('A' for Active; 'I' for Inactive)
REMARK    1  A    between atoms: C_1  and  C_2
REMARK    2  A    between atoms: C_2  and  C_3
REMARK    3  A    between atoms: C_2  and  C_4
REMARK    4  A    between atoms: C_4  and  C_5
REMARK    5  A    between atoms: C_9  and  C_10
REMARK    6  A    between atoms: C_19  and  C_21
REMARK    7  A    between atoms: C_23  and  C_24
REMARK                            x       y       z     vdW  Elec       q    Type
REMARK                         _______ _______ _______ _____ _____    ______ ____
ROOT
ATOM      1  C   UNL     1      -0.481  10.680  18.983  0.00  0.00    +0.000 C 
ATOM      2  C   UNL     1      -0.621  12.221  19.022  0.00  0.00    +0.000 C 
ATOM      3  O   UNL     1      -0.600  12.912  18.005  0.00  0.00    +0.000 OA
ATOM      4  N   UNL     1      -0.938  12.809  20.216  0.00  0.00    +0.000 N 
ATOM      5  C   UNL     1      -0.617  12.195  21.493  0.00  0.00    +0.000 C 
ATOM      6  C   UNL     1      -0.794  10.669  21.455  0.00  0.00    +0.000 C 
ATOM      7  N   UNL     1      -0.085  10.115  20.306  0.00  0.00    +0.000 N 
ATOM      8  C   UNL     1       0.946   9.198  20.546  0.00  0.00    +0.000 C 
ATOM      9  O   UNL     1       1.268   8.887  21.691  0.00  0.00    +0.000 OA
ATOM     10  H   UNL     1      -0.975  13.820  20.164  0.00  0.00    +0.000 HD
ENDROOT
BRANCH   5  11
ATOM     11  C   UNL     1      -1.451  12.816  22.588  0.00  0.00    +0.000 A 
ATOM     12  C   UNL     1      -1.066  14.031  23.183  0.00  0.00    +0.000 A 
ATOM     13  C   UNL     1      -1.853  14.624  24.169  0.00  0.00    +0.000 A 
ATOM     14  C   UNL     1      -3.030  14.003  24.580  0.00  0.00    +0.000 A 
ATOM     15  C   UNL     1      -3.407  12.797  23.999  0.00  0.00    +0.000 A 
ATOM     16  F   UNL     1      -4.535  12.201  24.399  0.00  0.00    +0.000 F 
ATOM     17  C   UNL     1      -2.633  12.196  23.012  0.00  0.00    +0.000 A 
ENDBRANCH   5  11
BRANCH   8  18
ATOM     18  C   UNL     1       1.690   8.650  19.414  0.00  0.00    +0.000 A 
ATOM     19  C   UNL     1       2.314   7.376  19.361  0.00  0.00    +0.000 A 
ATOM     20  C   UNL     1       2.911   7.337  18.126  0.00  0.00    +0.000 A 
ATOM     21  O   UNL     1       2.646   8.498  17.472  0.00  0.00    +0.000 OA
ATOM     22  N   UNL     1       1.830   9.286  18.243  0.00  0.00    +0.000 NA
BRANCH  20  23
ATOM     23  C   UNL     1       3.665   6.352  17.387  0.00  0.00    +0.000 A 
ATOM     24  C   UNL     1       3.381   4.986  17.554  0.00  0.00    +0.000 A 
ATOM     25  C   UNL     1       4.185   4.021  16.960  0.00  0.00    +0.000 A 
ATOM     26  C   UNL     1       5.263   4.415  16.180  0.00  0.00    +0.000 A 
ATOM     27  F   UNL     1       6.058   3.483  15.642  0.00  0.00    +0.000 F 
ATOM     28  C   UNL     1       5.539   5.763  15.959  0.00  0.00    +0.000 A 
ATOM     29  C   UNL     1       4.735   6.731  16.561  0.00  0.00    +0.000 A 
ENDBRANCH  20  23
ENDBRANCH   8  18
BRANCH   1  30
ATOM     30  C   UNL     1      -1.795  10.019  18.512  0.00  0.00    +0.000 C 
BRANCH  30  32
ATOM     31  C   UNL     1      -2.424  10.007  16.018  0.00  0.00    +0.000 C 
ATOM     32  C   UNL     1      -2.533  10.731  17.360  0.00  0.00    +0.000 C 
ATOM     33  C   UNL     1      -4.017  10.892  17.705  0.00  0.00    +0.000 C 
ENDBRANCH  30  32
ENDBRANCH   1  30
TORSDOF 5
ENDMDL
MODEL 2
REMARK VINA RESULT:      -9.0      0.848      1.201
REMARK  Name = 
REMARK  7 active torsions:
REMARK  status: ('A' for Active; 'I' for Inactive)
REMARK    1  A    between atoms: C_1  and  C_2
REMARK    2  A    between atoms: C_2  and  C_3
REMARK    3  A    between atoms: C_2  and  C_4
REMARK    4  A    between atoms: C_4  and  C_5
REMARK    5  A    between atoms: C_9  and  C_10
REMARK    6  A    between atoms: C_19  and  C_21
REMARK    7  A    between atoms: C_23  and  C_24
REMARK                            x       y       z     vdW  Elec       q    Type
REMARK                         _______ _______ _______ _____ _____    ______ ____
ROOT
ATOM      1  C   UNL     1      -0.404  10.757  18.878  0.00  0.00    +0.000 C 
ATOM      2  C   UNL     1      -0.501  12.300  18.933  0.00  0.00    +0.000 C 
ATOM      3  O   UNL     1      -0.424  13.004  17.927  0.00  0.00    +0.000 OA
ATOM      4  N   UNL     1      -0.843  12.882  20.123  0.00  0.00    +0.000 N 
ATOM      5  C   UNL     1      -0.586  12.243  21.402  0.00  0.00    +0.000 C 
ATOM      6  C   UNL     1      -0.805  10.723  21.337  0.00  0.00    +0.000 C 
ATOM      7  N   UNL     1      -0.072  10.163  20.206  0.00  0.00    +0.000 N 
ATOM      8  C   UNL     1       0.923   9.214  20.470  0.00  0.00    +0.000 C 
ATOM      9  O   UNL     1       1.195   8.879  21.621  0.00  0.00    +0.000 OA
ATOM     10  H   UNL     1      -0.849  13.894  20.084  0.00  0.00    +0.000 HD
ENDROOT
BRANCH   5  11
ATOM     11  C   UNL     1      -1.441  12.873  22.476  0.00  0.00    +0.000 A 
ATOM     12  C   UNL     1      -2.686  12.317  22.821  0.00  0.00    +0.000 A 
ATOM     13  C   UNL     1      -3.460  12.876  23.837  0.00  0.00    +0.000 A 
ATOM     14  C   UNL     1      -3.004  14.005  24.512  0.00  0.00    +0.000 A 
ATOM     15  C   UNL     1      -1.777  14.561  24.165  0.00  0.00    +0.000 A 
ATOM     16  F   UNL     1      -1.344  15.648  24.812  0.00  0.00    +0.000 F 
ATOM     17  C   UNL     1      -0.993  14.012  23.156  0.00  0.00    +0.000 A 
ENDBRANCH   5  11
BRANCH   8  18
ATOM     18  C   UNL     1       1.691   8.659  19.357  0.00  0.00    +0.000 A 
ATOM     19  C   UNL     1       2.292   7.373  19.314  0.00  0.00    +0.000 A 
ATOM     20  C   UNL     1       2.926   7.331  18.098  0.00  0.00    +0.000 A 
ATOM     21  O   UNL     1       2.704   8.501  17.444  0.00  0.00    +0.000 OA
ATOM     22  N   UNL     1       1.880   9.300  18.195  0.00  0.00    +0.000 NA
BRANCH  20  23
ATOM     23  C   UNL     1       3.683   6.336  17.375  0.00  0.00    +0.000 A 
ATOM     24  C   UNL     1       3.411   4.972  17.574  0.00  0.00    +0.000 A 
ATOM     25  C   UNL     1       4.219   4.000  16.995  0.00  0.00    +0.000 A 
ATOM     26  C   UNL     1       5.288   4.386  16.199  0.00  0.00    +0.000 A 
ATOM     27  F   UNL     1       6.087   3.449  15.676  0.00  0.00    +0.000 F 
ATOM     28  C   UNL     1       5.551   5.732  15.946  0.00  0.00    +0.000 A 
ATOM     29  C   UNL     1       4.743   6.705  16.533  0.00  0.00    +0.000 A 
ENDBRANCH  20  23
ENDBRANCH   8  18
BRANCH   1  30
ATOM     30  C   UNL     1      -1.719  10.140  18.352  0.00  0.00    +0.000 C 
BRANCH  30  32
ATOM     31  C   UNL     1      -2.577  10.115  15.927  0.00  0.00    +0.000 C 
ATOM     32  C   UNL     1      -2.422  10.916  17.220  0.00  0.00    +0.000 C 
ATOM     33  C   UNL     1      -3.811  11.372  17.677  0.00  0.00    +0.000 C 
ENDBRANCH  30  32
ENDBRANCH   1  30
TORSDOF 5
ENDMDL
MODEL 3
REMARK VINA RESULT:      -8.7      3.642     10.924
REMARK  Name = 
REMARK  7 active torsions:
REMARK  status: ('A' for Active; 'I' for Inactive)
REMARK    1  A    between atoms: C_1  and  C_2
REMARK    2  A    between atoms: C_2  and  C_3
REMARK    3  A    between atoms: C_2  and  C_4
REMARK    4  A    between atoms: C_4  and  C_5
REMARK    5  A    between atoms: C_9  and  C_10
REMARK    6  A    between atoms: C_19  and  C_21
REMARK    7  A    between atoms: C_23  and  C_24
REMARK                            x       y       z     vdW  Elec       q    Type
REMARK                         _______ _______ _______ _____ _____    ______ ____
ROOT
ATOM      1  C   UNL     1       5.148   6.189  18.074  0.00  0.00    +0.000 C 
ATOM      2  C   UNL     1       5.933   7.001  17.015  0.00  0.00    +0.000 C 
ATOM      3  O   UNL     1       6.539   8.035  17.290  0.00  0.00    +0.000 OA
ATOM      4  N   UNL     1       6.085   6.457  15.769  0.00  0.00    +0.000 N 
ATOM      5  C   UNL     1       5.144   5.494  15.223  0.00  0.00    +0.000 C 
ATOM      6  C   UNL     1       4.631   4.521  16.297  0.00  0.00    +0.000 C 
ATOM      7  N   UNL     1       4.151   5.268  17.455  0.00  0.00    +0.000 N 
ATOM      8  C   UNL     1       2.804   5.133  17.815  0.00  0.00    +0.000 C 
ATOM      9  O   UNL     1       2.037   4.430  17.160  0.00  0.00    +0.000 OA
ATOM     10  H   UNL     1       6.578   7.065  15.127  0.00  0.00    +0.000 HD
ENDROOT
BRANCH   5  11
ATOM     11  C   UNL     1       5.776   4.752  14.069  0.00  0.00    +0.000 A 
ATOM     12  C   UNL     1       7.131   4.948  13.746  0.00  0.00    +0.000 A 
ATOM     13  C   UNL     1       7.726   4.237  12.704  0.00  0.00    +0.000 A 
ATOM     14  C   UNL     1       6.970   3.330  11.966  0.00  0.00    +0.000 A 
ATOM     15  C   UNL     1       5.628   3.142  12.280  0.00  0.00    +0.000 A 
ATOM     16  F   UNL     1       4.904   2.274  11.567  0.00  0.00    +0.000 F 
ATOM     17  C   UNL     1       5.023   3.842  13.318  0.00  0.00    +0.000 A 
ENDBRANCH   5  11
BRANCH   8  18
ATOM     18  C   UNL     1       2.292   5.892  18.953  0.00  0.00    +0.000 A 
ATOM     19  C   UNL     1       1.940   7.268  18.951  0.00  0.00    +0.000 A 
ATOM     20  C   UNL     1       1.558   7.527  20.243  0.00  0.00    +0.000 A 
ATOM     21  O   UNL     1       1.652   6.382  20.968  0.00  0.00    +0.000 OA
ATOM     22  N   UNL     1       2.041   5.350  20.153  0.00  0.00    +0.000 NA
BRANCH  20  23
ATOM     23  C   UNL     1       1.042   8.680  20.944  0.00  0.00    +0.000 A 
ATOM     24  C   UNL     1       0.698   8.574  22.302  0.00  0.00    +0.000 A 
ATOM     25  C   UNL     1       0.072   9.629  22.954  0.00  0.00    +0.000 A 
ATOM     26  C   UNL     1      -0.195  10.800  22.260  0.00  0.00    +0.000 A 
ATOM     27  F   UNL     1      -0.834  11.799  22.881  0.00  0.00    +0.000 F 
ATOM     28  C   UNL     1       0.178  10.949  20.925  0.00  0.00    +0.000 A 
ATOM     29  C   UNL     1       0.801   9.886  20.270  0.00  0.00    +0.000 A 
ENDBRANCH  20  23
ENDBRANCH   8  18
BRANCH   1  30
ATOM     30  C   UNL     1       6.109   5.382  18.973  0.00  0.00    +0.000 C 
BRANCH  30  32
ATOM     31  C   UNL     1       8.496   5.602  19.904  0.00  0.00    +0.000 C 
ATOM     32  C   UNL     1       7.612   5.530  18.659  0.00  0.00    +0.000 C 
ATOM     33  C   UNL     1       8.087   4.360  17.793  0.00  0.00    +0.000 C 
ENDBRANCH  30  32
ENDBRANCH   1  30
TORSDOF 5
ENDMDL
MODEL 4
REMARK VINA RESULT:      -8.6      3.639      4.738
REMARK  Name = 
REMARK  7 active torsions:
REMARK  status: ('A' for Active; 'I' for Inactive)
REMARK    1  A    between atoms: C_1  and  C_2
REMARK    2  A    between atoms: C_2  and  C_3
REMARK    3  A    between atoms: C_2  and  C_4
REMARK    4  A    between atoms: C_4  and  C_5
REMARK    5  A    between atoms: C_9  and  C_10
REMARK    6  A    between atoms: C_19  and  C_21
REMARK    7  A    between atoms: C_23  and  C_24
REMARK                            x       y       z     vdW  Elec       q    Type
REMARK                         _______ _______ _______ _____ _____    ______ ____
ROOT
ATOM      1  C   UNL     1       2.019  12.673  19.347  0.00  0.00    +0.000 C 
ATOM      2  C   UNL     1       2.013  13.691  20.512  0.00  0.00    +0.000 C 
ATOM      3  O   UNL     1       2.930  13.768  21.328  0.00  0.00    +0.000 OA
ATOM      4  N   UNL     1       1.027  14.640  20.534  0.00  0.00    +0.000 N 
ATOM      5  C   UNL     1      -0.264  14.431  19.901  0.00  0.00    +0.000 C 
ATOM      6  C   UNL     1      -0.136  13.659  18.578  0.00  0.00    +0.000 C 
ATOM      7  N   UNL     1       0.655  12.450  18.784  0.00  0.00    +0.000 N 
ATOM      8  C   UNL     1       0.048  11.214  18.533  0.00  0.00    +0.000 C 
ATOM      9  O   UNL     1      -1.127  11.141  18.180  0.00  0.00    +0.000 OA
ATOM     10  H   UNL     1       1.073  15.243  21.346  0.00  0.00    +0.000 HD
ENDROOT
BRANCH   5  11
ATOM     11  C   UNL     1      -0.959  15.757  19.696  0.00  0.00    +0.000 A 
ATOM     12  C   UNL     1      -1.981  16.174  20.568  0.00  0.00    +0.000 A 
ATOM     13  C   UNL     1      -2.599  17.413  20.401  0.00  0.00    +0.000 A 
ATOM     14  C   UNL     1      -2.209  18.245  19.355  0.00  0.00    +0.000 A 
ATOM     15  C   UNL     1      -1.204  17.829  18.488  0.00  0.00    +0.000 A 
ATOM     16  F   UNL     1      -0.835  18.628  17.482  0.00  0.00    +0.000 F 
ATOM     17  C   UNL     1      -0.578  16.598  18.644  0.00  0.00    +0.000 A 
ENDBRANCH   5  11
BRANCH   8  18
ATOM     18  C   UNL     1       0.810   9.988  18.758  0.00  0.00    +0.000 A 
ATOM     19  C   UNL     1       1.483   9.227  17.766  0.00  0.00    +0.000 A 
ATOM     20  C   UNL     1       2.010   8.160  18.449  0.00  0.00    +0.000 A 
ATOM     21  O   UNL     1       1.696   8.281  19.765  0.00  0.00    +0.000 OA
ATOM     22  N   UNL     1       1.010   9.451  19.970  0.00  0.00    +0.000 NA
BRANCH  20  23
ATOM     23  C   UNL     1       2.840   7.031  18.097  0.00  0.00    +0.000 A 
ATOM     24  C   UNL     1       4.044   7.239  17.405  0.00  0.00    +0.000 A 
ATOM     25  C   UNL     1       4.784   6.160  16.938  0.00  0.00    +0.000 A 
ATOM     26  C   UNL     1       4.336   4.869  17.177  0.00  0.00    +0.000 A 
ATOM     27  F   UNL     1       5.030   3.833  16.691  0.00  0.00    +0.000 F 
ATOM     28  C   UNL     1       3.168   4.633  17.901  0.00  0.00    +0.000 A 
ATOM     29  C   UNL     1       2.424   5.718  18.365  0.00  0.00    +0.000 A 
ENDBRANCH  20  23
ENDBRANCH   8  18
BRANCH   1  30
ATOM     30  C   UNL     1       2.975  13.127  18.222  0.00  0.00    +0.000 C 
BRANCH  30  32
ATOM     31  C   UNL     1       5.126  14.529  18.073  0.00  0.00    +0.000 C 
ATOM     32  C   UNL     1       3.636  14.507  18.415  0.00  0.00    +0.000 C 
ATOM     33  C   UNL     1       2.925  15.556  17.555  0.00  0.00    +0.000 C 
ENDBRANCH  30  32
ENDBRANCH   1  30
TORSDOF 5
ENDMDL
MODEL 5
REMARK VINA RESULT:      -8.5      6.745      9.447
REMARK  Name = 
REMARK  7 active torsions:
REMARK  status: ('A' for Active; 'I' for Inactive)
REMARK    1  A    between atoms: C_1  and  C_2
REMARK    2  A    between atoms: C_2  and  C_3
REMARK    3  A    between atoms: C_2  and  C_4
REMARK    4  A    between atoms: C_4  and  C_5
REMARK    5  A    between atoms: C_9  and  C_10
REMARK    6  A    between atoms: C_19  and  C_21
REMARK    7  A    between atoms: C_23  and  C_24
REMARK                            x       y       z     vdW  Elec       q    Type
REMARK                         _______ _______ _______ _____ _____    ______ ____
ROOT
ATOM      1  C   UNL     1       5.111   7.072  17.137  0.00  0.00    +0.000 C 
ATOM      2  C   UNL     1       3.633   7.242  17.561  0.00  0.00    +0.000 C 
ATOM      3  O   UNL     1       2.946   8.196  17.199  0.00  0.00    +0.000 OA
ATOM      4  N   UNL     1       3.031   6.210  18.229  0.00  0.00    +0.000 N 
ATOM      5  C   UNL     1       3.786   5.256  19.023  0.00  0.00    +0.000 C 
ATOM      6  C   UNL     1       5.134   4.907  18.371  0.00  0.00    +0.000 C 
ATOM      7  N   UNL     1       5.850   6.132  18.030  0.00  0.00    +0.000 N 
ATOM      8  C   UNL     1       7.095   6.357  18.631  0.00  0.00    +0.000 C 
ATOM      9  O   UNL     1       7.562   5.564  19.446  0.00  0.00    +0.000 OA
ATOM     10  H   UNL     1       2.077   6.415  18.501  0.00  0.00    +0.000 HD
ENDROOT
BRANCH   5  11
ATOM     11  C   UNL     1       2.958   4.015  19.262  0.00  0.00    +0.000 A 
ATOM     12  C   UNL     1       2.854   3.019  18.274  0.00  0.00    +0.000 A 
ATOM     13  C   UNL     1       2.119   1.857  18.507  0.00  0.00    +0.000 A 
ATOM     14  C   UNL     1       1.471   1.681  19.726  0.00  0.00    +0.000 A 
ATOM     15  C   UNL     1       1.566   2.670  20.700  0.00  0.00    +0.000 A 
ATOM     16  F   UNL     1       0.938   2.501  21.868  0.00  0.00    +0.000 F 
ATOM     17  C   UNL     1       2.297   3.832  20.483  0.00  0.00    +0.000 A 
ENDBRANCH   5  11
BRANCH   8  18
ATOM     18  C   UNL     1       7.820   7.589  18.326  0.00  0.00    +0.000 A 
ATOM     19  C   UNL     1       8.547   8.383  19.253  0.00  0.00    +0.000 A 
ATOM     20  C   UNL     1       9.008   9.441  18.512  0.00  0.00    +0.000 A 
ATOM     21  O   UNL     1       8.607   9.284  17.223  0.00  0.00    +0.000 OA
ATOM     22  N   UNL     1       7.928   8.100  17.092  0.00  0.00    +0.000 NA
BRANCH  20  23
ATOM     23  C   UNL     1       9.841  10.590  18.780  0.00  0.00    +0.000 A 
ATOM     24  C   UNL     1      10.037  11.016  20.105  0.00  0.00    +0.000 A 
ATOM     25  C   UNL     1      10.718  12.197  20.371  0.00  0.00    +0.000 A 
ATOM     26  C   UNL     1      11.224  12.947  19.320  0.00  0.00    +0.000 A 
ATOM     27  F   UNL     1      11.844  14.104  19.579  0.00  0.00    +0.000 F 
ATOM     28  C   UNL     1      11.084  12.524  17.999  0.00  0.00    +0.000 A 
ATOM     29  C   UNL     1      10.395  11.341  17.732  0.00  0.00    +0.000 A 
ENDBRANCH  20  23
ENDBRANCH   8  18
BRANCH   1  30
ATOM     30  C   UNL     1       5.214   6.584  15.675  0.00  0.00    +0.000 C 
BRANCH  30  32
ATOM     31  C   UNL     1       4.970   4.326  14.470  0.00  0.00    +0.000 C 
ATOM     32  C   UNL     1       5.765   5.158  15.477  0.00  0.00    +0.000 C 
ATOM     33  C   UNL     1       7.223   5.216  15.014  0.00  0.00    +0.000 C 
ENDBRANCH  30  32
ENDBRANCH   1  30
TORSDOF 5
ENDMDL
MODEL 6
REMARK VINA RESULT:      -8.5      3.367      4.488
REMARK  Name = 
REMARK  7 active torsions:
REMARK  status: ('A' for Active; 'I' for Inactive)
REMARK    1  A    between atoms: C_1  and  C_2
REMARK    2  A    between atoms: C_2  and  C_3
REMARK    3  A    between atoms: C_2  and  C_4
REMARK    4  A    between atoms: C_4  and  C_5
REMARK    5  A    between atoms: C_9  and  C_10
REMARK    6  A    between atoms: C_19  and  C_21
REMARK    7  A    between atoms: C_23  and  C_24
REMARK                            x       y       z     vdW  Elec       q    Type
REMARK                         _______ _______ _______ _____ _____    ______ ____
ROOT
ATOM      1  C   UNL     1       2.043  12.661  19.340  0.00  0.00    +0.000 C 
ATOM      2  C   UNL     1       2.051  13.679  20.506  0.00  0.00    +0.000 C 
ATOM      3  O   UNL     1       2.978  13.754  21.311  0.00  0.00    +0.000 OA
ATOM      4  N   UNL     1       1.067  14.629  20.539  0.00  0.00    +0.000 N 
ATOM      5  C   UNL     1      -0.232  14.422  19.921  0.00  0.00    +0.000 C 
ATOM      6  C   UNL     1      -0.120  13.651  18.596  0.00  0.00    +0.000 C 
ATOM      7  N   UNL     1       0.673  12.441  18.792  0.00  0.00    +0.000 N 
ATOM      8  C   UNL     1       0.061  11.205  18.548  0.00  0.00    +0.000 C 
ATOM      9  O   UNL     1      -1.118  11.134  18.207  0.00  0.00    +0.000 OA
ATOM     10  H   UNL     1       1.123  15.232  21.351  0.00  0.00    +0.000 HD
ENDROOT
BRANCH   5  11
ATOM     11  C   UNL     1      -0.927  15.749  19.724  0.00  0.00    +0.000 A 
ATOM     12  C   UNL     1      -0.547  16.610  18.677  0.00  0.00    +0.000 A 
ATOM     13  C   UNL     1      -1.211  17.819  18.472  0.00  0.00    +0.000 A 
ATOM     14  C   UNL     1      -2.255  18.186  19.316  0.00  0.00    +0.000 A 
ATOM     15  C   UNL     1      -2.624  17.339  20.356  0.00  0.00    +0.000 A 
ATOM     16  F   UNL     1      -3.625  17.697  21.168  0.00  0.00    +0.000 F 
ATOM     17  C   UNL     1      -1.973  16.130  20.571  0.00  0.00    +0.000 A 
ENDBRANCH   5  11
BRANCH   8  18
ATOM     18  C   UNL     1       0.824   9.978  18.764  0.00  0.00    +0.000 A 
ATOM     19  C   UNL     1       1.507   9.231  17.767  0.00  0.00    +0.000 A 
ATOM     20  C   UNL     1       2.031   8.157  18.441  0.00  0.00    +0.000 A 
ATOM     21  O   UNL     1       1.705   8.260  19.756  0.00  0.00    +0.000 OA
ATOM     22  N   UNL     1       1.014   9.426  19.970  0.00  0.00    +0.000 NA
BRANCH  20  23
ATOM     23  C   UNL     1       2.866   7.034  18.082  0.00  0.00    +0.000 A 
ATOM     24  C   UNL     1       4.068   7.253  17.390  0.00  0.00    +0.000 A 
ATOM     25  C   UNL     1       4.813   6.179  16.915  0.00  0.00    +0.000 A 
ATOM     26  C   UNL     1       4.372   4.885  17.148  0.00  0.00    +0.000 A 
ATOM     27  F   UNL     1       5.071   3.856  16.656  0.00  0.00    +0.000 F 
ATOM     28  C   UNL     1       3.206   4.639  17.873  0.00  0.00    +0.000 A 
ATOM     29  C   UNL     1       2.457   5.718  18.344  0.00  0.00    +0.000 A 
ENDBRANCH  20  23
ENDBRANCH   8  18
BRANCH   1  30
ATOM     30  C   UNL     1       2.987  13.115  18.205  0.00  0.00    +0.000 C 
BRANCH  30  32
ATOM     31  C   UNL     1       5.141  14.510  18.048  0.00  0.00    +0.000 C 
ATOM     32  C   UNL     1       3.651  14.494  18.391  0.00  0.00    +0.000 C 
ATOM     33  C   UNL     1       2.943  15.541  17.528  0.00  0.00    +0.000 C 
ENDBRANCH  30  32
ENDBRANCH   1  30
TORSDOF 5
ENDMDL
MODEL 7
REMARK VINA RESULT:      -8.4      1.301      1.613
REMARK  Name = 
REMARK  7 active torsions:
REMARK  status: ('A' for Active; 'I' for Inactive)
REMARK    1  A    between atoms: C_1  and  C_2
REMARK    2  A    between atoms: C_2  and  C_3
REMARK    3  A    between atoms: C_2  and  C_4
REMARK    4  A    between atoms: C_4  and  C_5
REMARK    5  A    between atoms: C_9  and  C_10
REMARK    6  A    between atoms: C_19  and  C_21
REMARK    7  A    between atoms: C_23  and  C_24
REMARK                            x       y       z     vdW  Elec       q    Type
REMARK                         _______ _______ _______ _____ _____    ______ ____
ROOT
ATOM      1  C   UNL     1      -0.717  11.454  19.573  0.00  0.00    +0.000 C 
ATOM      2  C   UNL     1      -0.673  12.999  19.644  0.00  0.00    +0.000 C 
ATOM      3  O   UNL     1      -0.538  13.703  18.645  0.00  0.00    +0.000 OA
ATOM      4  N   UNL     1      -0.955  13.597  20.842  0.00  0.00    +0.000 N 
ATOM      5  C   UNL     1      -0.750  12.923  22.112  0.00  0.00    +0.000 C 
ATOM      6  C   UNL     1      -1.107  11.430  22.034  0.00  0.00    +0.000 C 
ATOM      7  N   UNL     1      -0.433  10.819  20.893  0.00  0.00    +0.000 N 
ATOM      8  C   UNL     1       0.473   9.780  21.141  0.00  0.00    +0.000 C 
ATOM      9  O   UNL     1       0.720   9.410  22.287  0.00  0.00    +0.000 OA
ATOM     10  H   UNL     1      -0.869  14.606  20.812  0.00  0.00    +0.000 HD
ENDROOT
BRANCH   5  11
ATOM     11  C   UNL     1      -1.538  13.617  23.198  0.00  0.00    +0.000 A 
ATOM     12  C   UNL     1      -2.840  13.193  23.523  0.00  0.00    +0.000 A 
ATOM     13  C   UNL     1      -3.556  13.810  24.548  0.00  0.00    +0.000 A 
ATOM     14  C   UNL     1      -2.983  14.864  25.254  0.00  0.00    +0.000 A 
ATOM     15  C   UNL     1      -1.700  15.290  24.927  0.00  0.00    +0.000 A 
ATOM     16  F   UNL     1      -1.154  16.305  25.604  0.00  0.00    +0.000 F 
ATOM     17  C   UNL     1      -0.973  14.682  23.909  0.00  0.00    +0.000 A 
ENDBRANCH   5  11
BRANCH   8  18
ATOM     18  C   UNL     1       1.181   9.170  20.018  0.00  0.00    +0.000 A 
ATOM     19  C   UNL     1       1.736   7.862  19.989  0.00  0.00    +0.000 A 
ATOM     20  C   UNL     1       2.325   7.766  18.754  0.00  0.00    +0.000 A 
ATOM     21  O   UNL     1       2.120   8.926  18.076  0.00  0.00    +0.000 OA
ATOM     22  N   UNL     1       1.351   9.772  18.833  0.00  0.00    +0.000 NA
BRANCH  20  23
ATOM     23  C   UNL     1       3.021   6.726  18.032  0.00  0.00    +0.000 A 
ATOM     24  C   UNL     1       2.549   5.404  18.086  0.00  0.00    +0.000 A 
ATOM     25  C   UNL     1       3.283   4.371  17.515  0.00  0.00    +0.000 A 
ATOM     26  C   UNL     1       4.477   4.655  16.871  0.00  0.00    +0.000 A 
ATOM     27  F   UNL     1       5.200   3.653  16.357  0.00  0.00    +0.000 F 
ATOM     28  C   UNL     1       4.945   5.964  16.762  0.00  0.00    +0.000 A 
ATOM     29  C   UNL     1       4.211   7.000  17.341  0.00  0.00    +0.000 A 
ENDBRANCH  20  23
ENDBRANCH   8  18
BRANCH   1  30
ATOM     30  C   UNL     1      -2.085  10.964  19.048  0.00  0.00    +0.000 C 
BRANCH  30  32
ATOM     31  C   UNL     1      -1.982   9.807  16.754  0.00  0.00    +0.000 C 
ATOM     32  C   UNL     1      -2.307  11.085  17.527  0.00  0.00    +0.000 C 
ATOM     33  C   UNL     1      -3.759  11.473  17.235  0.00  0.00    +0.000 C 
ENDBRANCH  30  32
ENDBRANCH   1  30
TORSDOF 5
ENDMDL
MODEL 8
REMARK VINA RESULT:      -8.4      0.890      1.432
REMARK  Name = 
REMARK  7 active torsions:
REMARK  status: ('A' for Active; 'I' for Inactive)
REMARK    1  A    between atoms: C_1  and  C_2
REMARK    2  A    between atoms: C_2  and  C_3
REMARK    3  A    between atoms: C_2  and  C_4
REMARK    4  A    between atoms: C_4  and  C_5
REMARK    5  A    between atoms: C_9  and  C_10
REMARK    6  A    between atoms: C_19  and  C_21
REMARK    7  A    between atoms: C_23  and  C_24
REMARK                            x       y       z     vdW  Elec       q    Type
REMARK                         _______ _______ _______ _____ _____    ______ ____
ROOT
ATOM      1  C   UNL     1       0.210  11.759  19.332  0.00  0.00    +0.000 C 
ATOM      2  C   UNL     1       0.585  13.131  19.941  0.00  0.00    +0.000 C 
ATOM      3  O   UNL     1       1.261  13.961  19.335  0.00  0.00    +0.000 OA
ATOM      4  N   UNL     1       0.008  13.488  21.130  0.00  0.00    +0.000 N 
ATOM      5  C   UNL     1      -0.462  12.504  22.089  0.00  0.00    +0.000 C 
ATOM      6  C   UNL     1      -1.101  11.289  21.398  0.00  0.00    +0.000 C 
ATOM      7  N   UNL     1      -0.201  10.772  20.373  0.00  0.00    +0.000 N 
ATOM      8  C   UNL     1       0.264   9.457  20.505  0.00  0.00    +0.000 C 
ATOM      9  O   UNL     1      -0.049   8.765  21.472  0.00  0.00    +0.000 OA
ATOM     10  H   UNL     1       0.334  14.382  21.477  0.00  0.00    +0.000 HD
ENDROOT
BRANCH   5  11
ATOM     11  C   UNL     1      -1.424  13.149  23.060  0.00  0.00    +0.000 A 
ATOM     12  C   UNL     1      -1.123  14.390  23.651  0.00  0.00    +0.000 A 
ATOM     13  C   UNL     1      -2.024  15.004  24.519  0.00  0.00    +0.000 A 
ATOM     14  C   UNL     1      -3.233  14.380  24.815  0.00  0.00    +0.000 A 
ATOM     15  C   UNL     1      -3.527  13.149  24.239  0.00  0.00    +0.000 A 
ATOM     16  F   UNL     1      -4.687  12.550  24.529  0.00  0.00    +0.000 F 
ATOM     17  C   UNL     1      -2.639  12.527  23.369  0.00  0.00    +0.000 A 
ENDBRANCH   5  11
BRANCH   8  18
ATOM     18  C   UNL     1       1.189   8.926  19.507  0.00  0.00    +0.000 A 
ATOM     19  C   UNL     1       1.840   7.664  19.557  0.00  0.00    +0.000 A 
ATOM     20  C   UNL     1       2.625   7.638  18.433  0.00  0.00    +0.000 A 
ATOM     21  O   UNL     1       2.443   8.793  17.740  0.00  0.00    +0.000 OA
ATOM     22  N   UNL     1       1.500   9.564  18.370  0.00  0.00    +0.000 NA
BRANCH  20  23
ATOM     23  C   UNL     1       3.507   6.668  17.825  0.00  0.00    +0.000 A 
ATOM     24  C   UNL     1       4.625   7.103  17.094  0.00  0.00    +0.000 A 
ATOM     25  C   UNL     1       5.403   6.194  16.388  0.00  0.00    +0.000 A 
ATOM     26  C   UNL     1       5.081   4.845  16.425  0.00  0.00    +0.000 A 
ATOM     27  F   UNL     1       5.808   3.978  15.712  0.00  0.00    +0.000 F 
ATOM     28  C   UNL     1       4.004   4.381  17.180  0.00  0.00    +0.000 A 
ATOM     29  C   UNL     1       3.221   5.296  17.883  0.00  0.00    +0.000 A 
ENDBRANCH  20  23
ENDBRANCH   8  18
BRANCH   1  30
ATOM     30  C   UNL     1      -0.919  11.909  18.289  0.00  0.00    +0.000 C 
BRANCH  30  32
ATOM     31  C   UNL     1      -3.433  11.367  18.328  0.00  0.00    +0.000 C 
ATOM     32  C   UNL     1      -2.007  10.816  18.309  0.00  0.00    +0.000 C 
ATOM     33  C   UNL     1      -1.856   9.900  17.092  0.00  0.00    +0.000 C 
ENDBRANCH  30  32
ENDBRANCH   1  30
TORSDOF 5
ENDMDL
MODEL 9
REMARK VINA RESULT:      -8.3      1.016      1.209
REMARK  Name = 
REMARK  7 active torsions:
REMARK  status: ('A' for Active; 'I' for Inactive)
REMARK    1  A    between atoms: C_1  and  C_2
REMARK    2  A    between atoms: C_2  and  C_3
REMARK    3  A    between atoms: C_2  and  C_4
REMARK    4  A    between atoms: C_4  and  C_5
REMARK    5  A    between atoms: C_9  and  C_10
REMARK    6  A    between atoms: C_19  and  C_21
REMARK    7  A    between atoms: C_23  and  C_24
REMARK                            x       y       z     vdW  Elec       q    Type
REMARK                         _______ _______ _______ _____ _____    ______ ____
ROOT
ATOM      1  C   UNL     1      -0.731  11.531  19.628  0.00  0.00    +0.000 C 
ATOM      2  C   UNL     1      -0.666  13.076  19.695  0.00  0.00    +0.000 C 
ATOM      3  O   UNL     1      -0.523  13.777  18.695  0.00  0.00    +0.000 OA
ATOM      4  N   UNL     1      -0.938  13.680  20.893  0.00  0.00    +0.000 N 
ATOM      5  C   UNL     1      -0.740  13.006  22.164  0.00  0.00    +0.000 C 
ATOM      6  C   UNL     1      -1.117  11.517  22.089  0.00  0.00    +0.000 C 
ATOM      7  N   UNL     1      -0.453  10.895  20.948  0.00  0.00    +0.000 N 
ATOM      8  C   UNL     1       0.439   9.845  21.197  0.00  0.00    +0.000 C 
ATOM      9  O   UNL     1       0.683   9.474  22.343  0.00  0.00    +0.000 OA
ATOM     10  H   UNL     1      -0.839  14.687  20.862  0.00  0.00    +0.000 HD
ENDROOT
BRANCH   5  11
ATOM     11  C   UNL     1      -1.518  13.712  23.250  0.00  0.00    +0.000 A 
ATOM     12  C   UNL     1      -0.935  14.764  23.981  0.00  0.00    +0.000 A 
ATOM     13  C   UNL     1      -1.663  15.441  24.959  0.00  0.00    +0.000 A 
ATOM     14  C   UNL     1      -2.978  15.068  25.225  0.00  0.00    +0.000 A 
ATOM     15  C   UNL     1      -3.551  14.022  24.508  0.00  0.00    +0.000 A 
ATOM     16  F   UNL     1      -4.812  13.663  24.769  0.00  0.00    +0.000 F 
ATOM     17  C   UNL     1      -2.838  13.341  23.529  0.00  0.00    +0.000 A 
ENDBRANCH   5  11
BRANCH   8  18
ATOM     18  C   UNL     1       1.138   9.223  20.074  0.00  0.00    +0.000 A 
ATOM     19  C   UNL     1       1.672   7.907  20.045  0.00  0.00    +0.000 A 
ATOM     20  C   UNL     1       2.259   7.802  18.810  0.00  0.00    +0.000 A 
ATOM     21  O   UNL     1       2.072   8.964  18.132  0.00  0.00    +0.000 OA
ATOM     22  N   UNL     1       1.317   9.823  18.889  0.00  0.00    +0.000 NA
BRANCH  20  23
ATOM     23  C   UNL     1       2.939   6.751  18.089  0.00  0.00    +0.000 A 
ATOM     24  C   UNL     1       2.445   5.437  18.139  0.00  0.00    +0.000 A 
ATOM     25  C   UNL     1       3.161   4.392  17.569  0.00  0.00    +0.000 A 
ATOM     26  C   UNL     1       4.363   4.657  16.928  0.00  0.00    +0.000 A 
ATOM     27  F   UNL     1       5.069   3.643  16.414  0.00  0.00    +0.000 F 
ATOM     28  C   UNL     1       4.853   5.958  16.822  0.00  0.00    +0.000 A 
ATOM     29  C   UNL     1       4.135   7.005  17.401  0.00  0.00    +0.000 A 
ENDBRANCH  20  23
ENDBRANCH   8  18
BRANCH   1  30
ATOM     30  C   UNL     1      -2.106  11.059  19.106  0.00  0.00    +0.000 C 
BRANCH  30  32
ATOM     31  C   UNL     1      -3.265   9.396  17.524  0.00  0.00    +0.000 C 
ATOM     32  C   UNL     1      -2.104  10.369  17.727  0.00  0.00    +0.000 C 
ATOM     33  C   UNL     1      -2.149  11.419  16.613  0.00  0.00    +0.000 C 
ENDBRANCH  30  32
ENDBRANCH   1  30
TORSDOF 5
ENDMDL
