MODEL 1
REMARK VINA RESULT:      -8.1      0.000      0.000
REMARK  Name = 
REMARK  13 active torsions:
REMARK  status: ('A' for Active; 'I' for Inactive)
REMARK    1  A    between atoms: C_1  and  O_2
REMARK    2  A    between atoms: O_2  and  C_3
REMARK    3  A    between atoms: C_6  and  C_7
REMARK    4  A    between atoms: C_7  and  C_8
REMARK    5  A    between atoms: C_8  and  N_9
REMARK    6  A    between atoms: C_10  and  C_12
REMARK    7  A    between atoms: N_15  and  C_16
REMARK    8  A    between atoms: C_16  and  C_17
REMARK    9  A    between atoms: N_19  and  C_20
REMARK   10  A    between atoms: C_25  and  C_26
REMARK   11  A    between atoms: C_27  and  N_28
REMARK   12  A    between atoms: C_30  and  O_31
REMARK   13  A    between atoms: O_31  and  C_32
REMARK                            x       y       z     vdW  Elec       q    Type
REMARK                         _______ _______ _______ _____ _____    ______ ____
ROOT
ATOM      1  C   UNL     1       6.996   6.745  17.448  0.00  0.00    +0.000 A 
ATOM      2  N   UNL     1       6.072   7.306  16.592  0.00  0.00    +0.000 NA
ATOM      3  N   UNL     1       5.405   6.327  15.993  0.00  0.00    +0.000 NA
ATOM      4  N   UNL     1       5.878   5.152  16.469  0.00  0.00    +0.000 N 
ATOM      5  C   UNL     1       6.887   5.363  17.378  0.00  0.00    +0.000 A 
ENDROOT
BRANCH   1   7
ATOM      6  N   UNL     1       7.984   8.875  17.963  0.00  0.00    +0.000 N 
ATOM      7  C   UNL     1       7.942   7.521  18.246  0.00  0.00    +0.000 C 
ATOM      8  O   UNL     1       8.655   7.011  19.107  0.00  0.00    +0.000 OA
ATOM      9  H   UNL     1       7.363   9.228  17.244  0.00  0.00    +0.000 HD
BRANCH   6  10
ATOM     10  C   UNL     1       8.935   9.745  18.640  0.00  0.00    +0.000 C 
BRANCH  10  11
ATOM     11  C   UNL     1       9.511  10.833  17.733  0.00  0.00    +0.000 C 
BRANCH  11  15
ATOM     12  C   UNL     1      10.948  14.355  19.831  0.00  0.00    +0.000 A 
ATOM     13  C   UNL     1      11.019  13.084  20.424  0.00  0.00    +0.000 A 
ATOM     14  C   UNL     1      10.549  11.946  19.759  0.00  0.00    +0.000 A 
ATOM     15  C   UNL     1       9.970  12.057  18.494  0.00  0.00    +0.000 A 
ATOM     16  C   UNL     1       9.826  13.336  17.940  0.00  0.00    +0.000 A 
ATOM     17  C   UNL     1      10.306  14.489  18.590  0.00  0.00    +0.000 A 
BRANCH  12  19
ATOM     18  C   UNL     1      10.691  15.991  21.529  0.00  0.00    +0.000 C 
ATOM     19  O   UNL     1      11.462  15.462  20.451  0.00  0.00    +0.000 OA
ENDBRANCH  12  19
BRANCH  17  20
ATOM     20  O   UNL     1      10.078  15.622  17.854  0.00  0.00    +0.000 OA
ATOM     21  C   UNL     1      11.106  16.129  17.018  0.00  0.00    +0.000 C 
ENDBRANCH  17  20
ENDBRANCH  11  15
ENDBRANCH  10  11
ENDBRANCH   6  10
ENDBRANCH   1   7
BRANCH   5  22
ATOM     22  N   UNL     1       7.546   4.363  18.009  0.00  0.00    +0.000 N 
ATOM     23  H   UNL     1       8.310   3.839  17.575  0.00  0.00    +0.000 HD
ATOM     24  H   UNL     1       7.652   4.423  19.028  0.00  0.00    +0.000 HD
ENDBRANCH   5  22
BRANCH   4  25
ATOM     25  C   UNL     1       5.214   3.921  16.107  0.00  0.00    +0.000 C 
BRANCH  25  26
ATOM     26  C   UNL     1       4.084   3.572  17.046  0.00  0.00    +0.000 C 
ATOM     27  O   UNL     1       3.162   2.845  16.676  0.00  0.00    +0.000 OA
ATOM     28  N   UNL     1       4.183   4.149  18.305  0.00  0.00    +0.000 N 
ATOM     29  H   UNL     1       4.689   5.026  18.357  0.00  0.00    +0.000 HD
BRANCH  28  30
ATOM     30  C   UNL     1       3.229   3.910  19.324  0.00  0.00    +0.000 A 
ATOM     31  C   UNL     1       2.078   4.706  19.418  0.00  0.00    +0.000 A 
ATOM     32  C   UNL     1       1.132   4.474  20.419  0.00  0.00    +0.000 A 
ATOM     33  C   UNL     1       1.336   3.456  21.345  0.00  0.00    +0.000 A 
ATOM     34  C   UNL     1       2.471   2.651  21.251  0.00  0.00    +0.000 A 
ATOM     35  C   UNL     1       3.424   2.859  20.238  0.00  0.00    +0.000 A 
ATOM     36  C   UNL     1       4.639   1.975  20.196  0.00  0.00    +0.000 C 
ENDBRANCH  28  30
ENDBRANCH  25  26
ENDBRANCH   4  25
TORSDOF 10
ENDMDL
MODEL 2
REMARK VINA RESULT:      -8.0      1.291      2.307
REMARK  Name = 
REMARK  13 active torsions:
REMARK  status: ('A' for Active; 'I' for Inactive)
REMARK    1  A    between atoms: C_1  and  O_2
REMARK    2  A    between atoms: O_2  and  C_3
REMARK    3  A    between atoms: C_6  and  C_7
REMARK    4  A    between atoms: C_7  and  C_8
REMARK    5  A    between atoms: C_8  and  N_9
REMARK    6  A    between atoms: C_10  and  C_12
REMARK    7  A    between atoms: N_15  and  C_16
REMARK    8  A    between atoms: C_16  and  C_17
REMARK    9  A    between atoms: N_19  and  C_20
REMARK   10  A    between atoms: C_25  and  C_26
REMARK   11  A    between atoms: C_27  and  N_28
REMARK   12  A    between atoms: C_30  and  O_31
REMARK   13  A    between atoms: O_31  and  C_32
REMARK                            x       y       z     vdW  Elec       q    Type
REMARK                         _______ _______ _______ _____ _____    ______ ____
ROOT
ATOM      1  C   UNL     1       7.431   6.871  17.831  0.00  0.00    +0.000 A 
ATOM      2  N   UNL     1       7.960   5.858  18.604  0.00  0.00    +0.000 NA
ATOM      3  N   UNL     1       7.361   4.720  18.273  0.00  0.00    +0.000 NA
ATOM      4  N   UNL     1       6.474   4.991  17.288  0.00  0.00    +0.000 N 
ATOM      5  C   UNL     1       6.473   6.331  16.985  0.00  0.00    +0.000 A 
ENDROOT
BRANCH   1   7
ATOM      6  N   UNL     1       8.753   8.547  18.937  0.00  0.00    +0.000 N 
ATOM      7  C   UNL     1       7.820   8.273  17.952  0.00  0.00    +0.000 C 
ATOM      8  O   UNL     1       7.352   9.153  17.233  0.00  0.00    +0.000 OA
ATOM      9  H   UNL     1       9.100   7.771  19.489  0.00  0.00    +0.000 HD
BRANCH   6  10
ATOM     10  C   UNL     1       9.170   9.916  19.204  0.00  0.00    +0.000 C 
BRANCH  10  11
ATOM     11  C   UNL     1       9.834  10.591  18.004  0.00  0.00    +0.000 C 
BRANCH  11  15
ATOM     12  C   UNL     1       9.072  14.867  17.960  0.00  0.00    +0.000 A 
ATOM     13  C   UNL     1       8.045  13.950  17.682  0.00  0.00    +0.000 A 
ATOM     14  C   UNL     1       8.285  12.571  17.684  0.00  0.00    +0.000 A 
ATOM     15  C   UNL     1       9.565  12.078  17.938  0.00  0.00    +0.000 A 
ATOM     16  C   UNL     1      10.604  12.998  18.133  0.00  0.00    +0.000 A 
ATOM     17  C   UNL     1      10.377  14.388  18.148  0.00  0.00    +0.000 A 
BRANCH  12  19
ATOM     18  C   UNL     1       8.478  16.730  19.304  0.00  0.00    +0.000 C 
ATOM     19  O   UNL     1       8.829  16.214  18.021  0.00  0.00    +0.000 OA
ENDBRANCH  12  19
BRANCH  17  20
ATOM     20  O   UNL     1      11.530  15.091  18.379  0.00  0.00    +0.000 OA
ATOM     21  C   UNL     1      12.060  15.147  19.694  0.00  0.00    +0.000 C 
ENDBRANCH  17  20
ENDBRANCH  11  15
ENDBRANCH  10  11
ENDBRANCH   6  10
ENDBRANCH   1   7
BRANCH   5  22
ATOM     22  N   UNL     1       5.678   6.883  16.039  0.00  0.00    +0.000 N 
ATOM     23  H   UNL     1       6.031   7.509  15.311  0.00  0.00    +0.000 HD
ATOM     24  H   UNL     1       4.863   6.347  15.721  0.00  0.00    +0.000 HD
ENDBRANCH   5  22
BRANCH   4  25
ATOM     25  C   UNL     1       5.797   3.900  16.624  0.00  0.00    +0.000 C 
BRANCH  25  26
ATOM     26  C   UNL     1       4.650   3.348  17.435  0.00  0.00    +0.000 C 
ATOM     27  O   UNL     1       4.101   2.294  17.112  0.00  0.00    +0.000 OA
ATOM     28  N   UNL     1       4.285   4.130  18.524  0.00  0.00    +0.000 N 
ATOM     29  H   UNL     1       4.473   5.124  18.443  0.00  0.00    +0.000 HD
BRANCH  28  30
ATOM     30  C   UNL     1       3.249   3.753  19.413  0.00  0.00    +0.000 A 
ATOM     31  C   UNL     1       3.548   3.063  20.596  0.00  0.00    +0.000 A 
ATOM     32  C   UNL     1       2.531   2.690  21.479  0.00  0.00    +0.000 A 
ATOM     33  C   UNL     1       1.206   2.989  21.178  0.00  0.00    +0.000 A 
ATOM     34  C   UNL     1       0.901   3.687  20.009  0.00  0.00    +0.000 A 
ATOM     35  C   UNL     1       1.915   4.086  19.119  0.00  0.00    +0.000 A 
ATOM     36  C   UNL     1       1.527   4.818  17.864  0.00  0.00    +0.000 C 
ENDBRANCH  28  30
ENDBRANCH  25  26
ENDBRANCH   4  25
TORSDOF 10
ENDMDL
MODEL 3
REMARK VINA RESULT:      -8.0      1.830      2.523
REMARK  Name = 
REMARK  13 active torsions:
REMARK  status: ('A' for Active; 'I' for Inactive)
REMARK    1  A    between atoms: C_1  and  O_2
REMARK    2  A    between atoms: O_2  and  C_3
REMARK    3  A    between atoms: C_6  and  C_7
REMARK    4  A    between atoms: C_7  and  C_8
REMARK    5  A    between atoms: C_8  and  N_9
REMARK    6  A    between atoms: C_10  and  C_12
REMARK    7  A    between atoms: N_15  and  C_16
REMARK    8  A    between atoms: C_16  and  C_17
REMARK    9  A    between atoms: N_19  and  C_20
REMARK   10  A    between atoms: C_25  and  C_26
REMARK   11  A    between atoms: C_27  and  N_28
REMARK   12  A    between atoms: C_30  and  O_31
REMARK   13  A    between atoms: O_31  and  C_32
REMARK                            x       y       z     vdW  Elec       q    Type
REMARK                         _______ _______ _______ _____ _____    ______ ____
ROOT
ATOM      1  C   UNL     1       7.996   7.609  18.357  0.00  0.00    +0.000 A 
ATOM      2  N   UNL     1       8.545   6.725  19.264  0.00  0.00    +0.000 NA
ATOM      3  N   UNL     1       7.968   5.541  19.099  0.00  0.00    +0.000 NA
ATOM      4  N   UNL     1       7.073   5.653  18.090  0.00  0.00    +0.000 N 
ATOM      5  C   UNL     1       7.047   6.938  17.600  0.00  0.00    +0.000 A 
ENDROOT
BRANCH   1   7
ATOM      6  N   UNL     1       9.178   9.482  19.293  0.00  0.00    +0.000 N 
ATOM      7  C   UNL     1       8.359   9.021  18.277  0.00  0.00    +0.000 C 
ATOM      8  O   UNL     1       7.963   9.755  17.374  0.00  0.00    +0.000 OA
ATOM      9  H   UNL     1       9.470   8.819  20.003  0.00  0.00    +0.000 HD
BRANCH   6  10
ATOM     10  C   UNL     1       9.553  10.886  19.366  0.00  0.00    +0.000 C 
BRANCH  10  11
ATOM     11  C   UNL     1      10.851  11.204  18.624  0.00  0.00    +0.000 C 
BRANCH  11  15
ATOM     12  C   UNL     1      10.995  15.297  17.177  0.00  0.00    +0.000 A 
ATOM     13  C   UNL     1      12.112  14.453  17.062  0.00  0.00    +0.000 A 
ATOM     14  C   UNL     1      12.077  13.136  17.535  0.00  0.00    +0.000 A 
ATOM     15  C   UNL     1      10.931  12.642  18.159  0.00  0.00    +0.000 A 
ATOM     16  C   UNL     1       9.849  13.511  18.346  0.00  0.00    +0.000 A 
ATOM     17  C   UNL     1       9.863  14.835  17.864  0.00  0.00    +0.000 A 
BRANCH  12  19
ATOM     18  C   UNL     1      11.605  17.570  17.476  0.00  0.00    +0.000 C 
ATOM     19  O   UNL     1      11.003  16.566  16.661  0.00  0.00    +0.000 OA
ENDBRANCH  12  19
BRANCH  17  20
ATOM     20  O   UNL     1       8.692  15.490  18.139  0.00  0.00    +0.000 OA
ATOM     21  C   UNL     1       8.538  16.150  19.385  0.00  0.00    +0.000 C 
ENDBRANCH  17  20
ENDBRANCH  11  15
ENDBRANCH  10  11
ENDBRANCH   6  10
ENDBRANCH   1   7
BRANCH   5  22
ATOM     22  N   UNL     1       6.239   7.335  16.589  0.00  0.00    +0.000 N 
ATOM     23  H   UNL     1       5.218   7.301  16.646  0.00  0.00    +0.000 HD
ATOM     24  H   UNL     1       6.564   8.096  15.983  0.00  0.00    +0.000 HD
ENDBRANCH   5  22
BRANCH   4  25
ATOM     25  C   UNL     1       6.416   4.468  17.589  0.00  0.00    +0.000 C 
BRANCH  25  26
ATOM     26  C   UNL     1       5.286   4.011  18.479  0.00  0.00    +0.000 C 
ATOM     27  O   UNL     1       5.499   3.256  19.428  0.00  0.00    +0.000 OA
ATOM     28  N   UNL     1       4.035   4.495  18.117  0.00  0.00    +0.000 N 
ATOM     29  H   UNL     1       3.908   4.713  17.134  0.00  0.00    +0.000 HD
BRANCH  28  30
ATOM     30  C   UNL     1       2.864   4.193  18.854  0.00  0.00    +0.000 A 
ATOM     31  C   UNL     1       2.431   5.050  19.876  0.00  0.00    +0.000 A 
ATOM     32  C   UNL     1       1.276   4.760  20.606  0.00  0.00    +0.000 A 
ATOM     33  C   UNL     1       0.553   3.603  20.331  0.00  0.00    +0.000 A 
ATOM     34  C   UNL     1       0.970   2.752  19.308  0.00  0.00    +0.000 A 
ATOM     35  C   UNL     1       2.121   3.039  18.551  0.00  0.00    +0.000 A 
ATOM     36  C   UNL     1       2.535   2.077  17.473  0.00  0.00    +0.000 C 
ENDBRANCH  28  30
ENDBRANCH  25  26
ENDBRANCH   4  25
TORSDOF 10
ENDMDL
MODEL 4
REMARK VINA RESULT:      -8.0      1.903      2.314
REMARK  Name = 
REMARK  13 active torsions:
REMARK  status: ('A' for Active; 'I' for Inactive)
REMARK    1  A    between atoms: C_1  and  O_2
REMARK    2  A    between atoms: O_2  and  C_3
REMARK    3  A    between atoms: C_6  and  C_7
REMARK    4  A    between atoms: C_7  and  C_8
REMARK    5  A    between atoms: C_8  and  N_9
REMARK    6  A    between atoms: C_10  and  C_12
REMARK    7  A    between atoms: N_15  and  C_16
REMARK    8  A    between atoms: C_16  and  C_17
REMARK    9  A    between atoms: N_19  and  C_20
REMARK   10  A    between atoms: C_25  and  C_26
REMARK   11  A    between atoms: C_27  and  N_28
REMARK   12  A    between atoms: C_30  and  O_31
REMARK   13  A    between atoms: O_31  and  C_32
REMARK                            x       y       z     vdW  Elec       q    Type
REMARK                         _______ _______ _______ _____ _____    ______ ____
ROOT
ATOM      1  C   UNL     1       7.637   8.086  17.671  0.00  0.00    +0.000 A 
ATOM      2  N   UNL     1       6.863   7.923  16.540  0.00  0.00    +0.000 NA
ATOM      3  N   UNL     1       6.560   6.636  16.420  0.00  0.00    +0.000 NA
ATOM      4  N   UNL     1       7.112   5.981  17.468  0.00  0.00    +0.000 N 
ATOM      5  C   UNL     1       7.809   6.849  18.274  0.00  0.00    +0.000 A 
ENDROOT
BRANCH   1   7
ATOM      6  N   UNL     1       9.023   9.315  19.202  0.00  0.00    +0.000 N 
ATOM      7  C   UNL     1       8.194   9.367  18.096  0.00  0.00    +0.000 C 
ATOM      8  O   UNL     1       7.944  10.422  17.516  0.00  0.00    +0.000 OA
ATOM      9  H   UNL     1       9.190   8.410  19.627  0.00  0.00    +0.000 HD
BRANCH   6  10
ATOM     10  C   UNL     1       9.585  10.534  19.767  0.00  0.00    +0.000 C 
BRANCH  10  11
ATOM     11  C   UNL     1      10.875  10.980  19.079  0.00  0.00    +0.000 C 
BRANCH  11  15
ATOM     12  C   UNL     1      10.564  14.982  17.421  0.00  0.00    +0.000 A 
ATOM     13  C   UNL     1      11.717  14.206  17.217  0.00  0.00    +0.000 A 
ATOM     14  C   UNL     1      11.829  12.920  17.757  0.00  0.00    +0.000 A 
ATOM     15  C   UNL     1      10.800  12.390  18.537  0.00  0.00    +0.000 A 
ATOM     16  C   UNL     1       9.688  13.198  18.806  0.00  0.00    +0.000 A 
ATOM     17  C   UNL     1       9.553  14.489  18.260  0.00  0.00    +0.000 A 
BRANCH  12  19
ATOM     18  C   UNL     1      11.330  17.223  17.290  0.00  0.00    +0.000 C 
ATOM     19  O   UNL     1      10.423  16.216  16.844  0.00  0.00    +0.000 OA
ENDBRANCH  12  19
BRANCH  17  20
ATOM     20  O   UNL     1       8.378  15.083  18.638  0.00  0.00    +0.000 OA
ATOM     21  C   UNL     1       7.240  14.973  17.798  0.00  0.00    +0.000 C 
ENDBRANCH  17  20
ENDBRANCH  11  15
ENDBRANCH  10  11
ENDBRANCH   6  10
ENDBRANCH   1   7
BRANCH   5  22
ATOM     22  N   UNL     1       8.467   6.464  19.393  0.00  0.00    +0.000 N 
ATOM     23  H   UNL     1       8.933   7.126  20.020  0.00  0.00    +0.000 HD
ATOM     24  H   UNL     1       8.123   5.638  19.894  0.00  0.00    +0.000 HD
ENDBRANCH   5  22
BRANCH   4  25
ATOM     25  C   UNL     1       6.801   4.586  17.676  0.00  0.00    +0.000 C 
BRANCH  25  26
ATOM     26  C   UNL     1       5.723   4.380  18.713  0.00  0.00    +0.000 C 
ATOM     27  O   UNL     1       5.995   4.389  19.914  0.00  0.00    +0.000 OA
ATOM     28  N   UNL     1       4.453   4.169  18.190  0.00  0.00    +0.000 N 
ATOM     29  H   UNL     1       4.414   3.753  17.266  0.00  0.00    +0.000 HD
BRANCH  28  30
ATOM     30  C   UNL     1       3.316   3.987  19.014  0.00  0.00    +0.000 A 
ATOM     31  C   UNL     1       2.727   5.083  19.661  0.00  0.00    +0.000 A 
ATOM     32  C   UNL     1       1.604   4.911  20.473  0.00  0.00    +0.000 A 
ATOM     33  C   UNL     1       1.070   3.640  20.659  0.00  0.00    +0.000 A 
ATOM     34  C   UNL     1       1.642   2.546  20.010  0.00  0.00    +0.000 A 
ATOM     35  C   UNL     1       2.762   2.705  19.173  0.00  0.00    +0.000 A 
ATOM     36  C   UNL     1       3.349   1.489  18.514  0.00  0.00    +0.000 C 
ENDBRANCH  28  30
ENDBRANCH  25  26
ENDBRANCH   4  25
TORSDOF 10
ENDMDL
MODEL 5
REMARK VINA RESULT:      -7.9      5.536      8.973
REMARK  Name = 
REMARK  13 active torsions:
REMARK  status: ('A' for Active; 'I' for Inactive)
REMARK    1  A    between atoms: C_1  and  O_2
REMARK    2  A    between atoms: O_2  and  C_3
REMARK    3  A    between atoms: C_6  and  C_7
REMARK    4  A    between atoms: C_7  and  C_8
REMARK    5  A    between atoms: C_8  and  N_9
REMARK    6  A    between atoms: C_10  and  C_12
REMARK    7  A    between atoms: N_15  and  C_16
REMARK    8  A    between atoms: C_16  and  C_17
REMARK    9  A    between atoms: N_19  and  C_20
REMARK   10  A    between atoms: C_25  and  C_26
REMARK   11  A    between atoms: C_27  and  N_28
REMARK   12  A    between atoms: C_30  and  O_31
REMARK   13  A    between atoms: O_31  and  C_32
REMARK                            x       y       z     vdW  Elec       q    Type
REMARK                         _______ _______ _______ _____ _____    ______ ____
ROOT
ATOM      1  C   UNL     1       2.156   7.295  19.349  0.00  0.00    +0.000 A 
ATOM      2  N   UNL     1       2.427   7.823  18.104  0.00  0.00    +0.000 NA
ATOM      3  N   UNL     1       2.030   9.090  18.088  0.00  0.00    +0.000 NA
ATOM      4  N   UNL     1       1.527   9.381  19.311  0.00  0.00    +0.000 N 
ATOM      5  C   UNL     1       1.574   8.281  20.133  0.00  0.00    +0.000 A 
ENDROOT
BRANCH   1   7
ATOM      6  N   UNL     1       2.576   5.031  18.658  0.00  0.00    +0.000 N 
ATOM      7  C   UNL     1       2.418   5.907  19.718  0.00  0.00    +0.000 C 
ATOM      8  O   UNL     1       2.490   5.536  20.887  0.00  0.00    +0.000 OA
ATOM      9  H   UNL     1       2.510   5.408  17.719  0.00  0.00    +0.000 HD
BRANCH   6  10
ATOM     10  C   UNL     1       2.773   3.608  18.893  0.00  0.00    +0.000 C 
BRANCH  10  11
ATOM     11  C   UNL     1       4.232   3.170  18.765  0.00  0.00    +0.000 C 
BRANCH  11  15
ATOM     12  C   UNL     1       6.939   6.244  17.320  0.00  0.00    +0.000 A 
ATOM     13  C   UNL     1       6.788   6.005  18.697  0.00  0.00    +0.000 A 
ATOM     14  C   UNL     1       5.911   5.024  19.170  0.00  0.00    +0.000 A 
ATOM     15  C   UNL     1       5.142   4.275  18.278  0.00  0.00    +0.000 A 
ATOM     16  C   UNL     1       5.234   4.572  16.912  0.00  0.00    +0.000 A 
ATOM     17  C   UNL     1       6.122   5.547  16.418  0.00  0.00    +0.000 A 
BRANCH  12  19
ATOM     18  C   UNL     1       7.998   8.344  17.630  0.00  0.00    +0.000 C 
ATOM     19  O   UNL     1       7.842   7.159  16.849  0.00  0.00    +0.000 OA
ENDBRANCH  12  19
BRANCH  17  20
ATOM     20  O   UNL     1       6.060   5.650  15.053  0.00  0.00    +0.000 OA
ATOM     21  C   UNL     1       6.254   4.491  14.258  0.00  0.00    +0.000 C 
ENDBRANCH  17  20
ENDBRANCH  11  15
ENDBRANCH  10  11
ENDBRANCH   6  10
ENDBRANCH   1   7
BRANCH   5  22
ATOM     22  N   UNL     1       1.131   8.285  21.412  0.00  0.00    +0.000 N 
ATOM     23  H   UNL     1       0.168   8.051  21.669  0.00  0.00    +0.000 HD
ATOM     24  H   UNL     1       1.796   8.040  22.154  0.00  0.00    +0.000 HD
ENDBRANCH   5  22
BRANCH   4  25
ATOM     25  C   UNL     1       1.170  10.745  19.624  0.00  0.00    +0.000 C 
BRANCH  25  26
ATOM     26  C   UNL     1       0.035  11.259  18.771  0.00  0.00    +0.000 C 
ATOM     27  O   UNL     1       0.105  12.365  18.232  0.00  0.00    +0.000 OA
ATOM     28  N   UNL     1      -1.053  10.401  18.679  0.00  0.00    +0.000 N 
ATOM     29  H   UNL     1      -1.196   9.776  19.465  0.00  0.00    +0.000 HD
BRANCH  28  30
ATOM     30  C   UNL     1      -2.194  10.706  17.898  0.00  0.00    +0.000 A 
ATOM     31  C   UNL     1      -2.348  10.146  16.622  0.00  0.00    +0.000 A 
ATOM     32  C   UNL     1      -3.473  10.441  15.847  0.00  0.00    +0.000 A 
ATOM     33  C   UNL     1      -4.443  11.310  16.334  0.00  0.00    +0.000 A 
ATOM     34  C   UNL     1      -4.304  11.862  17.608  0.00  0.00    +0.000 A 
ATOM     35  C   UNL     1      -3.187  11.560  18.408  0.00  0.00    +0.000 A 
ATOM     36  C   UNL     1      -3.078  12.198  19.765  0.00  0.00    +0.000 C 
ENDBRANCH  28  30
ENDBRANCH  25  26
ENDBRANCH   4  25
TORSDOF 10
ENDMDL
MODEL 6
REMARK VINA RESULT:      -7.9      1.126      1.192
REMARK  Name = 
REMARK  13 active torsions:
REMARK  status: ('A' for Active; 'I' for Inactive)
REMARK    1  A    between atoms: C_1  and  O_2
REMARK    2  A    between atoms: O_2  and  C_3
REMARK    3  A    between atoms: C_6  and  C_7
REMARK    4  A    between atoms: C_7  and  C_8
REMARK    5  A    between atoms: C_8  and  N_9
REMARK    6  A    between atoms: C_10  and  C_12
REMARK    7  A    between atoms: N_15  and  C_16
REMARK    8  A    between atoms: C_16  and  C_17
REMARK    9  A    between atoms: N_19  and  C_20
REMARK   10  A    between atoms: C_25  and  C_26
REMARK   11  A    between atoms: C_27  and  N_28
REMARK   12  A    between atoms: C_30  and  O_31
REMARK   13  A    between atoms: O_31  and  C_32
REMARK                            x       y       z     vdW  Elec       q    Type
REMARK                         _______ _______ _______ _____ _____    ______ ____
ROOT
ATOM      1  C   UNL     1       6.825   6.743  17.425  0.00  0.00    +0.000 A 
ATOM      2  N   UNL     1       5.824   7.361  16.703  0.00  0.00    +0.000 NA
ATOM      3  N   UNL     1       5.101   6.425  16.100  0.00  0.00    +0.000 NA
ATOM      4  N   UNL     1       5.614   5.221  16.443  0.00  0.00    +0.000 N 
ATOM      5  C   UNL     1       6.706   5.370  17.264  0.00  0.00    +0.000 A 
ENDROOT
BRANCH   1   7
ATOM      6  N   UNL     1       7.958   8.811  17.890  0.00  0.00    +0.000 N 
ATOM      7  C   UNL     1       7.843   7.463  18.183  0.00  0.00    +0.000 C 
ATOM      8  O   UNL     1       8.555   6.915  19.021  0.00  0.00    +0.000 OA
ATOM      9  H   UNL     1       7.334   9.199  17.191  0.00  0.00    +0.000 HD
BRANCH   6  10
ATOM     10  C   UNL     1       8.984   9.625  18.527  0.00  0.00    +0.000 C 
BRANCH  10  11
ATOM     11  C   UNL     1       9.025  11.062  18.007  0.00  0.00    +0.000 C 
BRANCH  11  15
ATOM     12  C   UNL     1       9.626  14.058  21.094  0.00  0.00    +0.000 A 
ATOM     13  C   UNL     1       9.962  12.713  21.320  0.00  0.00    +0.000 A 
ATOM     14  C   UNL     1       9.762  11.740  20.335  0.00  0.00    +0.000 A 
ATOM     15  C   UNL     1       9.195  12.086  19.107  0.00  0.00    +0.000 A 
ATOM     16  C   UNL     1       8.785  13.412  18.915  0.00  0.00    +0.000 A 
ATOM     17  C   UNL     1       8.992  14.405  19.892  0.00  0.00    +0.000 A 
BRANCH  12  19
ATOM     18  C   UNL     1      10.928  15.938  21.722  0.00  0.00    +0.000 C 
ATOM     19  O   UNL     1       9.877  15.024  22.031  0.00  0.00    +0.000 OA
ENDBRANCH  12  19
BRANCH  17  20
ATOM     20  O   UNL     1       8.535  15.629  19.479  0.00  0.00    +0.000 OA
ATOM     21  C   UNL     1       7.150  15.809  19.230  0.00  0.00    +0.000 C 
ENDBRANCH  17  20
ENDBRANCH  11  15
ENDBRANCH  10  11
ENDBRANCH   6  10
ENDBRANCH   1   7
BRANCH   5  22
ATOM     22  N   UNL     1       7.419   4.330  17.756  0.00  0.00    +0.000 N 
ATOM     23  H   UNL     1       7.062   3.371  17.778  0.00  0.00    +0.000 HD
ATOM     24  H   UNL     1       8.440   4.356  17.659  0.00  0.00    +0.000 HD
ENDBRANCH   5  22
BRANCH   4  25
ATOM     25  C   UNL     1       4.916   4.016  16.056  0.00  0.00    +0.000 C 
BRANCH  25  26
ATOM     26  C   UNL     1       3.799   3.662  17.008  0.00  0.00    +0.000 C 
ATOM     27  O   UNL     1       2.789   3.085  16.605  0.00  0.00    +0.000 OA
ATOM     28  N   UNL     1       4.015   4.056  18.323  0.00  0.00    +0.000 N 
ATOM     29  H   UNL     1       4.614   4.864  18.454  0.00  0.00    +0.000 HD
BRANCH  28  30
ATOM     30  C   UNL     1       3.088   3.781  19.357  0.00  0.00    +0.000 A 
ATOM     31  C   UNL     1       1.886   4.499  19.440  0.00  0.00    +0.000 A 
ATOM     32  C   UNL     1       0.966   4.232  20.456  0.00  0.00    +0.000 A 
ATOM     33  C   UNL     1       1.247   3.258  21.408  0.00  0.00    +0.000 A 
ATOM     34  C   UNL     1       2.434   2.530  21.326  0.00  0.00    +0.000 A 
ATOM     35  C   UNL     1       3.362   2.774  20.298  0.00  0.00    +0.000 A 
ATOM     36  C   UNL     1       4.634   1.973  20.269  0.00  0.00    +0.000 C 
ENDBRANCH  28  30
ENDBRANCH  25  26
ENDBRANCH   4  25
TORSDOF 10
ENDMDL
MODEL 7
REMARK VINA RESULT:      -7.7      1.539      2.453
REMARK  Name = 
REMARK  13 active torsions:
REMARK  status: ('A' for Active; 'I' for Inactive)
REMARK    1  A    between atoms: C_1  and  O_2
REMARK    2  A    between atoms: O_2  and  C_3
REMARK    3  A    between atoms: C_6  and  C_7
REMARK    4  A    between atoms: C_7  and  C_8
REMARK    5  A    between atoms: C_8  and  N_9
REMARK    6  A    between atoms: C_10  and  C_12
REMARK    7  A    between atoms: N_15  and  C_16
REMARK    8  A    between atoms: C_16  and  C_17
REMARK    9  A    between atoms: N_19  and  C_20
REMARK   10  A    between atoms: C_25  and  C_26
REMARK   11  A    between atoms: C_27  and  N_28
REMARK   12  A    between atoms: C_30  and  O_31
REMARK   13  A    between atoms: O_31  and  C_32
REMARK                            x       y       z     vdW  Elec       q    Type
REMARK                         _______ _______ _______ _____ _____    ______ ____
ROOT
ATOM      1  C   UNL     1       7.614   7.168  17.970  0.00  0.00    +0.000 A 
ATOM      2  N   UNL     1       8.098   6.197  18.822  0.00  0.00    +0.000 NA
ATOM      3  N   UNL     1       7.483   5.053  18.549  0.00  0.00    +0.000 NA
ATOM      4  N   UNL     1       6.628   5.277  17.524  0.00  0.00    +0.000 N 
ATOM      5  C   UNL     1       6.666   6.595  17.134  0.00  0.00    +0.000 A 
ENDROOT
BRANCH   1   7
ATOM      6  N   UNL     1       8.925   8.890  19.017  0.00  0.00    +0.000 N 
ATOM      7  C   UNL     1       8.032   8.566  18.010  0.00  0.00    +0.000 C 
ATOM      8  O   UNL     1       7.619   9.403  17.210  0.00  0.00    +0.000 OA
ATOM      9  H   UNL     1       9.228   8.148  19.638  0.00  0.00    +0.000 HD
BRANCH   6  10
ATOM     10  C   UNL     1       9.363  10.265  19.207  0.00  0.00    +0.000 C 
BRANCH  10  11
ATOM     11  C   UNL     1       9.353  10.706  20.671  0.00  0.00    +0.000 C 
BRANCH  11  15
ATOM     12  C   UNL     1      10.566  14.848  21.160  0.00  0.00    +0.000 A 
ATOM     13  C   UNL     1      11.183  14.025  20.202  0.00  0.00    +0.000 A 
ATOM     14  C   UNL     1      10.805  12.687  20.046  0.00  0.00    +0.000 A 
ATOM     15  C   UNL     1       9.819  12.132  20.863  0.00  0.00    +0.000 A 
ATOM     16  C   UNL     1       9.265  12.932  21.871  0.00  0.00    +0.000 A 
ATOM     17  C   UNL     1       9.624  14.284  22.033  0.00  0.00    +0.000 A 
BRANCH  12  19
ATOM     18  C   UNL     1      10.109  17.078  20.492  0.00  0.00    +0.000 C 
ATOM     19  O   UNL     1      10.888  16.174  21.275  0.00  0.00    +0.000 OA
ENDBRANCH  12  19
BRANCH  17  20
ATOM     20  O   UNL     1       8.940  14.874  23.062  0.00  0.00    +0.000 OA
ATOM     21  C   UNL     1       7.570  14.563  23.258  0.00  0.00    +0.000 C 
ENDBRANCH  17  20
ENDBRANCH  11  15
ENDBRANCH  10  11
ENDBRANCH   6  10
ENDBRANCH   1   7
BRANCH   5  22
ATOM     22  N   UNL     1       5.909   7.100  16.133  0.00  0.00    +0.000 N 
ATOM     23  H   UNL     1       5.361   6.512  15.499  0.00  0.00    +0.000 HD
ATOM     24  H   UNL     1       5.479   8.020  16.271  0.00  0.00    +0.000 HD
ENDBRANCH   5  22
BRANCH   4  25
ATOM     25  C   UNL     1       5.944   4.160  16.913  0.00  0.00    +0.000 C 
BRANCH  25  26
ATOM     26  C   UNL     1       4.641   3.831  17.601  0.00  0.00    +0.000 C 
ATOM     27  O   UNL     1       3.691   3.376  16.963  0.00  0.00    +0.000 OA
ATOM     28  N   UNL     1       4.624   4.101  18.963  0.00  0.00    +0.000 N 
ATOM     29  H   UNL     1       5.240   4.843  19.279  0.00  0.00    +0.000 HD
BRANCH  28  30
ATOM     30  C   UNL     1       3.496   3.828  19.775  0.00  0.00    +0.000 A 
ATOM     31  C   UNL     1       2.381   4.677  19.747  0.00  0.00    +0.000 A 
ATOM     32  C   UNL     1       1.264   4.413  20.543  0.00  0.00    +0.000 A 
ATOM     33  C   UNL     1       1.260   3.307  21.387  0.00  0.00    +0.000 A 
ATOM     34  C   UNL     1       2.360   2.449  21.412  0.00  0.00    +0.000 A 
ATOM     35  C   UNL     1       3.485   2.692  20.602  0.00  0.00    +0.000 A 
ATOM     36  C   UNL     1       4.650   1.746  20.684  0.00  0.00    +0.000 C 
ENDBRANCH  28  30
ENDBRANCH  25  26
ENDBRANCH   4  25
TORSDOF 10
ENDMDL
MODEL 8
REMARK VINA RESULT:      -7.6      1.951      2.505
REMARK  Name = 
REMARK  13 active torsions:
REMARK  status: ('A' for Active; 'I' for Inactive)
REMARK    1  A    between atoms: C_1  and  O_2
REMARK    2  A    between atoms: O_2  and  C_3
REMARK    3  A    between atoms: C_6  and  C_7
REMARK    4  A    between atoms: C_7  and  C_8
REMARK    5  A    between atoms: C_8  and  N_9
REMARK    6  A    between atoms: C_10  and  C_12
REMARK    7  A    between atoms: N_15  and  C_16
REMARK    8  A    between atoms: C_16  and  C_17
REMARK    9  A    between atoms: N_19  and  C_20
REMARK   10  A    between atoms: C_25  and  C_26
REMARK   11  A    between atoms: C_27  and  N_28
REMARK   12  A    between atoms: C_30  and  O_31
REMARK   13  A    between atoms: O_31  and  C_32
REMARK                            x       y       z     vdW  Elec       q    Type
REMARK                         _______ _______ _______ _____ _____    ______ ____
ROOT
ATOM      1  C   UNL     1       7.879   7.794  17.982  0.00  0.00    +0.000 A 
ATOM      2  N   UNL     1       7.272   7.926  16.750  0.00  0.00    +0.000 NA
ATOM      3  N   UNL     1       6.806   6.738  16.381  0.00  0.00    +0.000 NA
ATOM      4  N   UNL     1       7.091   5.857  17.368  0.00  0.00    +0.000 N 
ATOM      5  C   UNL     1       7.775   6.472  18.390  0.00  0.00    +0.000 A 
ENDROOT
BRANCH   1   7
ATOM      6  N   UNL     1       8.598  10.088  17.992  0.00  0.00    +0.000 N 
ATOM      7  C   UNL     1       8.545   8.889  18.681  0.00  0.00    +0.000 C 
ATOM      8  O   UNL     1       9.031   8.759  19.802  0.00  0.00    +0.000 OA
ATOM      9  H   UNL     1       8.172  10.125  17.072  0.00  0.00    +0.000 HD
BRANCH   6  10
ATOM     10  C   UNL     1       9.297  11.236  18.551  0.00  0.00    +0.000 C 
BRANCH  10  11
ATOM     11  C   UNL     1      10.057  12.050  17.504  0.00  0.00    +0.000 C 
BRANCH  11  15
ATOM     12  C   UNL     1       9.489  16.342  17.848  0.00  0.00    +0.000 A 
ATOM     13  C   UNL     1      10.771  15.797  17.670  0.00  0.00    +0.000 A 
ATOM     14  C   UNL     1      10.964  14.415  17.568  0.00  0.00    +0.000 A 
ATOM     15  C   UNL     1       9.880  13.543  17.670  0.00  0.00    +0.000 A 
ATOM     16  C   UNL     1       8.614  14.084  17.931  0.00  0.00    +0.000 A 
ATOM     17  C   UNL     1       8.401  15.473  18.022  0.00  0.00    +0.000 A 
BRANCH  12  19
ATOM     18  C   UNL     1      10.361  18.503  17.404  0.00  0.00    +0.000 C 
ATOM     19  O   UNL     1       9.287  17.696  17.886  0.00  0.00    +0.000 OA
ENDBRANCH  12  19
BRANCH  17  20
ATOM     20  O   UNL     1       7.085  15.774  18.257  0.00  0.00    +0.000 OA
ATOM     21  C   UNL     1       6.509  15.447  19.511  0.00  0.00    +0.000 C 
ENDBRANCH  17  20
ENDBRANCH  11  15
ENDBRANCH  10  11
ENDBRANCH   6  10
ENDBRANCH   1   7
BRANCH   5  22
ATOM     22  N   UNL     1       8.192   5.826  19.504  0.00  0.00    +0.000 N 
ATOM     23  H   UNL     1       7.736   5.935  20.414  0.00  0.00    +0.000 HD
ATOM     24  H   UNL     1       8.611   4.897  19.395  0.00  0.00    +0.000 HD
ENDBRANCH   5  22
BRANCH   4  25
ATOM     25  C   UNL     1       6.552   4.519  17.301  0.00  0.00    +0.000 C 
BRANCH  25  26
ATOM     26  C   UNL     1       5.474   4.275  18.331  0.00  0.00    +0.000 C 
ATOM     27  O   UNL     1       5.749   3.774  19.422  0.00  0.00    +0.000 OA
ATOM     28  N   UNL     1       4.197   4.641  17.926  0.00  0.00    +0.000 N 
ATOM     29  H   UNL     1       4.020   4.613  16.927  0.00  0.00    +0.000 HD
BRANCH  28  30
ATOM     30  C   UNL     1       3.069   4.511  18.771  0.00  0.00    +0.000 A 
ATOM     31  C   UNL     1       2.794   5.486  19.740  0.00  0.00    +0.000 A 
ATOM     32  C   UNL     1       1.681   5.366  20.576  0.00  0.00    +0.000 A 
ATOM     33  C   UNL     1       0.844   4.261  20.462  0.00  0.00    +0.000 A 
ATOM     34  C   UNL     1       1.102   3.292  19.492  0.00  0.00    +0.000 A 
ATOM     35  C   UNL     1       2.208   3.408  18.630  0.00  0.00    +0.000 A 
ATOM     36  C   UNL     1       2.450   2.325  17.616  0.00  0.00    +0.000 C 
ENDBRANCH  28  30
ENDBRANCH  25  26
ENDBRANCH   4  25
TORSDOF 10
ENDMDL
MODEL 9
REMARK VINA RESULT:      -7.6      1.500      2.617
REMARK  Name = 
REMARK  13 active torsions:
REMARK  status: ('A' for Active; 'I' for Inactive)
REMARK    1  A    between atoms: C_1  and  O_2
REMARK    2  A    between atoms: O_2  and  C_3
REMARK    3  A    between atoms: C_6  and  C_7
REMARK    4  A    between atoms: C_7  and  C_8
REMARK    5  A    between atoms: C_8  and  N_9
REMARK    6  A    between atoms: C_10  and  C_12
REMARK    7  A    between atoms: N_15  and  C_16
REMARK    8  A    between atoms: C_16  and  C_17
REMARK    9  A    between atoms: N_19  and  C_20
REMARK   10  A    between atoms: C_25  and  C_26
REMARK   11  A    between atoms: C_27  and  N_28
REMARK   12  A    between atoms: C_30  and  O_31
REMARK   13  A    between atoms: O_31  and  C_32
REMARK                            x       y       z     vdW  Elec       q    Type
REMARK                         _______ _______ _______ _____ _____    ______ ____
ROOT
ATOM      1  C   UNL     1       7.403   6.865  17.852  0.00  0.00    +0.000 A 
ATOM      2  N   UNL     1       7.794   5.889  18.745  0.00  0.00    +0.000 NA
ATOM      3  N   UNL     1       7.164   4.762  18.438  0.00  0.00    +0.000 NA
ATOM      4  N   UNL     1       6.392   5.001  17.353  0.00  0.00    +0.000 N 
ATOM      5  C   UNL     1       6.501   6.313  16.955  0.00  0.00    +0.000 A 
ENDROOT
BRANCH   1   7
ATOM      6  N   UNL     1       8.849   8.510  18.845  0.00  0.00    +0.000 N 
ATOM      7  C   UNL     1       7.861   8.250  17.911  0.00  0.00    +0.000 C 
ATOM      8  O   UNL     1       7.402   9.130  17.185  0.00  0.00    +0.000 OA
ATOM      9  H   UNL     1       9.185   7.735  19.406  0.00  0.00    +0.000 HD
BRANCH   6  10
ATOM     10  C   UNL     1       9.340   9.865  19.050  0.00  0.00    +0.000 C 
BRANCH  10  11
ATOM     11  C   UNL     1       8.981  10.437  20.422  0.00  0.00    +0.000 C 
BRANCH  11  15
ATOM     12  C   UNL     1      10.566  14.429  21.065  0.00  0.00    +0.000 A 
ATOM     13  C   UNL     1      11.083  13.604  20.053  0.00  0.00    +0.000 A 
ATOM     14  C   UNL     1      10.585  12.313  19.846  0.00  0.00    +0.000 A 
ATOM     15  C   UNL     1       9.575  11.807  20.666  0.00  0.00    +0.000 A 
ATOM     16  C   UNL     1       9.120  12.601  21.726  0.00  0.00    +0.000 A 
ATOM     17  C   UNL     1       9.601  13.908  21.939  0.00  0.00    +0.000 A 
BRANCH  12  19
ATOM     18  C   UNL     1      11.816  16.242  20.181  0.00  0.00    +0.000 C 
ATOM     19  O   UNL     1      11.007  15.715  21.232  0.00  0.00    +0.000 OA
ENDBRANCH  12  19
BRANCH  17  20
ATOM     20  O   UNL     1       8.998  14.504  23.015  0.00  0.00    +0.000 OA
ATOM     21  C   UNL     1       7.790  15.225  22.826  0.00  0.00    +0.000 C 
ENDBRANCH  17  20
ENDBRANCH  11  15
ENDBRANCH  10  11
ENDBRANCH   6  10
ENDBRANCH   1   7
BRANCH   5  22
ATOM     22  N   UNL     1       5.833   6.830  15.897  0.00  0.00    +0.000 N 
ATOM     23  H   UNL     1       6.297   7.348  15.146  0.00  0.00    +0.000 HD
ATOM     24  H   UNL     1       5.000   6.335  15.564  0.00  0.00    +0.000 HD
ENDBRANCH   5  22
BRANCH   4  25
ATOM     25  C   UNL     1       5.719   3.900  16.703  0.00  0.00    +0.000 C 
BRANCH  25  26
ATOM     26  C   UNL     1       4.587   3.342  17.532  0.00  0.00    +0.000 C 
ATOM     27  O   UNL     1       4.053   2.274  17.229  0.00  0.00    +0.000 OA
ATOM     28  N   UNL     1       4.216   4.135  18.610  0.00  0.00    +0.000 N 
ATOM     29  H   UNL     1       4.387   5.131  18.512  0.00  0.00    +0.000 HD
BRANCH  28  30
ATOM     30  C   UNL     1       3.192   3.756  19.512  0.00  0.00    +0.000 A 
ATOM     31  C   UNL     1       3.509   3.075  20.696  0.00  0.00    +0.000 A 
ATOM     32  C   UNL     1       2.504   2.700  21.592  0.00  0.00    +0.000 A 
ATOM     33  C   UNL     1       1.174   2.988  21.303  0.00  0.00    +0.000 A 
ATOM     34  C   UNL     1       0.852   3.676  20.134  0.00  0.00    +0.000 A 
ATOM     35  C   UNL     1       1.853   4.077  19.231  0.00  0.00    +0.000 A 
ATOM     36  C   UNL     1       1.447   4.799  17.976  0.00  0.00    +0.000 C 
ENDBRANCH  28  30
ENDBRANCH  25  26
ENDBRANCH   4  25
TORSDOF 10
ENDMDL
