MODEL 1
REMARK VINA RESULT:      -7.2      0.000      0.000
REMARK  Name = 
REMARK  8 active torsions:
REMARK  status: ('A' for Active; 'I' for Inactive)
REMARK    1  A    between atoms: C_1  and  O_2
REMARK    2  A    between atoms: O_2  and  C_3
REMARK    3  A    between atoms: C_3  and  C_5
REMARK    4  A    between atoms: C_8  and  N_9
REMARK    5  A    between atoms: N_9  and  C_10
REMARK    6  A    between atoms: C_10  and  C_11
REMARK    7  A    between atoms: C_18  and  O_19
REMARK    8  A    between atoms: C_21  and  O_22
REMARK                            x       y       z     vdW  Elec       q    Type
REMARK                         _______ _______ _______ _____ _____    ______ ____
ROOT
ATOM      1  N   UNL     1       5.735   5.313  17.884  0.00  0.00    +0.000 N 
ATOM      2  H   UNL     1       6.550   5.785  18.270  0.00  0.00    +0.000 HD
ENDROOT
BRANCH   1   6
ATOM      3  C   UNL     1       6.323   4.203  13.832  0.00  0.00    +0.000 A 
ATOM      4  C   UNL     1       5.237   3.725  14.571  0.00  0.00    +0.000 A 
ATOM      5  C   UNL     1       5.055   4.123  15.900  0.00  0.00    +0.000 A 
ATOM      6  C   UNL     1       5.922   5.036  16.519  0.00  0.00    +0.000 A 
ATOM      7  C   UNL     1       7.009   5.508  15.768  0.00  0.00    +0.000 A 
ATOM      8  C   UNL     1       7.199   5.110  14.433  0.00  0.00    +0.000 A 
BRANCH   3   9
ATOM      9  C   UNL     1       6.463   3.699  12.440  0.00  0.00    +0.000 C 
ATOM     10  O   UNL     1       7.348   4.072  11.685  0.00  0.00    +0.000 OA
BRANCH   9  12
ATOM     11  C   UNL     1       5.793   1.747  11.342  0.00  0.00    +0.000 C 
ATOM     12  O   UNL     1       5.424   2.894  12.107  0.00  0.00    +0.000 OA
ENDBRANCH   9  12
ENDBRANCH   3   9
BRANCH   8  13
ATOM     13  O   UNL     1       8.239   5.645  13.720  0.00  0.00    +0.000 OA
ATOM     14  H   UNL     1       8.504   6.492  14.112  0.00  0.00    +0.000 HD
ENDBRANCH   8  13
ENDBRANCH   1   6
BRANCH   1  15
ATOM     15  C   UNL     1       5.300   4.228  18.770  0.00  0.00    +0.000 C 
BRANCH  15  16
ATOM     16  C   UNL     1       4.021   4.587  19.507  0.00  0.00    +0.000 A 
ATOM     17  C   UNL     1       3.483   5.887  19.475  0.00  0.00    +0.000 A 
ATOM     18  C   UNL     1       2.280   6.182  20.126  0.00  0.00    +0.000 A 
ATOM     19 CL   UNL     1       1.658   7.786  20.087  0.00  0.00    +0.000 Cl
ATOM     20  C   UNL     1       1.571   5.192  20.801  0.00  0.00    +0.000 A 
ATOM     21  C   UNL     1       2.075   3.896  20.817  0.00  0.00    +0.000 A 
ATOM     22 CL   UNL     1       1.191   2.659  21.631  0.00  0.00    +0.000 Cl
ATOM     23  C   UNL     1       3.283   3.596  20.173  0.00  0.00    +0.000 A 
BRANCH  23  24
ATOM     24  O   UNL     1       3.767   2.312  20.171  0.00  0.00    +0.000 OA
ATOM     25  H   UNL     1       4.740   2.366  20.109  0.00  0.00    +0.000 HD
ENDBRANCH  23  24
ENDBRANCH  15  16
ENDBRANCH   1  15
TORSDOF 7
ENDMDL
MODEL 2
REMARK VINA RESULT:      -7.1      1.351      1.420
REMARK  Name = 
REMARK  8 active torsions:
REMARK  status: ('A' for Active; 'I' for Inactive)
REMARK    1  A    between atoms: C_1  and  O_2
REMARK    2  A    between atoms: O_2  and  C_3
REMARK    3  A    between atoms: C_3  and  C_5
REMARK    4  A    between atoms: C_8  and  N_9
REMARK    5  A    between atoms: N_9  and  C_10
REMARK    6  A    between atoms: C_10  and  C_11
REMARK    7  A    between atoms: C_18  and  O_19
REMARK    8  A    between atoms: C_21  and  O_22
REMARK                            x       y       z     vdW  Elec       q    Type
REMARK                         _______ _______ _______ _____ _____    ______ ____
ROOT
ATOM      1  N   UNL     1       7.097   4.351  18.211  0.00  0.00    +0.000 N 
ATOM      2  H   UNL     1       6.944   3.433  18.623  0.00  0.00    +0.000 HD
ENDROOT
BRANCH   1   6
ATOM      3  C   UNL     1       6.279   4.012  14.063  0.00  0.00    +0.000 A 
ATOM      4  C   UNL     1       5.529   3.318  15.015  0.00  0.00    +0.000 A 
ATOM      5  C   UNL     1       5.806   3.463  16.379  0.00  0.00    +0.000 A 
ATOM      6  C   UNL     1       6.809   4.332  16.836  0.00  0.00    +0.000 A 
ATOM      7  C   UNL     1       7.556   5.023  15.872  0.00  0.00    +0.000 A 
ATOM      8  C   UNL     1       7.284   4.879  14.499  0.00  0.00    +0.000 A 
BRANCH   3   9
ATOM      9  C   UNL     1       5.943   3.770  12.634  0.00  0.00    +0.000 C 
ATOM     10  O   UNL     1       6.756   3.895  11.732  0.00  0.00    +0.000 OA
BRANCH   9  12
ATOM     11  C   UNL     1       4.229   3.226  11.140  0.00  0.00    +0.000 C 
ATOM     12  O   UNL     1       4.618   3.526  12.481  0.00  0.00    +0.000 OA
ENDBRANCH   9  12
ENDBRANCH   3   9
BRANCH   8  13
ATOM     13  O   UNL     1       7.998   5.622  13.597  0.00  0.00    +0.000 OA
ATOM     14  H   UNL     1       8.344   5.046  12.897  0.00  0.00    +0.000 HD
ENDBRANCH   8  13
ENDBRANCH   1   6
BRANCH   1  15
ATOM     15  C   UNL     1       6.494   5.397  19.044  0.00  0.00    +0.000 C 
BRANCH  15  16
ATOM     16  C   UNL     1       4.976   5.348  18.991  0.00  0.00    +0.000 A 
ATOM     17  C   UNL     1       4.212   6.434  18.526  0.00  0.00    +0.000 A 
ATOM     18  C   UNL     1       2.817   6.348  18.444  0.00  0.00    +0.000 A 
ATOM     19 CL   UNL     1       1.908   7.700  17.891  0.00  0.00    +0.000 Cl
ATOM     20  C   UNL     1       2.151   5.177  18.800  0.00  0.00    +0.000 A 
ATOM     21  C   UNL     1       2.896   4.087  19.235  0.00  0.00    +0.000 A 
ATOM     22 CL   UNL     1       2.081   2.625  19.656  0.00  0.00    +0.000 Cl
ATOM     23  C   UNL     1       4.292   4.169  19.325  0.00  0.00    +0.000 A 
BRANCH  23  24
ATOM     24  O   UNL     1       5.025   3.083  19.733  0.00  0.00    +0.000 OA
ATOM     25  H   UNL     1       5.857   3.082  19.220  0.00  0.00    +0.000 HD
ENDBRANCH  23  24
ENDBRANCH  15  16
ENDBRANCH   1  15
TORSDOF 7
ENDMDL
MODEL 3
REMARK VINA RESULT:      -7.0      3.657      5.513
REMARK  Name = 
REMARK  8 active torsions:
REMARK  status: ('A' for Active; 'I' for Inactive)
REMARK    1  A    between atoms: C_1  and  O_2
REMARK    2  A    between atoms: O_2  and  C_3
REMARK    3  A    between atoms: C_3  and  C_5
REMARK    4  A    between atoms: C_8  and  N_9
REMARK    5  A    between atoms: N_9  and  C_10
REMARK    6  A    between atoms: C_10  and  C_11
REMARK    7  A    between atoms: C_18  and  O_19
REMARK    8  A    between atoms: C_21  and  O_22
REMARK                            x       y       z     vdW  Elec       q    Type
REMARK                         _______ _______ _______ _____ _____    ______ ____
ROOT
ATOM      1  N   UNL     1       2.272   7.207  18.061  0.00  0.00    +0.000 N 
ATOM      2  H   UNL     1       1.611   6.739  17.444  0.00  0.00    +0.000 HD
ENDROOT
BRANCH   1   6
ATOM      3  C   UNL     1       6.032   5.293  17.625  0.00  0.00    +0.000 A 
ATOM      4  C   UNL     1       5.764   6.524  17.021  0.00  0.00    +0.000 A 
ATOM      5  C   UNL     1       4.521   7.144  17.197  0.00  0.00    +0.000 A 
ATOM      6  C   UNL     1       3.527   6.578  18.010  0.00  0.00    +0.000 A 
ATOM      7  C   UNL     1       3.807   5.342  18.610  0.00  0.00    +0.000 A 
ATOM      8  C   UNL     1       5.053   4.713  18.435  0.00  0.00    +0.000 A 
BRANCH   3   9
ATOM      9  C   UNL     1       7.362   4.686  17.354  0.00  0.00    +0.000 C 
ATOM     10  O   UNL     1       7.725   4.355  16.236  0.00  0.00    +0.000 OA
BRANCH   9  12
ATOM     11  C   UNL     1       8.204   5.595  19.337  0.00  0.00    +0.000 C 
ATOM     12  O   UNL     1       8.031   4.445  18.509  0.00  0.00    +0.000 OA
ENDBRANCH   9  12
ENDBRANCH   3   9
BRANCH   8  13
ATOM     13  O   UNL     1       5.303   3.537  19.091  0.00  0.00    +0.000 OA
ATOM     14  H   UNL     1       5.622   3.723  19.988  0.00  0.00    +0.000 HD
ENDBRANCH   8  13
ENDBRANCH   1   6
BRANCH   1  15
ATOM     15  C   UNL     1       2.203   8.661  17.882  0.00  0.00    +0.000 C 
BRANCH  15  16
ATOM     16  C   UNL     1       1.129   9.281  18.759  0.00  0.00    +0.000 A 
ATOM     17  C   UNL     1       0.095  10.071  18.223  0.00  0.00    +0.000 A 
ATOM     18  C   UNL     1      -0.909  10.595  19.045  0.00  0.00    +0.000 A 
ATOM     19 CL   UNL     1      -2.149  11.576  18.364  0.00  0.00    +0.000 Cl
ATOM     20  C   UNL     1      -0.924  10.329  20.412  0.00  0.00    +0.000 A 
ATOM     21  C   UNL     1       0.075   9.527  20.952  0.00  0.00    +0.000 A 
ATOM     22 CL   UNL     1       0.051   9.173  22.641  0.00  0.00    +0.000 Cl
ATOM     23  C   UNL     1       1.087   9.005  20.134  0.00  0.00    +0.000 A 
BRANCH  23  24
ATOM     24  O   UNL     1       2.058   8.195  20.665  0.00  0.00    +0.000 OA
ATOM     25  H   UNL     1       1.871   8.101  21.620  0.00  0.00    +0.000 HD
ENDBRANCH  23  24
ENDBRANCH  15  16
ENDBRANCH   1  15
TORSDOF 7
ENDMDL
MODEL 4
REMARK VINA RESULT:      -7.0      3.819      5.540
REMARK  Name = 
REMARK  8 active torsions:
REMARK  status: ('A' for Active; 'I' for Inactive)
REMARK    1  A    between atoms: C_1  and  O_2
REMARK    2  A    between atoms: O_2  and  C_3
REMARK    3  A    between atoms: C_3  and  C_5
REMARK    4  A    between atoms: C_8  and  N_9
REMARK    5  A    between atoms: N_9  and  C_10
REMARK    6  A    between atoms: C_10  and  C_11
REMARK    7  A    between atoms: C_18  and  O_19
REMARK    8  A    between atoms: C_21  and  O_22
REMARK                            x       y       z     vdW  Elec       q    Type
REMARK                         _______ _______ _______ _____ _____    ______ ____
ROOT
ATOM      1  N   UNL     1       2.471   7.141  19.087  0.00  0.00    +0.000 N 
ATOM      2  H   UNL     1       1.709   6.502  19.303  0.00  0.00    +0.000 HD
ENDROOT
BRANCH   1   6
ATOM      3  C   UNL     1       5.608   5.018  17.179  0.00  0.00    +0.000 A 
ATOM      4  C   UNL     1       5.139   6.236  16.679  0.00  0.00    +0.000 A 
ATOM      5  C   UNL     1       4.117   6.926  17.339  0.00  0.00    +0.000 A 
ATOM      6  C   UNL     1       3.560   6.447  18.535  0.00  0.00    +0.000 A 
ATOM      7  C   UNL     1       4.038   5.224  19.027  0.00  0.00    +0.000 A 
ATOM      8  C   UNL     1       5.063   4.524  18.366  0.00  0.00    +0.000 A 
BRANCH   3   9
ATOM      9  C   UNL     1       6.669   4.332  16.394  0.00  0.00    +0.000 C 
ATOM     10  O   UNL     1       7.858   4.572  16.534  0.00  0.00    +0.000 OA
BRANCH   9  12
ATOM     11  C   UNL     1       6.321   3.984  14.108  0.00  0.00    +0.000 C 
ATOM     12  O   UNL     1       6.128   3.526  15.447  0.00  0.00    +0.000 OA
ENDBRANCH   9  12
ENDBRANCH   3   9
BRANCH   8  13
ATOM     13  O   UNL     1       5.540   3.364  18.918  0.00  0.00    +0.000 OA
ATOM     14  H   UNL     1       6.252   3.567  19.544  0.00  0.00    +0.000 HD
ENDBRANCH   8  13
ENDBRANCH   1   6
BRANCH   1  15
ATOM     15  C   UNL     1       1.965   8.329  18.391  0.00  0.00    +0.000 C 
BRANCH  15  16
ATOM     16  C   UNL     1       1.337   9.318  19.358  0.00  0.00    +0.000 A 
ATOM     17  C   UNL     1       0.944   8.944  20.656  0.00  0.00    +0.000 A 
ATOM     18  C   UNL     1       0.408   9.884  21.544  0.00  0.00    +0.000 A 
ATOM     19 CL   UNL     1      -0.083   9.392  23.118  0.00  0.00    +0.000 Cl
ATOM     20  C   UNL     1       0.272  11.220  21.173  0.00  0.00    +0.000 A 
ATOM     21  C   UNL     1       0.682  11.610  19.903  0.00  0.00    +0.000 A 
ATOM     22 CL   UNL     1       0.538  13.268  19.445  0.00  0.00    +0.000 Cl
ATOM     23  C   UNL     1       1.213  10.672  19.008  0.00  0.00    +0.000 A 
BRANCH  23  24
ATOM     24  O   UNL     1       1.638  11.064  17.764  0.00  0.00    +0.000 OA
ATOM     25  H   UNL     1       2.614  11.037  17.766  0.00  0.00    +0.000 HD
ENDBRANCH  23  24
ENDBRANCH  15  16
ENDBRANCH   1  15
TORSDOF 7
ENDMDL
MODEL 5
REMARK VINA RESULT:      -7.0      3.364      4.497
REMARK  Name = 
REMARK  8 active torsions:
REMARK  status: ('A' for Active; 'I' for Inactive)
REMARK    1  A    between atoms: C_1  and  O_2
REMARK    2  A    between atoms: O_2  and  C_3
REMARK    3  A    between atoms: C_3  and  C_5
REMARK    4  A    between atoms: C_8  and  N_9
REMARK    5  A    between atoms: N_9  and  C_10
REMARK    6  A    between atoms: C_10  and  C_11
REMARK    7  A    between atoms: C_18  and  O_19
REMARK    8  A    between atoms: C_21  and  O_22
REMARK                            x       y       z     vdW  Elec       q    Type
REMARK                         _______ _______ _______ _____ _____    ______ ____
ROOT
ATOM      1  N   UNL     1       4.650   3.450  16.933  0.00  0.00    +0.000 N 
ATOM      2  H   UNL     1       4.941   3.127  16.013  0.00  0.00    +0.000 HD
ENDROOT
BRANCH   1   6
ATOM      3  C   UNL     1       7.195   6.685  17.958  0.00  0.00    +0.000 A 
ATOM      4  C   UNL     1       6.360   6.738  16.840  0.00  0.00    +0.000 A 
ATOM      5  C   UNL     1       5.514   5.665  16.535  0.00  0.00    +0.000 A 
ATOM      6  C   UNL     1       5.446   4.528  17.354  0.00  0.00    +0.000 A 
ATOM      7  C   UNL     1       6.290   4.485  18.473  0.00  0.00    +0.000 A 
ATOM      8  C   UNL     1       7.144   5.558  18.783  0.00  0.00    +0.000 A 
BRANCH   3   9
ATOM      9  C   UNL     1       8.090   7.851  18.187  0.00  0.00    +0.000 C 
ATOM     10  O   UNL     1       8.889   7.903  19.108  0.00  0.00    +0.000 OA
BRANCH   9  12
ATOM     11  C   UNL     1       8.328  10.129  17.717  0.00  0.00    +0.000 C 
ATOM     12  O   UNL     1       7.802   8.860  17.327  0.00  0.00    +0.000 OA
ENDBRANCH   9  12
ENDBRANCH   3   9
BRANCH   8  13
ATOM     13  O   UNL     1       7.904   5.498  19.921  0.00  0.00    +0.000 OA
ATOM     14  H   UNL     1       8.404   4.666  19.939  0.00  0.00    +0.000 HD
ENDBRANCH   8  13
ENDBRANCH   1   6
BRANCH   1  15
ATOM     15  C   UNL     1       3.191   3.586  16.993  0.00  0.00    +0.000 C 
BRANCH  15  16
ATOM     16  C   UNL     1       2.733   4.101  18.347  0.00  0.00    +0.000 A 
ATOM     17  C   UNL     1       2.554   5.474  18.599  0.00  0.00    +0.000 A 
ATOM     18  C   UNL     1       2.088   5.922  19.840  0.00  0.00    +0.000 A 
ATOM     19 CL   UNL     1       1.899   7.609  20.126  0.00  0.00    +0.000 Cl
ATOM     20  C   UNL     1       1.767   5.019  20.851  0.00  0.00    +0.000 A 
ATOM     21  C   UNL     1       1.912   3.658  20.607  0.00  0.00    +0.000 A 
ATOM     22 CL   UNL     1       1.494   2.532  21.846  0.00  0.00    +0.000 Cl
ATOM     23  C   UNL     1       2.384   3.204  19.368  0.00  0.00    +0.000 A 
BRANCH  23  24
ATOM     24  O   UNL     1       2.504   1.860  19.122  0.00  0.00    +0.000 OA
ATOM     25  H   UNL     1       2.999   1.757  18.287  0.00  0.00    +0.000 HD
ENDBRANCH  23  24
ENDBRANCH  15  16
ENDBRANCH   1  15
TORSDOF 7
ENDMDL
MODEL 6
REMARK VINA RESULT:      -6.9      3.529      5.021
REMARK  Name = 
REMARK  8 active torsions:
REMARK  status: ('A' for Active; 'I' for Inactive)
REMARK    1  A    between atoms: C_1  and  O_2
REMARK    2  A    between atoms: O_2  and  C_3
REMARK    3  A    between atoms: C_3  and  C_5
REMARK    4  A    between atoms: C_8  and  N_9
REMARK    5  A    between atoms: N_9  and  C_10
REMARK    6  A    between atoms: C_10  and  C_11
REMARK    7  A    between atoms: C_18  and  O_19
REMARK    8  A    between atoms: C_21  and  O_22
REMARK                            x       y       z     vdW  Elec       q    Type
REMARK                         _______ _______ _______ _____ _____    ______ ____
ROOT
ATOM      1  N   UNL     1       2.358   7.248  18.538  0.00  0.00    +0.000 N 
ATOM      2  H   UNL     1       1.519   6.777  18.206  0.00  0.00    +0.000 HD
ENDROOT
BRANCH   1   6
ATOM      3  C   UNL     1       5.710   5.105  17.066  0.00  0.00    +0.000 A 
ATOM      4  C   UNL     1       5.264   6.277  16.450  0.00  0.00    +0.000 A 
ATOM      5  C   UNL     1       4.168   6.977  16.968  0.00  0.00    +0.000 A 
ATOM      6  C   UNL     1       3.511   6.553  18.133  0.00  0.00    +0.000 A 
ATOM      7  C   UNL     1       3.966   5.375  18.742  0.00  0.00    +0.000 A 
ATOM      8  C   UNL     1       5.065   4.666  18.224  0.00  0.00    +0.000 A 
BRANCH   3   9
ATOM      9  C   UNL     1       6.856   4.403  16.427  0.00  0.00    +0.000 C 
ATOM     10  O   UNL     1       7.967   4.355  16.930  0.00  0.00    +0.000 OA
BRANCH   9  12
ATOM     11  C   UNL     1       7.098   4.709  14.122  0.00  0.00    +0.000 C 
ATOM     12  O   UNL     1       6.524   3.956  15.191  0.00  0.00    +0.000 OA
ENDBRANCH   9  12
ENDBRANCH   3   9
BRANCH   8  13
ATOM     13  O   UNL     1       5.513   3.555  18.888  0.00  0.00    +0.000 OA
ATOM     14  H   UNL     1       6.371   3.741  19.300  0.00  0.00    +0.000 HD
ENDBRANCH   8  13
ENDBRANCH   1   6
BRANCH   1  15
ATOM     15  C   UNL     1       2.277   8.689  18.279  0.00  0.00    +0.000 C 
BRANCH  15  16
ATOM     16  C   UNL     1       1.164   9.340  19.082  0.00  0.00    +0.000 A 
ATOM     17  C   UNL     1       0.182  10.146  18.478  0.00  0.00    +0.000 A 
ATOM     18  C   UNL     1      -0.859  10.698  19.233  0.00  0.00    +0.000 A 
ATOM     19 CL   UNL     1      -2.034  11.697  18.468  0.00  0.00    +0.000 Cl
ATOM     20  C   UNL     1      -0.964  10.445  20.598  0.00  0.00    +0.000 A 
ATOM     21  C   UNL     1      -0.016   9.627  21.204  0.00  0.00    +0.000 A 
ATOM     22 CL   UNL     1      -0.152   9.289  22.891  0.00  0.00    +0.000 Cl
ATOM     23  C   UNL     1       1.032   9.077  20.455  0.00  0.00    +0.000 A 
BRANCH  23  24
ATOM     24  O   UNL     1       1.952   8.252  21.051  0.00  0.00    +0.000 OA
ATOM     25  H   UNL     1       2.429   8.781  21.720  0.00  0.00    +0.000 HD
ENDBRANCH  23  24
ENDBRANCH  15  16
ENDBRANCH   1  15
TORSDOF 7
ENDMDL
MODEL 7
REMARK VINA RESULT:      -6.9      4.211      7.297
REMARK  Name = 
REMARK  8 active torsions:
REMARK  status: ('A' for Active; 'I' for Inactive)
REMARK    1  A    between atoms: C_1  and  O_2
REMARK    2  A    between atoms: O_2  and  C_3
REMARK    3  A    between atoms: C_3  and  C_5
REMARK    4  A    between atoms: C_8  and  N_9
REMARK    5  A    between atoms: N_9  and  C_10
REMARK    6  A    between atoms: C_10  and  C_11
REMARK    7  A    between atoms: C_18  and  O_19
REMARK    8  A    between atoms: C_21  and  O_22
REMARK                            x       y       z     vdW  Elec       q    Type
REMARK                         _______ _______ _______ _____ _____    ______ ____
ROOT
ATOM      1  N   UNL     1       3.199   4.163  19.242  0.00  0.00    +0.000 N 
ATOM      2  H   UNL     1       2.624   3.545  19.810  0.00  0.00    +0.000 HD
ENDROOT
BRANCH   1   6
ATOM      3  C   UNL     1       1.820   8.171  19.061  0.00  0.00    +0.000 A 
ATOM      4  C   UNL     1       2.107   7.443  17.903  0.00  0.00    +0.000 A 
ATOM      5  C   UNL     1       2.542   6.115  17.990  0.00  0.00    +0.000 A 
ATOM      6  C   UNL     1       2.664   5.462  19.226  0.00  0.00    +0.000 A 
ATOM      7  C   UNL     1       2.374   6.203  20.381  0.00  0.00    +0.000 A 
ATOM      8  C   UNL     1       1.940   7.538  20.300  0.00  0.00    +0.000 A 
BRANCH   3   9
ATOM      9  C   UNL     1       1.403   9.587  18.880  0.00  0.00    +0.000 C 
ATOM     10  O   UNL     1       1.972  10.354  18.120  0.00  0.00    +0.000 OA
BRANCH   9  12
ATOM     11  C   UNL     1      -0.711  10.550  19.142  0.00  0.00    +0.000 C 
ATOM     12  O   UNL     1       0.416   9.917  19.749  0.00  0.00    +0.000 OA
ENDBRANCH   9  12
ENDBRANCH   3   9
BRANCH   8  13
ATOM     13  O   UNL     1       1.609   8.201  21.452  0.00  0.00    +0.000 OA
ATOM     14  H   UNL     1       0.715   8.568  21.374  0.00  0.00    +0.000 HD
ENDBRANCH   8  13
ENDBRANCH   1   6
BRANCH   1  15
ATOM     15  C   UNL     1       4.619   3.990  19.567  0.00  0.00    +0.000 C 
BRANCH  15  16
ATOM     16  C   UNL     1       5.514   4.657  18.538  0.00  0.00    +0.000 A 
ATOM     17  C   UNL     1       6.364   5.728  18.873  0.00  0.00    +0.000 A 
ATOM     18  C   UNL     1       7.213   6.297  17.917  0.00  0.00    +0.000 A 
ATOM     19 CL   UNL     1       8.225   7.619  18.351  0.00  0.00    +0.000 Cl
ATOM     20  C   UNL     1       7.255   5.804  16.615  0.00  0.00    +0.000 A 
ATOM     21  C   UNL     1       6.442   4.729  16.277  0.00  0.00    +0.000 A 
ATOM     22 CL   UNL     1       6.506   4.097  14.672  0.00  0.00    +0.000 Cl
ATOM     23  C   UNL     1       5.585   4.158  17.228  0.00  0.00    +0.000 A 
BRANCH  23  24
ATOM     24  O   UNL     1       4.801   3.083  16.897  0.00  0.00    +0.000 OA
ATOM     25  H   UNL     1       4.301   2.828  17.697  0.00  0.00    +0.000 HD
ENDBRANCH  23  24
ENDBRANCH  15  16
ENDBRANCH   1  15
TORSDOF 7
ENDMDL
MODEL 8
REMARK VINA RESULT:      -6.9      4.261      7.291
REMARK  Name = 
REMARK  8 active torsions:
REMARK  status: ('A' for Active; 'I' for Inactive)
REMARK    1  A    between atoms: C_1  and  O_2
REMARK    2  A    between atoms: O_2  and  C_3
REMARK    3  A    between atoms: C_3  and  C_5
REMARK    4  A    between atoms: C_8  and  N_9
REMARK    5  A    between atoms: N_9  and  C_10
REMARK    6  A    between atoms: C_10  and  C_11
REMARK    7  A    between atoms: C_18  and  O_19
REMARK    8  A    between atoms: C_21  and  O_22
REMARK                            x       y       z     vdW  Elec       q    Type
REMARK                         _______ _______ _______ _____ _____    ______ ____
ROOT
ATOM      1  N   UNL     1       3.146   4.230  19.098  0.00  0.00    +0.000 N 
ATOM      2  H   UNL     1       2.542   3.584  19.603  0.00  0.00    +0.000 HD
ENDROOT
BRANCH   1   6
ATOM      3  C   UNL     1       1.846   8.267  19.167  0.00  0.00    +0.000 A 
ATOM      4  C   UNL     1       2.212   7.637  17.975  0.00  0.00    +0.000 A 
ATOM      5  C   UNL     1       2.618   6.297  17.976  0.00  0.00    +0.000 A 
ATOM      6  C   UNL     1       2.633   5.537  19.156  0.00  0.00    +0.000 A 
ATOM      7  C   UNL     1       2.266   6.180  20.346  0.00  0.00    +0.000 A 
ATOM      8  C   UNL     1       1.860   7.527  20.351  0.00  0.00    +0.000 A 
BRANCH   3   9
ATOM      9  C   UNL     1       1.466   9.702  19.080  0.00  0.00    +0.000 C 
ATOM     10  O   UNL     1       0.718  10.240  19.882  0.00  0.00    +0.000 OA
BRANCH   9  12
ATOM     11  C   UNL     1       2.323  11.638  18.088  0.00  0.00    +0.000 C 
ATOM     12  O   UNL     1       1.952  10.267  17.947  0.00  0.00    +0.000 OA
ENDBRANCH   9  12
ENDBRANCH   3   9
BRANCH   8  13
ATOM     13  O   UNL     1       1.450   8.094  21.528  0.00  0.00    +0.000 OA
ATOM     14  H   UNL     1       1.133   7.405  22.133  0.00  0.00    +0.000 HD
ENDBRANCH   8  13
ENDBRANCH   1   6
BRANCH   1  15
ATOM     15  C   UNL     1       4.551   4.007  19.454  0.00  0.00    +0.000 C 
BRANCH  15  16
ATOM     16  C   UNL     1       5.491   4.680  18.469  0.00  0.00    +0.000 A 
ATOM     17  C   UNL     1       6.353   5.723  18.856  0.00  0.00    +0.000 A 
ATOM     18  C   UNL     1       7.243   6.296  17.940  0.00  0.00    +0.000 A 
ATOM     19 CL   UNL     1       8.269   7.585  18.437  0.00  0.00    +0.000 Cl
ATOM     20  C   UNL     1       7.315   5.833  16.628  0.00  0.00    +0.000 A 
ATOM     21  C   UNL     1       6.489   4.784  16.239  0.00  0.00    +0.000 A 
ATOM     22 CL   UNL     1       6.590   4.189  14.623  0.00  0.00    +0.000 Cl
ATOM     23  C   UNL     1       5.592   4.210  17.150  0.00  0.00    +0.000 A 
BRANCH  23  24
ATOM     24  O   UNL     1       4.796   3.160  16.770  0.00  0.00    +0.000 OA
ATOM     25  H   UNL     1       4.147   3.503  16.125  0.00  0.00    +0.000 HD
ENDBRANCH  23  24
ENDBRANCH  15  16
ENDBRANCH   1  15
TORSDOF 7
ENDMDL
MODEL 9
REMARK VINA RESULT:      -6.8      3.630      5.182
REMARK  Name = 
REMARK  8 active torsions:
REMARK  status: ('A' for Active; 'I' for Inactive)
REMARK    1  A    between atoms: C_1  and  O_2
REMARK    2  A    between atoms: O_2  and  C_3
REMARK    3  A    between atoms: C_3  and  C_5
REMARK    4  A    between atoms: C_8  and  N_9
REMARK    5  A    between atoms: N_9  and  C_10
REMARK    6  A    between atoms: C_10  and  C_11
REMARK    7  A    between atoms: C_18  and  O_19
REMARK    8  A    between atoms: C_21  and  O_22
REMARK                            x       y       z     vdW  Elec       q    Type
REMARK                         _______ _______ _______ _____ _____    ______ ____
ROOT
ATOM      1  N   UNL     1       2.091   7.262  18.354  0.00  0.00    +0.000 N 
ATOM      2  H   UNL     1       1.205   6.922  17.985  0.00  0.00    +0.000 HD
ENDROOT
BRANCH   1   6
ATOM      3  C   UNL     1       5.255   5.031  16.622  0.00  0.00    +0.000 A 
ATOM      4  C   UNL     1       5.207   6.424  16.530  0.00  0.00    +0.000 A 
ATOM      5  C   UNL     1       4.162   7.138  17.128  0.00  0.00    +0.000 A 
ATOM      6  C   UNL     1       3.160   6.492  17.867  0.00  0.00    +0.000 A 
ATOM      7  C   UNL     1       3.218   5.093  17.951  0.00  0.00    +0.000 A 
ATOM      8  C   UNL     1       4.263   4.370  17.350  0.00  0.00    +0.000 A 
BRANCH   3   9
ATOM      9  C   UNL     1       6.378   4.349  15.924  0.00  0.00    +0.000 C 
ATOM     10  O   UNL     1       6.209   3.434  15.134  0.00  0.00    +0.000 OA
BRANCH   9  12
ATOM     11  C   UNL     1       7.816   4.514  17.760  0.00  0.00    +0.000 C 
ATOM     12  O   UNL     1       7.575   4.793  16.381  0.00  0.00    +0.000 OA
ENDBRANCH   9  12
ENDBRANCH   3   9
BRANCH   8  13
ATOM     13  O   UNL     1       4.312   3.011  17.512  0.00  0.00    +0.000 OA
ATOM     14  H   UNL     1       4.641   2.797  18.399  0.00  0.00    +0.000 HD
ENDBRANCH   8  13
ENDBRANCH   1   6
BRANCH   1  15
ATOM     15  C   UNL     1       2.167   8.722  18.247  0.00  0.00    +0.000 C 
BRANCH  15  16
ATOM     16  C   UNL     1       1.129   9.403  19.123  0.00  0.00    +0.000 A 
ATOM     17  C   UNL     1       0.180  10.296  18.595  0.00  0.00    +0.000 A 
ATOM     18  C   UNL     1      -0.795  10.876  19.416  0.00  0.00    +0.000 A 
ATOM     19 CL   UNL     1      -1.930  11.982  18.745  0.00  0.00    +0.000 Cl
ATOM     20  C   UNL     1      -0.865  10.565  20.771  0.00  0.00    +0.000 A 
ATOM     21  C   UNL     1       0.050   9.662  21.302  0.00  0.00    +0.000 A 
ATOM     22 CL   UNL     1      -0.045   9.254  22.976  0.00  0.00    +0.000 Cl
ATOM     23  C   UNL     1       1.032   9.083  20.486  0.00  0.00    +0.000 A 
BRANCH  23  24
ATOM     24  O   UNL     1       1.918   8.175  21.008  0.00  0.00    +0.000 OA
ATOM     25  H   UNL     1       2.384   8.612  21.747  0.00  0.00    +0.000 HD
ENDBRANCH  23  24
ENDBRANCH  15  16
ENDBRANCH   1  15
TORSDOF 7
ENDMDL
