MODEL 1
REMARK VINA RESULT:      -8.9      0.000      0.000
REMARK  Name = 
REMARK  6 active torsions:
REMARK  status: ('A' for Active; 'I' for Inactive)
REMARK    1  A    between atoms: C_1  and  N_2
REMARK    2  A    between atoms: C_4  and  C_5
REMARK    3  A    between atoms: N_10  and  C_11
REMARK    4  A    between atoms: C_11  and  C_12
REMARK    5  A    between atoms: C_16  and  N_17
REMARK    6  A    between atoms: N_21  and  C_22
REMARK                            x       y       z     vdW  Elec       q    Type
REMARK                         _______ _______ _______ _____ _____    ______ ____
ROOT
ATOM      1  C   UNL     1       4.237   3.520  18.442  0.00  0.00    +0.000 C 
ENDROOT
BRANCH   1   7
ATOM      2  C   UNL     1       2.266   6.365  19.374  0.00  0.00    +0.000 A 
ATOM      3  C   UNL     1       1.550   5.969  20.593  0.00  0.00    +0.000 A 
ATOM      4  C   UNL     1       1.640   4.693  20.918  0.00  0.00    +0.000 A 
ATOM      5  C   UNL     1       2.508   3.759  20.160  0.00  0.00    +0.000 A 
ATOM      6  O   UNL     1       2.561   2.579  20.510  0.00  0.00    +0.000 OA
ATOM      7  N   UNL     1       3.225   4.319  19.117  0.00  0.00    +0.000 N 
ATOM      8  N   UNL     1       3.053   5.618  18.679  0.00  0.00    +0.000 NA
BRANCH   2  12
ATOM      9  C   UNL     1       0.868  11.129  19.228  0.00  0.00    +0.000 C 
ATOM     10  N   UNL     1       1.429   9.841  18.901  0.00  0.00    +0.000 N 
ATOM     11  C   UNL     1       1.443   8.731  19.688  0.00  0.00    +0.000 A 
ATOM     12  C   UNL     1       2.045   7.731  18.945  0.00  0.00    +0.000 A 
ATOM     13  C   UNL     1       2.353   8.366  17.717  0.00  0.00    +0.000 A 
ATOM     14  N   UNL     1       1.998   9.651  17.696  0.00  0.00    +0.000 NA
ENDBRANCH   2  12
ENDBRANCH   1   7
BRANCH   1  15
ATOM     15  C   UNL     1       5.533   4.259  18.181  0.00  0.00    +0.000 A 
ATOM     16  C   UNL     1       6.318   4.768  19.220  0.00  0.00    +0.000 A 
ATOM     17  C   UNL     1       7.388   5.619  18.943  0.00  0.00    +0.000 A 
ATOM     18  C   UNL     1       7.686   5.970  17.623  0.00  0.00    +0.000 A 
ATOM     19  C   UNL     1       6.952   5.432  16.559  0.00  0.00    +0.000 A 
ATOM     20  C   UNL     1       5.901   4.553  16.864  0.00  0.00    +0.000 A 
BRANCH  19  21
ATOM     21  N   UNL     1       7.269   5.801  15.235  0.00  0.00    +0.000 N 
ATOM     22  C   UNL     1       7.091   5.051  14.125  0.00  0.00    +0.000 A 
ATOM     23  N   UNL     1       7.898   5.270  13.042  0.00  0.00    +0.000 NA
ATOM     24  C   UNL     1       7.429   4.435  12.137  0.00  0.00    +0.000 A 
ATOM     25  N   UNL     1       6.390   3.749  12.669  0.00  0.00    +0.000 N 
ATOM     26  C   UNL     1       5.490   2.839  12.015  0.00  0.00    +0.000 C 
ATOM     27  N   UNL     1       6.207   4.070  13.945  0.00  0.00    +0.000 NA
ATOM     28  H   UNL     1       8.011   6.481  15.180  0.00  0.00    +0.000 HD
ENDBRANCH  19  21
ENDBRANCH   1  15
TORSDOF 4
ENDMDL
MODEL 2
REMARK VINA RESULT:      -8.4      2.209      8.422
REMARK  Name = 
REMARK  6 active torsions:
REMARK  status: ('A' for Active; 'I' for Inactive)
REMARK    1  A    between atoms: C_1  and  N_2
REMARK    2  A    between atoms: C_4  and  C_5
REMARK    3  A    between atoms: N_10  and  C_11
REMARK    4  A    between atoms: C_11  and  C_12
REMARK    5  A    between atoms: C_16  and  N_17
REMARK    6  A    between atoms: N_21  and  C_22
REMARK                            x       y       z     vdW  Elec       q    Type
REMARK                         _______ _______ _______ _____ _____    ______ ____
ROOT
ATOM      1  C   UNL     1       2.367   6.407  20.223  0.00  0.00    +0.000 C 
ENDROOT
BRANCH   1   7
ATOM      2  C   UNL     1       4.048   4.546  17.661  0.00  0.00    +0.000 A 
ATOM      3  C   UNL     1       3.147   3.439  17.320  0.00  0.00    +0.000 A 
ATOM      4  C   UNL     1       2.104   3.286  18.115  0.00  0.00    +0.000 A 
ATOM      5  C   UNL     1       1.812   4.251  19.203  0.00  0.00    +0.000 A 
ATOM      6  O   UNL     1       0.821   4.065  19.912  0.00  0.00    +0.000 OA
ATOM      7  N   UNL     1       2.684   5.320  19.308  0.00  0.00    +0.000 N 
ATOM      8  N   UNL     1       3.849   5.433  18.575  0.00  0.00    +0.000 NA
BRANCH   2  12
ATOM      9  C   UNL     1       7.235   4.823  13.861  0.00  0.00    +0.000 C 
ATOM     10  N   UNL     1       6.659   4.752  15.182  0.00  0.00    +0.000 N 
ATOM     11  C   UNL     1       5.336   4.734  15.498  0.00  0.00    +0.000 A 
ATOM     12  C   UNL     1       5.263   4.619  16.875  0.00  0.00    +0.000 A 
ATOM     13  C   UNL     1       6.619   4.577  17.279  0.00  0.00    +0.000 A 
ATOM     14  N   UNL     1       7.467   4.677  16.256  0.00  0.00    +0.000 NA
ENDBRANCH   2  12
ENDBRANCH   1   7
BRANCH   1  15
ATOM     15  C   UNL     1       1.921   7.681  19.535  0.00  0.00    +0.000 A 
ATOM     16  C   UNL     1       2.299   7.987  18.225  0.00  0.00    +0.000 A 
ATOM     17  C   UNL     1       2.048   9.253  17.697  0.00  0.00    +0.000 A 
ATOM     18  C   UNL     1       1.416  10.229  18.474  0.00  0.00    +0.000 A 
ATOM     19  C   UNL     1       0.978   9.934  19.770  0.00  0.00    +0.000 A 
ATOM     20  C   UNL     1       1.213   8.643  20.265  0.00  0.00    +0.000 A 
BRANCH  19  21
ATOM     21  N   UNL     1       0.343  10.934  20.537  0.00  0.00    +0.000 N 
ATOM     22  C   UNL     1      -0.791  11.595  20.217  0.00  0.00    +0.000 A 
ATOM     23  N   UNL     1      -0.991  12.850  20.726  0.00  0.00    +0.000 NA
ATOM     24  C   UNL     1      -2.188  13.174  20.280  0.00  0.00    +0.000 A 
ATOM     25  N   UNL     1      -2.670  12.151  19.535  0.00  0.00    +0.000 N 
ATOM     26  C   UNL     1      -3.982  11.999  18.968  0.00  0.00    +0.000 C 
ATOM     27  N   UNL     1      -1.776  11.176  19.423  0.00  0.00    +0.000 NA
ATOM     28  H   UNL     1       0.978  11.435  21.138  0.00  0.00    +0.000 HD
ENDBRANCH  19  21
ENDBRANCH   1  15
TORSDOF 4
ENDMDL
MODEL 3
REMARK VINA RESULT:      -8.1      5.238      7.636
REMARK  Name = 
REMARK  6 active torsions:
REMARK  status: ('A' for Active; 'I' for Inactive)
REMARK    1  A    between atoms: C_1  and  N_2
REMARK    2  A    between atoms: C_4  and  C_5
REMARK    3  A    between atoms: N_10  and  C_11
REMARK    4  A    between atoms: C_11  and  C_12
REMARK    5  A    between atoms: C_16  and  N_17
REMARK    6  A    between atoms: N_21  and  C_22
REMARK                            x       y       z     vdW  Elec       q    Type
REMARK                         _______ _______ _______ _____ _____    ______ ____
ROOT
ATOM      1  C   UNL     1       0.215   9.973  20.913  0.00  0.00    +0.000 C 
ENDROOT
BRANCH   1   7
ATOM      2  C   UNL     1      -1.623  11.646  18.330  0.00  0.00    +0.000 A 
ATOM      3  C   UNL     1      -1.115  13.022  18.310  0.00  0.00    +0.000 A 
ATOM      4  C   UNL     1      -0.309  13.347  19.303  0.00  0.00    +0.000 A 
ATOM      5  C   UNL     1       0.139  12.342  20.298  0.00  0.00    +0.000 A 
ATOM      6  O   UNL     1       0.898  12.698  21.202  0.00  0.00    +0.000 OA
ATOM      7  N   UNL     1      -0.322  11.053  20.098  0.00  0.00    +0.000 N 
ATOM      8  N   UNL     1      -1.264  10.715  19.146  0.00  0.00    +0.000 NA
BRANCH   2  12
ATOM      9  C   UNL     1      -3.835  10.138  14.145  0.00  0.00    +0.000 C 
ATOM     10  N   UNL     1      -3.582  10.658  15.467  0.00  0.00    +0.000 N 
ATOM     11  C   UNL     1      -2.379  10.741  16.098  0.00  0.00    +0.000 A 
ATOM     12  C   UNL     1      -2.618  11.340  17.321  0.00  0.00    +0.000 A 
ATOM     13  C   UNL     1      -4.014  11.573  17.313  0.00  0.00    +0.000 A 
ATOM     14  N   UNL     1      -4.604  11.143  16.197  0.00  0.00    +0.000 NA
ENDBRANCH   2  12
ENDBRANCH   1   7
BRANCH   1  15
ATOM     15  C   UNL     1       1.172   9.061  20.175  0.00  0.00    +0.000 A 
ATOM     16  C   UNL     1       1.520   9.279  18.838  0.00  0.00    +0.000 A 
ATOM     17  C   UNL     1       2.234   8.311  18.131  0.00  0.00    +0.000 A 
ATOM     18  C   UNL     1       2.607   7.115  18.750  0.00  0.00    +0.000 A 
ATOM     19  C   UNL     1       2.320   6.893  20.102  0.00  0.00    +0.000 A 
ATOM     20  C   UNL     1       1.630   7.896  20.801  0.00  0.00    +0.000 A 
BRANCH  19  21
ATOM     21  N   UNL     1       2.705   5.679  20.708  0.00  0.00    +0.000 N 
ATOM     22  C   UNL     1       2.116   4.474  20.540  0.00  0.00    +0.000 A 
ATOM     23  N   UNL     1       2.214   3.545  21.541  0.00  0.00    +0.000 NA
ATOM     24  C   UNL     1       1.600   2.492  21.041  0.00  0.00    +0.000 A 
ATOM     25  N   UNL     1       1.155   2.791  19.798  0.00  0.00    +0.000 N 
ATOM     26  C   UNL     1       0.557   1.915  18.828  0.00  0.00    +0.000 C 
ATOM     27  N   UNL     1       1.406   4.058  19.491  0.00  0.00    +0.000 NA
ATOM     28  H   UNL     1       3.179   5.807  21.587  0.00  0.00    +0.000 HD
ENDBRANCH  19  21
ENDBRANCH   1  15
TORSDOF 4
ENDMDL
MODEL 4
REMARK VINA RESULT:      -8.1      2.135      8.386
REMARK  Name = 
REMARK  6 active torsions:
REMARK  status: ('A' for Active; 'I' for Inactive)
REMARK    1  A    between atoms: C_1  and  N_2
REMARK    2  A    between atoms: C_4  and  C_5
REMARK    3  A    between atoms: N_10  and  C_11
REMARK    4  A    between atoms: C_11  and  C_12
REMARK    5  A    between atoms: C_16  and  N_17
REMARK    6  A    between atoms: N_21  and  C_22
REMARK                            x       y       z     vdW  Elec       q    Type
REMARK                         _______ _______ _______ _____ _____    ______ ____
ROOT
ATOM      1  C   UNL     1       2.443   6.488  20.231  0.00  0.00    +0.000 C 
ENDROOT
BRANCH   1   7
ATOM      2  C   UNL     1       4.093   4.582  17.683  0.00  0.00    +0.000 A 
ATOM      3  C   UNL     1       3.184   3.474  17.365  0.00  0.00    +0.000 A 
ATOM      4  C   UNL     1       2.147   3.338  18.171  0.00  0.00    +0.000 A 
ATOM      5  C   UNL     1       1.868   4.320  19.247  0.00  0.00    +0.000 A 
ATOM      6  O   UNL     1       0.882   4.150  19.967  0.00  0.00    +0.000 OA
ATOM      7  N   UNL     1       2.746   5.386  19.329  0.00  0.00    +0.000 N 
ATOM      8  N   UNL     1       3.906   5.483  18.585  0.00  0.00    +0.000 NA
BRANCH   2  12
ATOM      9  C   UNL     1       7.249   4.808  13.854  0.00  0.00    +0.000 C 
ATOM     10  N   UNL     1       6.684   4.748  15.180  0.00  0.00    +0.000 N 
ATOM     11  C   UNL     1       5.363   4.747  15.508  0.00  0.00    +0.000 A 
ATOM     12  C   UNL     1       5.302   4.637  16.885  0.00  0.00    +0.000 A 
ATOM     13  C   UNL     1       6.660   4.579  17.278  0.00  0.00    +0.000 A 
ATOM     14  N   UNL     1       7.501   4.666  16.247  0.00  0.00    +0.000 NA
ENDBRANCH   2  12
ENDBRANCH   1   7
BRANCH   1  15
ATOM     15  C   UNL     1       1.910   7.724  19.536  0.00  0.00    +0.000 A 
ATOM     16  C   UNL     1       2.206   8.008  18.199  0.00  0.00    +0.000 A 
ATOM     17  C   UNL     1       1.877   9.249  17.654  0.00  0.00    +0.000 A 
ATOM     18  C   UNL     1       1.249  10.221  18.438  0.00  0.00    +0.000 A 
ATOM     19  C   UNL     1       0.892   9.945  19.763  0.00  0.00    +0.000 A 
ATOM     20  C   UNL     1       1.204   8.678  20.278  0.00  0.00    +0.000 A 
BRANCH  19  21
ATOM     21  N   UNL     1       0.259  10.941  20.537  0.00  0.00    +0.000 N 
ATOM     22  C   UNL     1       0.687  12.209  20.722  0.00  0.00    +0.000 A 
ATOM     23  N   UNL     1       0.324  12.869  21.865  0.00  0.00    +0.000 NA
ATOM     24  C   UNL     1       0.843  14.069  21.702  0.00  0.00    +0.000 A 
ATOM     25  N   UNL     1       1.490  14.112  20.514  0.00  0.00    +0.000 N 
ATOM     26  C   UNL     1       2.082  15.245  19.858  0.00  0.00    +0.000 C 
ATOM     27  N   UNL     1       1.465  12.928  19.912  0.00  0.00    +0.000 NA
ATOM     28  H   UNL     1      -0.307  10.564  21.281  0.00  0.00    +0.000 HD
ENDBRANCH  19  21
ENDBRANCH   1  15
TORSDOF 4
ENDMDL
MODEL 5
REMARK VINA RESULT:      -8.1      3.274      4.934
REMARK  Name = 
REMARK  6 active torsions:
REMARK  status: ('A' for Active; 'I' for Inactive)
REMARK    1  A    between atoms: C_1  and  N_2
REMARK    2  A    between atoms: C_4  and  C_5
REMARK    3  A    between atoms: N_10  and  C_11
REMARK    4  A    between atoms: C_11  and  C_12
REMARK    5  A    between atoms: C_16  and  N_17
REMARK    6  A    between atoms: N_21  and  C_22
REMARK                            x       y       z     vdW  Elec       q    Type
REMARK                         _______ _______ _______ _____ _____    ______ ____
ROOT
ATOM      1  C   UNL     1       4.621   5.559  17.159  0.00  0.00    +0.000 C 
ENDROOT
BRANCH   1   7
ATOM      2  C   UNL     1       2.292   6.727  19.621  0.00  0.00    +0.000 A 
ATOM      3  C   UNL     1       1.897   5.539  20.388  0.00  0.00    +0.000 A 
ATOM      4  C   UNL     1       2.305   4.383  19.899  0.00  0.00    +0.000 A 
ATOM      5  C   UNL     1       3.204   4.314  18.721  0.00  0.00    +0.000 A 
ATOM      6  O   UNL     1       3.561   3.208  18.309  0.00  0.00    +0.000 OA
ATOM      7  N   UNL     1       3.597   5.531  18.193  0.00  0.00    +0.000 N 
ATOM      8  N   UNL     1       3.084   6.747  18.605  0.00  0.00    +0.000 NA
BRANCH   2  12
ATOM      9  C   UNL     1       0.608  11.397  19.799  0.00  0.00    +0.000 C 
ATOM     10  N   UNL     1       0.970  10.042  20.139  0.00  0.00    +0.000 N 
ATOM     11  C   UNL     1       1.503   9.104  19.310  0.00  0.00    +0.000 A 
ATOM     12  C   UNL     1       1.720   7.977  20.081  0.00  0.00    +0.000 A 
ATOM     13  C   UNL     1       1.274   8.360  21.368  0.00  0.00    +0.000 A 
ATOM     14  N   UNL     1       0.800   9.606  21.401  0.00  0.00    +0.000 NA
ENDBRANCH   2  12
ENDBRANCH   1   7
BRANCH   1  15
ATOM     15  C   UNL     1       5.975   6.032  17.645  0.00  0.00    +0.000 A 
ATOM     16  C   UNL     1       6.668   5.372  18.664  0.00  0.00    +0.000 A 
ATOM     17  C   UNL     1       7.806   5.948  19.229  0.00  0.00    +0.000 A 
ATOM     18  C   UNL     1       8.265   7.191  18.781  0.00  0.00    +0.000 A 
ATOM     19  C   UNL     1       7.623   7.848  17.725  0.00  0.00    +0.000 A 
ATOM     20  C   UNL     1       6.500   7.232  17.152  0.00  0.00    +0.000 A 
BRANCH  19  21
ATOM     21  N   UNL     1       8.102   9.102  17.289  0.00  0.00    +0.000 N 
ATOM     22  C   UNL     1       8.567  10.102  18.070  0.00  0.00    +0.000 A 
ATOM     23  N   UNL     1       8.481  11.390  17.616  0.00  0.00    +0.000 NA
ATOM     24  C   UNL     1       9.063  12.089  18.569  0.00  0.00    +0.000 A 
ATOM     25  N   UNL     1       9.471  11.246  19.547  0.00  0.00    +0.000 N 
ATOM     26  C   UNL     1      10.269  11.540  20.705  0.00  0.00    +0.000 C 
ATOM     27  N   UNL     1       9.104   9.997  19.286  0.00  0.00    +0.000 NA
ATOM     28  H   UNL     1       7.710   9.391  16.408  0.00  0.00    +0.000 HD
ENDBRANCH  19  21
ENDBRANCH   1  15
TORSDOF 4
ENDMDL
MODEL 6
REMARK VINA RESULT:      -8.0      1.985      7.877
REMARK  Name = 
REMARK  6 active torsions:
REMARK  status: ('A' for Active; 'I' for Inactive)
REMARK    1  A    between atoms: C_1  and  N_2
REMARK    2  A    between atoms: C_4  and  C_5
REMARK    3  A    between atoms: N_10  and  C_11
REMARK    4  A    between atoms: C_11  and  C_12
REMARK    5  A    between atoms: C_16  and  N_17
REMARK    6  A    between atoms: N_21  and  C_22
REMARK                            x       y       z     vdW  Elec       q    Type
REMARK                         _______ _______ _______ _____ _____    ______ ____
ROOT
ATOM      1  C   UNL     1       4.952   3.374  19.231  0.00  0.00    +0.000 C 
ENDROOT
BRANCH   1   7
ATOM      2  C   UNL     1       6.364   4.536  16.147  0.00  0.00    +0.000 A 
ATOM      3  C   UNL     1       7.435   5.464  16.527  0.00  0.00    +0.000 A 
ATOM      4  C   UNL     1       7.488   5.781  17.807  0.00  0.00    +0.000 A 
ATOM      5  C   UNL     1       6.594   5.140  18.802  0.00  0.00    +0.000 A 
ATOM      6  O   UNL     1       6.690   5.467  19.986  0.00  0.00    +0.000 OA
ATOM      7  N   UNL     1       5.730   4.182  18.302  0.00  0.00    +0.000 N 
ATOM      8  N   UNL     1       5.566   3.925  16.955  0.00  0.00    +0.000 NA
BRANCH   2  12
ATOM      9  C   UNL     1       4.563   3.233  11.705  0.00  0.00    +0.000 C 
ATOM     10  N   UNL     1       5.404   3.733  12.765  0.00  0.00    +0.000 N 
ATOM     11  C   UNL     1       5.102   3.796  14.090  0.00  0.00    +0.000 A 
ATOM     12  C   UNL     1       6.221   4.306  14.723  0.00  0.00    +0.000 A 
ATOM     13  C   UNL     1       7.139   4.514  13.666  0.00  0.00    +0.000 A 
ATOM     14  N   UNL     1       6.639   4.185  12.475  0.00  0.00    +0.000 NA
ENDBRANCH   2  12
ENDBRANCH   1   7
BRANCH   1  15
ATOM     15  C   UNL     1       3.693   4.051  19.732  0.00  0.00    +0.000 A 
ATOM     16  C   UNL     1       2.598   3.322  20.204  0.00  0.00    +0.000 A 
ATOM     17  C   UNL     1       1.385   3.960  20.460  0.00  0.00    +0.000 A 
ATOM     18  C   UNL     1       1.252   5.336  20.245  0.00  0.00    +0.000 A 
ATOM     19  C   UNL     1       2.346   6.100  19.823  0.00  0.00    +0.000 A 
ATOM     20  C   UNL     1       3.565   5.438  19.605  0.00  0.00    +0.000 A 
BRANCH  19  21
ATOM     21  N   UNL     1       2.189   7.486  19.611  0.00  0.00    +0.000 N 
ATOM     22  C   UNL     1       1.413   8.327  20.329  0.00  0.00    +0.000 A 
ATOM     23  N   UNL     1       0.933   9.459  19.728  0.00  0.00    +0.000 NA
ATOM     24  C   UNL     1       0.284  10.069  20.699  0.00  0.00    +0.000 A 
ATOM     25  N   UNL     1       0.374   9.323  21.825  0.00  0.00    +0.000 N 
ATOM     26  C   UNL     1      -0.057   9.655  23.155  0.00  0.00    +0.000 C 
ATOM     27  N   UNL     1       1.021   8.185  21.596  0.00  0.00    +0.000 NA
ATOM     28  H   UNL     1       2.355   7.761  18.656  0.00  0.00    +0.000 HD
ENDBRANCH  19  21
ENDBRANCH   1  15
TORSDOF 4
ENDMDL
MODEL 7
REMARK VINA RESULT:      -7.9      4.402     10.614
REMARK  Name = 
REMARK  6 active torsions:
REMARK  status: ('A' for Active; 'I' for Inactive)
REMARK    1  A    between atoms: C_1  and  N_2
REMARK    2  A    between atoms: C_4  and  C_5
REMARK    3  A    between atoms: N_10  and  C_11
REMARK    4  A    between atoms: C_11  and  C_12
REMARK    5  A    between atoms: C_16  and  N_17
REMARK    6  A    between atoms: N_21  and  C_22
REMARK                            x       y       z     vdW  Elec       q    Type
REMARK                         _______ _______ _______ _____ _____    ______ ____
ROOT
ATOM      1  C   UNL     1       0.338  10.932  18.725  0.00  0.00    +0.000 C 
ENDROOT
BRANCH   1   7
ATOM      2  C   UNL     1       2.104   7.830  19.055  0.00  0.00    +0.000 A 
ATOM      3  C   UNL     1       1.781   7.330  20.396  0.00  0.00    +0.000 A 
ATOM      4  C   UNL     1       1.130   8.173  21.177  0.00  0.00    +0.000 A 
ATOM      5  C   UNL     1       0.659   9.487  20.676  0.00  0.00    +0.000 A 
ATOM      6  O   UNL     1       0.050  10.233  21.446  0.00  0.00    +0.000 OA
ATOM      7  N   UNL     1       0.925   9.752  19.345  0.00  0.00    +0.000 N 
ATOM      8  N   UNL     1       1.712   8.947  18.545  0.00  0.00    +0.000 NA
BRANCH   2  12
ATOM      9  C   UNL     1       4.053   3.824  16.858  0.00  0.00    +0.000 C 
ATOM     10  N   UNL     1       3.785   5.176  17.284  0.00  0.00    +0.000 N 
ATOM     11  C   UNL     1       2.776   5.594  18.095  0.00  0.00    +0.000 A 
ATOM     12  C   UNL     1       2.942   6.957  18.256  0.00  0.00    +0.000 A 
ATOM     13  C   UNL     1       4.094   7.248  17.487  0.00  0.00    +0.000 A 
ATOM     14  N   UNL     1       4.596   6.172  16.881  0.00  0.00    +0.000 NA
ENDBRANCH   2  12
ENDBRANCH   1   7
BRANCH   1  15
ATOM     15  C   UNL     1      -1.121  10.771  18.354  0.00  0.00    +0.000 A 
ATOM     16  C   UNL     1      -1.530   9.968  17.285  0.00  0.00    +0.000 A 
ATOM     17  C   UNL     1      -2.851  10.006  16.841  0.00  0.00    +0.000 A 
ATOM     18  C   UNL     1      -3.781  10.848  17.460  0.00  0.00    +0.000 A 
ATOM     19  C   UNL     1      -3.413  11.622  18.566  0.00  0.00    +0.000 A 
ATOM     20  C   UNL     1      -2.086  11.541  19.014  0.00  0.00    +0.000 A 
BRANCH  19  21
ATOM     21  N   UNL     1      -4.366  12.466  19.175  0.00  0.00    +0.000 N 
ATOM     22  C   UNL     1      -4.600  12.593  20.500  0.00  0.00    +0.000 A 
ATOM     23  N   UNL     1      -5.841  12.988  20.918  0.00  0.00    +0.000 NA
ATOM     24  C   UNL     1      -5.712  13.068  22.227  0.00  0.00    +0.000 A 
ATOM     25  N   UNL     1      -4.446  12.728  22.565  0.00  0.00    +0.000 N 
ATOM     26  C   UNL     1      -3.813  12.805  23.853  0.00  0.00    +0.000 C 
ATOM     27  N   UNL     1      -3.748  12.355  21.498  0.00  0.00    +0.000 NA
ATOM     28  H   UNL     1      -5.152  12.672  18.578  0.00  0.00    +0.000 HD
ENDBRANCH  19  21
ENDBRANCH   1  15
TORSDOF 4
ENDMDL
MODEL 8
REMARK VINA RESULT:      -7.9      4.985      7.527
REMARK  Name = 
REMARK  6 active torsions:
REMARK  status: ('A' for Active; 'I' for Inactive)
REMARK    1  A    between atoms: C_1  and  N_2
REMARK    2  A    between atoms: C_4  and  C_5
REMARK    3  A    between atoms: N_10  and  C_11
REMARK    4  A    between atoms: C_11  and  C_12
REMARK    5  A    between atoms: C_16  and  N_17
REMARK    6  A    between atoms: N_21  and  C_22
REMARK                            x       y       z     vdW  Elec       q    Type
REMARK                         _______ _______ _______ _____ _____    ______ ____
ROOT
ATOM      1  C   UNL     1       0.204   9.709  20.973  0.00  0.00    +0.000 C 
ENDROOT
BRANCH   1   7
ATOM      2  C   UNL     1      -2.017  11.832  19.126  0.00  0.00    +0.000 A 
ATOM      3  C   UNL     1      -1.380  13.154  19.111  0.00  0.00    +0.000 A 
ATOM      4  C   UNL     1      -0.323  13.287  19.891  0.00  0.00    +0.000 A 
ATOM      5  C   UNL     1       0.242  12.134  20.633  0.00  0.00    +0.000 A 
ATOM      6  O   UNL     1       1.235  12.312  21.342  0.00  0.00    +0.000 OA
ATOM      7  N   UNL     1      -0.394  10.922  20.433  0.00  0.00    +0.000 N 
ATOM      8  N   UNL     1      -1.573  10.782  19.727  0.00  0.00    +0.000 NA
BRANCH   2  12
ATOM      9  C   UNL     1      -6.830  11.842  17.898  0.00  0.00    +0.000 C 
ATOM     10  N   UNL     1      -5.390  11.754  17.854  0.00  0.00    +0.000 N 
ATOM     11  C   UNL     1      -4.525  11.975  18.881  0.00  0.00    +0.000 A 
ATOM     12  C   UNL     1      -3.257  11.735  18.382  0.00  0.00    +0.000 A 
ATOM     13  C   UNL     1      -3.489  11.376  17.033  0.00  0.00    +0.000 A 
ATOM     14  N   UNL     1      -4.781  11.405  16.705  0.00  0.00    +0.000 NA
ENDBRANCH   2  12
ENDBRANCH   1   7
BRANCH   1  15
ATOM     15  C   UNL     1       1.169   9.025  20.028  0.00  0.00    +0.000 A 
ATOM     16  C   UNL     1       1.333   9.444  18.705  0.00  0.00    +0.000 A 
ATOM     17  C   UNL     1       2.067   8.669  17.807  0.00  0.00    +0.000 A 
ATOM     18  C   UNL     1       2.646   7.466  18.221  0.00  0.00    +0.000 A 
ATOM     19  C   UNL     1       2.544   7.048  19.553  0.00  0.00    +0.000 A 
ATOM     20  C   UNL     1       1.828   7.862  20.444  0.00  0.00    +0.000 A 
BRANCH  19  21
ATOM     21  N   UNL     1       3.135   5.830  19.950  0.00  0.00    +0.000 N 
ATOM     22  C   UNL     1       2.553   4.611  19.935  0.00  0.00    +0.000 A 
ATOM     23  N   UNL     1       2.995   3.656  20.810  0.00  0.00    +0.000 NA
ATOM     24  C   UNL     1       2.276   2.597  20.496  0.00  0.00    +0.000 A 
ATOM     25  N   UNL     1       1.442   2.918  19.479  0.00  0.00    +0.000 N 
ATOM     26  C   UNL     1       0.579   2.052  18.722  0.00  0.00    +0.000 C 
ATOM     27  N   UNL     1       1.548   4.202  19.159  0.00  0.00    +0.000 NA
ATOM     28  H   UNL     1       3.868   5.948  20.631  0.00  0.00    +0.000 HD
ENDBRANCH  19  21
ENDBRANCH   1  15
TORSDOF 4
ENDMDL
MODEL 9
REMARK VINA RESULT:      -7.8      4.716     10.974
REMARK  Name = 
REMARK  6 active torsions:
REMARK  status: ('A' for Active; 'I' for Inactive)
REMARK    1  A    between atoms: C_1  and  N_2
REMARK    2  A    between atoms: C_4  and  C_5
REMARK    3  A    between atoms: N_10  and  C_11
REMARK    4  A    between atoms: C_11  and  C_12
REMARK    5  A    between atoms: C_16  and  N_17
REMARK    6  A    between atoms: N_21  and  C_22
REMARK                            x       y       z     vdW  Elec       q    Type
REMARK                         _______ _______ _______ _____ _____    ______ ____
ROOT
ATOM      1  C   UNL     1       0.138  11.167  18.888  0.00  0.00    +0.000 C 
ENDROOT
BRANCH   1   7
ATOM      2  C   UNL     1       1.670   8.162  20.101  0.00  0.00    +0.000 A 
ATOM      3  C   UNL     1       1.544   8.214  21.562  0.00  0.00    +0.000 A 
ATOM      4  C   UNL     1       1.110   9.359  22.056  0.00  0.00    +0.000 A 
ATOM      5  C   UNL     1       0.670  10.467  21.174  0.00  0.00    +0.000 A 
ATOM      6  O   UNL     1       0.267  11.512  21.688  0.00  0.00    +0.000 OA
ATOM      7  N   UNL     1       0.723  10.209  19.815  0.00  0.00    +0.000 N 
ATOM      8  N   UNL     1       1.290   9.073  19.272  0.00  0.00    +0.000 NA
BRANCH   2  12
ATOM      9  C   UNL     1       4.111   4.951  17.201  0.00  0.00    +0.000 C 
ATOM     10  N   UNL     1       3.374   5.553  18.286  0.00  0.00    +0.000 N 
ATOM     11  C   UNL     1       2.998   6.855  18.398  0.00  0.00    +0.000 A 
ATOM     12  C   UNL     1       2.282   6.957  19.576  0.00  0.00    +0.000 A 
ATOM     13  C   UNL     1       2.295   5.639  20.091  0.00  0.00    +0.000 A 
ATOM     14  N   UNL     1       2.973   4.789  19.320  0.00  0.00    +0.000 NA
ENDBRANCH   2  12
ENDBRANCH   1   7
BRANCH   1  15
ATOM     15  C   UNL     1      -1.342  10.961  18.641  0.00  0.00    +0.000 A 
ATOM     16  C   UNL     1      -1.817   9.997  17.746  0.00  0.00    +0.000 A 
ATOM     17  C   UNL     1      -3.164   9.974  17.387  0.00  0.00    +0.000 A 
ATOM     18  C   UNL     1      -4.053  10.914  17.917  0.00  0.00    +0.000 A 
ATOM     19  C   UNL     1      -3.617  11.855  18.857  0.00  0.00    +0.000 A 
ATOM     20  C   UNL     1      -2.264  11.837  19.226  0.00  0.00    +0.000 A 
BRANCH  19  21
ATOM     21  N   UNL     1      -4.531  12.795  19.378  0.00  0.00    +0.000 N 
ATOM     22  C   UNL     1      -4.952  12.883  20.659  0.00  0.00    +0.000 A 
ATOM     23  N   UNL     1      -6.179  13.433  20.916  0.00  0.00    +0.000 NA
ATOM     24  C   UNL     1      -6.249  13.423  22.231  0.00  0.00    +0.000 A 
ATOM     25  N   UNL     1      -5.111  12.884  22.728  0.00  0.00    +0.000 N 
ATOM     26  C   UNL     1      -4.686  12.797  24.099  0.00  0.00    +0.000 C 
ATOM     27  N   UNL     1      -4.310  12.471  21.753  0.00  0.00    +0.000 NA
ATOM     28  H   UNL     1      -5.176  13.146  18.688  0.00  0.00    +0.000 HD
ENDBRANCH  19  21
ENDBRANCH   1  15
TORSDOF 4
ENDMDL
