MODEL 1
REMARK VINA RESULT:      -7.8      0.000      0.000
REMARK  Name = 
REMARK  4 active torsions:
REMARK  status: ('A' for Active; 'I' for Inactive)
REMARK    1  A    between atoms: C_1  and  C_2
REMARK    2  A    between atoms: C_2  and  C_3
REMARK    3  A    between atoms: N_8  and  S_9
REMARK    4  A    between atoms: S_9  and  C_12
REMARK                            x       y       z     vdW  Elec       q    Type
REMARK                         _______ _______ _______ _____ _____    ______ ____
ROOT
ATOM      1  C   UNL     1       6.609   4.479  13.861  0.00  0.00    +0.000 C 
ATOM      2  O   UNL     1       7.156   5.544  13.579  0.00  0.00    +0.000 OA
ATOM      3  N   UNL     1       6.149   4.218  15.146  0.00  0.00    +0.000 N 
ATOM      4  C   UNL     1       5.591   2.953  15.619  0.00  0.00    +0.000 C 
ATOM      5  C   UNL     1       4.307   3.146  16.428  0.00  0.00    +0.000 C 
ATOM      6  N   UNL     1       4.323   4.272  17.445  0.00  0.00    +0.000 NA
ATOM      7  C   UNL     1       5.103   5.515  17.017  0.00  0.00    +0.000 C 
ATOM      8  C   UNL     1       5.576   6.335  18.230  0.00  0.00    +0.000 C 
ATOM      9  S   UNL     1       7.295   5.950  18.497  0.00  0.00    +0.000 S 
ATOM     10  O   UNL     1       8.083   7.133  18.221  0.00  0.00    +0.000 OA
ATOM     11  O   UNL     1       7.435   5.202  19.729  0.00  0.00    +0.000 OA
ATOM     12  C   UNL     1       7.489   4.830  17.145  0.00  0.00    +0.000 C 
ATOM     13  C   UNL     1       6.371   5.222  16.186  0.00  0.00    +0.000 C 
ENDROOT
BRANCH   6  14
ATOM     14  S   UNL     1       2.668   4.698  17.892  0.00  0.00    +0.000 S 
ATOM     15  O   UNL     1       2.628   6.115  18.191  0.00  0.00    +0.000 OA
ATOM     16  O   UNL     1       1.792   4.129  16.892  0.00  0.00    +0.000 OA
BRANCH  14  17
ATOM     17  C   UNL     1       2.430   3.835  19.420  0.00  0.00    +0.000 A 
ATOM     18  C   UNL     1       1.181   3.908  20.047  0.00  0.00    +0.000 A 
ATOM     19  C   UNL     1       0.980   3.249  21.261  0.00  0.00    +0.000 A 
ATOM     20  C   UNL     1       2.019   2.514  21.833  0.00  0.00    +0.000 A 
ATOM     21  C   UNL     1       3.244   2.424  21.176  0.00  0.00    +0.000 A 
ATOM     22  F   UNL     1       4.229   1.699  21.722  0.00  0.00    +0.000 F 
ATOM     23  C   UNL     1       3.465   3.075  19.968  0.00  0.00    +0.000 A 
ENDBRANCH  14  17
ENDBRANCH   6  14
BRANCH   1  25
ATOM     24  C   UNL     1       5.084   3.550  12.071  0.00  0.00    +0.000 C 
ATOM     25  C   UNL     1       6.402   3.395  12.815  0.00  0.00    +0.000 C 
ENDBRANCH   1  25
TORSDOF 3
ENDMDL
MODEL 2
REMARK VINA RESULT:      -7.0      1.186      1.415
REMARK  Name = 
REMARK  4 active torsions:
REMARK  status: ('A' for Active; 'I' for Inactive)
REMARK    1  A    between atoms: C_1  and  C_2
REMARK    2  A    between atoms: C_2  and  C_3
REMARK    3  A    between atoms: N_8  and  S_9
REMARK    4  A    between atoms: S_9  and  C_12
REMARK                            x       y       z     vdW  Elec       q    Type
REMARK                         _______ _______ _______ _____ _____    ______ ____
ROOT
ATOM      1  C   UNL     1       6.592   4.639  14.370  0.00  0.00    +0.000 C 
ATOM      2  O   UNL     1       7.309   5.588  14.052  0.00  0.00    +0.000 OA
ATOM      3  N   UNL     1       6.130   4.484  15.671  0.00  0.00    +0.000 N 
ATOM      4  C   UNL     1       5.373   3.345  16.185  0.00  0.00    +0.000 C 
ATOM      5  C   UNL     1       4.165   3.772  17.021  0.00  0.00    +0.000 C 
ATOM      6  N   UNL     1       4.407   4.895  18.013  0.00  0.00    +0.000 NA
ATOM      7  C   UNL     1       5.380   5.974  17.541  0.00  0.00    +0.000 C 
ATOM      8  C   UNL     1       6.023   6.718  18.724  0.00  0.00    +0.000 C 
ATOM      9  S   UNL     1       7.655   6.042  18.956  0.00  0.00    +0.000 S 
ATOM     10  O   UNL     1       8.630   7.064  18.636  0.00  0.00    +0.000 OA
ATOM     11  O   UNL     1       7.697   5.301  20.199  0.00  0.00    +0.000 OA
ATOM     12  C   UNL     1       7.612   4.884  17.623  0.00  0.00    +0.000 C 
ATOM     13  C   UNL     1       6.553   5.450  16.685  0.00  0.00    +0.000 C 
ENDROOT
BRANCH   6  14
ATOM     14  S   UNL     1       2.865   5.611  18.493  0.00  0.00    +0.000 S 
ATOM     15  O   UNL     1       3.110   6.524  19.591  0.00  0.00    +0.000 OA
ATOM     16  O   UNL     1       2.209   6.066  17.287  0.00  0.00    +0.000 OA
BRANCH  14  17
ATOM     17  C   UNL     1       1.969   4.233  19.149  0.00  0.00    +0.000 A 
ATOM     18  C   UNL     1       1.243   3.421  18.270  0.00  0.00    +0.000 A 
ATOM     19  C   UNL     1       0.515   2.340  18.772  0.00  0.00    +0.000 A 
ATOM     20  C   UNL     1       0.528   2.070  20.141  0.00  0.00    +0.000 A 
ATOM     21  C   UNL     1       1.285   2.868  20.995  0.00  0.00    +0.000 A 
ATOM     22  F   UNL     1       1.307   2.589  22.305  0.00  0.00    +0.000 F 
ATOM     23  C   UNL     1       2.013   3.951  20.516  0.00  0.00    +0.000 A 
ENDBRANCH  14  17
ENDBRANCH   6  14
BRANCH   1  25
ATOM     24  C   UNL     1       6.798   3.823  11.986  0.00  0.00    +0.000 C 
ATOM     25  C   UNL     1       6.170   3.592  13.353  0.00  0.00    +0.000 C 
ENDBRANCH   1  25
TORSDOF 3
ENDMDL
MODEL 3
REMARK VINA RESULT:      -6.7      1.221      1.304
REMARK  Name = 
REMARK  4 active torsions:
REMARK  status: ('A' for Active; 'I' for Inactive)
REMARK    1  A    between atoms: C_1  and  C_2
REMARK    2  A    between atoms: C_2  and  C_3
REMARK    3  A    between atoms: N_8  and  S_9
REMARK    4  A    between atoms: S_9  and  C_12
REMARK                            x       y       z     vdW  Elec       q    Type
REMARK                         _______ _______ _______ _____ _____    ______ ____
ROOT
ATOM      1  C   UNL     1       6.694   4.667  14.219  0.00  0.00    +0.000 C 
ATOM      2  O   UNL     1       7.382   5.644  13.925  0.00  0.00    +0.000 OA
ATOM      3  N   UNL     1       6.210   4.485  15.509  0.00  0.00    +0.000 N 
ATOM      4  C   UNL     1       5.485   3.314  15.997  0.00  0.00    +0.000 C 
ATOM      5  C   UNL     1       4.243   3.690  16.808  0.00  0.00    +0.000 C 
ATOM      6  N   UNL     1       4.420   4.813  17.814  0.00  0.00    +0.000 NA
ATOM      7  C   UNL     1       5.362   5.932  17.371  0.00  0.00    +0.000 C 
ATOM      8  C   UNL     1       5.951   6.690  18.573  0.00  0.00    +0.000 C 
ATOM      9  S   UNL     1       7.601   6.073  18.838  0.00  0.00    +0.000 S 
ATOM     10  O   UNL     1       8.544   7.133  18.547  0.00  0.00    +0.000 OA
ATOM     11  O   UNL     1       7.643   5.325  20.076  0.00  0.00    +0.000 OA
ATOM     12  C   UNL     1       7.631   4.925  17.496  0.00  0.00    +0.000 C 
ATOM     13  C   UNL     1       6.574   5.458  16.538  0.00  0.00    +0.000 C 
ENDROOT
BRANCH   6  14
ATOM     14  S   UNL     1       2.842   5.468  18.263  0.00  0.00    +0.000 S 
ATOM     15  O   UNL     1       3.051   6.731  18.941  0.00  0.00    +0.000 OA
ATOM     16  O   UNL     1       1.995   5.388  17.095  0.00  0.00    +0.000 OA
BRANCH  14  17
ATOM     17  C   UNL     1       2.260   4.316  19.474  0.00  0.00    +0.000 A 
ATOM     18  C   UNL     1       2.379   4.646  20.830  0.00  0.00    +0.000 A 
ATOM     19  C   UNL     1       1.943   3.742  21.800  0.00  0.00    +0.000 A 
ATOM     20  C   UNL     1       1.378   2.526  21.413  0.00  0.00    +0.000 A 
ATOM     21  C   UNL     1       1.234   2.231  20.059  0.00  0.00    +0.000 A 
ATOM     22  F   UNL     1       0.673   1.071  19.697  0.00  0.00    +0.000 F 
ATOM     23  C   UNL     1       1.667   3.116  19.078  0.00  0.00    +0.000 A 
ENDBRANCH  14  17
ENDBRANCH   6  14
BRANCH   1  25
ATOM     24  C   UNL     1       6.999   3.868  11.840  0.00  0.00    +0.000 C 
ATOM     25  C   UNL     1       6.334   3.613  13.185  0.00  0.00    +0.000 C 
ENDBRANCH   1  25
TORSDOF 3
ENDMDL
MODEL 4
REMARK VINA RESULT:      -6.6      0.877      1.304
REMARK  Name = 
REMARK  4 active torsions:
REMARK  status: ('A' for Active; 'I' for Inactive)
REMARK    1  A    between atoms: C_1  and  C_2
REMARK    2  A    between atoms: C_2  and  C_3
REMARK    3  A    between atoms: N_8  and  S_9
REMARK    4  A    between atoms: S_9  and  C_12
REMARK                            x       y       z     vdW  Elec       q    Type
REMARK                         _______ _______ _______ _____ _____    ______ ____
ROOT
ATOM      1  C   UNL     1       6.566   4.620  13.686  0.00  0.00    +0.000 C 
ATOM      2  O   UNL     1       7.015   5.727  13.390  0.00  0.00    +0.000 OA
ATOM      3  N   UNL     1       6.191   4.314  14.988  0.00  0.00    +0.000 N 
ATOM      4  C   UNL     1       5.757   3.007  15.474  0.00  0.00    +0.000 C 
ATOM      5  C   UNL     1       4.502   3.092  16.345  0.00  0.00    +0.000 C 
ATOM      6  N   UNL     1       4.479   4.210  17.372  0.00  0.00    +0.000 NA
ATOM      7  C   UNL     1       5.139   5.512  16.922  0.00  0.00    +0.000 C 
ATOM      8  C   UNL     1       5.604   6.358  18.119  0.00  0.00    +0.000 C 
ATOM      9  S   UNL     1       7.359   6.107  18.299  0.00  0.00    +0.000 S 
ATOM     10  O   UNL     1       8.038   7.351  17.999  0.00  0.00    +0.000 OA
ATOM     11  O   UNL     1       7.617   5.365  19.515  0.00  0.00    +0.000 OA
ATOM     12  C   UNL     1       7.574   5.016  16.928  0.00  0.00    +0.000 C 
ATOM     13  C   UNL     1       6.384   5.326  16.028  0.00  0.00    +0.000 C 
ENDROOT
BRANCH   6  14
ATOM     14  S   UNL     1       2.820   4.501  17.902  0.00  0.00    +0.000 S 
ATOM     15  O   UNL     1       2.689   5.905  18.234  0.00  0.00    +0.000 OA
ATOM     16  O   UNL     1       1.944   3.886  16.930  0.00  0.00    +0.000 OA
BRANCH  14  17
ATOM     17  C   UNL     1       2.718   3.595  19.420  0.00  0.00    +0.000 A 
ATOM     18  C   UNL     1       3.868   2.961  19.904  0.00  0.00    +0.000 A 
ATOM     19  C   UNL     1       3.803   2.226  21.089  0.00  0.00    +0.000 A 
ATOM     20  C   UNL     1       2.599   2.142  21.789  0.00  0.00    +0.000 A 
ATOM     21  C   UNL     1       1.474   2.810  21.311  0.00  0.00    +0.000 A 
ATOM     22  F   UNL     1       0.328   2.740  22.000  0.00  0.00    +0.000 F 
ATOM     23  C   UNL     1       1.517   3.543  20.130  0.00  0.00    +0.000 A 
ENDBRANCH  14  17
ENDBRANCH   6  14
BRANCH   1  25
ATOM     24  C   UNL     1       5.034   3.587  11.961  0.00  0.00    +0.000 C 
ATOM     25  C   UNL     1       6.395   3.530  12.640  0.00  0.00    +0.000 C 
ENDBRANCH   1  25
TORSDOF 3
ENDMDL
MODEL 5
REMARK VINA RESULT:      -6.2      2.579      3.223
REMARK  Name = 
REMARK  4 active torsions:
REMARK  status: ('A' for Active; 'I' for Inactive)
REMARK    1  A    between atoms: C_1  and  C_2
REMARK    2  A    between atoms: C_2  and  C_3
REMARK    3  A    between atoms: N_8  and  S_9
REMARK    4  A    between atoms: S_9  and  C_12
REMARK                            x       y       z     vdW  Elec       q    Type
REMARK                         _______ _______ _______ _____ _____    ______ ____
ROOT
ATOM      1  C   UNL     1       5.744   4.770  14.621  0.00  0.00    +0.000 C 
ATOM      2  O   UNL     1       6.161   5.897  14.355  0.00  0.00    +0.000 OA
ATOM      3  N   UNL     1       5.609   4.340  15.936  0.00  0.00    +0.000 N 
ATOM      4  C   UNL     1       5.236   2.995  16.366  0.00  0.00    +0.000 C 
ATOM      5  C   UNL     1       4.167   3.005  17.461  0.00  0.00    +0.000 C 
ATOM      6  N   UNL     1       4.367   4.014  18.577  0.00  0.00    +0.000 NA
ATOM      7  C   UNL     1       4.968   5.349  18.138  0.00  0.00    +0.000 C 
ATOM      8  C   UNL     1       5.671   6.067  19.303  0.00  0.00    +0.000 C 
ATOM      9  S   UNL     1       7.421   5.782  19.126  0.00  0.00    +0.000 S 
ATOM     10  O   UNL     1       8.067   7.043  18.825  0.00  0.00    +0.000 OA
ATOM     11  O   UNL     1       7.879   4.920  20.195  0.00  0.00    +0.000 OA
ATOM     12  C   UNL     1       7.347   4.831  17.640  0.00  0.00    +0.000 C 
ATOM     13  C   UNL     1       6.020   5.241  17.013  0.00  0.00    +0.000 C 
ENDROOT
BRANCH   6  14
ATOM     14  S   UNL     1       2.844   4.267  19.435  0.00  0.00    +0.000 S 
ATOM     15  O   UNL     1       1.819   3.475  18.783  0.00  0.00    +0.000 OA
ATOM     16  O   UNL     1       3.113   4.109  20.846  0.00  0.00    +0.000 OA
BRANCH  14  17
ATOM     17  C   UNL     1       2.476   5.967  19.108  0.00  0.00    +0.000 A 
ATOM     18  C   UNL     1       2.502   6.419  17.783  0.00  0.00    +0.000 A 
ATOM     19  C   UNL     1       2.233   7.761  17.507  0.00  0.00    +0.000 A 
ATOM     20  C   UNL     1       1.925   8.636  18.550  0.00  0.00    +0.000 A 
ATOM     21  C   UNL     1       1.869   8.160  19.858  0.00  0.00    +0.000 A 
ATOM     22  F   UNL     1       1.554   9.003  20.849  0.00  0.00    +0.000 F 
ATOM     23  C   UNL     1       2.138   6.828  20.153  0.00  0.00    +0.000 A 
ENDBRANCH  14  17
ENDBRANCH   6  14
BRANCH   1  25
ATOM     24  C   UNL     1       6.445   3.619  12.483  0.00  0.00    +0.000 C 
ATOM     25  C   UNL     1       5.351   3.793  13.526  0.00  0.00    +0.000 C 
ENDBRANCH   1  25
TORSDOF 3
ENDMDL
MODEL 6
REMARK VINA RESULT:      -6.0      9.995     11.713
REMARK  Name = 
REMARK  4 active torsions:
REMARK  status: ('A' for Active; 'I' for Inactive)
REMARK    1  A    between atoms: C_1  and  C_2
REMARK    2  A    between atoms: C_2  and  C_3
REMARK    3  A    between atoms: N_8  and  S_9
REMARK    4  A    between atoms: S_9  and  C_12
REMARK                            x       y       z     vdW  Elec       q    Type
REMARK                         _______ _______ _______ _____ _____    ______ ____
ROOT
ATOM      1  C   UNL     1       2.382  14.036  18.630  0.00  0.00    +0.000 C 
ATOM      2  O   UNL     1       2.907  13.040  18.132  0.00  0.00    +0.000 OA
ATOM      3  N   UNL     1       1.102  13.986  19.169  0.00  0.00    +0.000 N 
ATOM      4  C   UNL     1       0.340  15.123  19.679  0.00  0.00    +0.000 C 
ATOM      5  C   UNL     1      -0.313  14.831  21.032  0.00  0.00    +0.000 C 
ATOM      6  N   UNL     1      -0.990  13.480  21.166  0.00  0.00    +0.000 NA
ATOM      7  C   UNL     1      -0.290  12.333  20.437  0.00  0.00    +0.000 C 
ATOM      8  C   UNL     1      -1.264  11.187  20.112  0.00  0.00    +0.000 C 
ATOM      9  S   UNL     1      -1.721  11.346  18.398  0.00  0.00    +0.000 S 
ATOM     10  O   UNL     1      -1.184  10.216  17.668  0.00  0.00    +0.000 OA
ATOM     11  O   UNL     1      -3.114  11.728  18.305  0.00  0.00    +0.000 OA
ATOM     12  C   UNL     1      -0.732  12.761  18.029  0.00  0.00    +0.000 C 
ATOM     13  C   UNL     1       0.358  12.729  19.093  0.00  0.00    +0.000 C 
ENDROOT
BRANCH   6  14
ATOM     14  S   UNL     1      -1.212  13.089  22.875  0.00  0.00    +0.000 S 
ATOM     15  O   UNL     1      -0.667  11.768  23.113  0.00  0.00    +0.000 OA
ATOM     16  O   UNL     1      -0.752  14.227  23.639  0.00  0.00    +0.000 OA
BRANCH  14  17
ATOM     17  C   UNL     1      -2.970  12.965  23.033  0.00  0.00    +0.000 A 
ATOM     18  C   UNL     1      -3.521  12.780  24.307  0.00  0.00    +0.000 A 
ATOM     19  C   UNL     1      -4.904  12.661  24.450  0.00  0.00    +0.000 A 
ATOM     20  C   UNL     1      -5.728  12.743  23.326  0.00  0.00    +0.000 A 
ATOM     21  C   UNL     1      -5.165  12.963  22.072  0.00  0.00    +0.000 A 
ATOM     22  F   UNL     1      -5.965  13.060  21.002  0.00  0.00    +0.000 F 
ATOM     23  C   UNL     1      -3.789  13.080  21.908  0.00  0.00    +0.000 A 
ENDBRANCH  14  17
ENDBRANCH   6  14
BRANCH   1  25
ATOM     24  C   UNL     1       4.527  15.281  18.140  0.00  0.00    +0.000 C 
ATOM     25  C   UNL     1       3.109  15.369  18.685  0.00  0.00    +0.000 C 
ENDBRANCH   1  25
TORSDOF 3
ENDMDL
MODEL 7
REMARK VINA RESULT:      -6.0      9.953     11.677
REMARK  Name = 
REMARK  4 active torsions:
REMARK  status: ('A' for Active; 'I' for Inactive)
REMARK    1  A    between atoms: C_1  and  C_2
REMARK    2  A    between atoms: C_2  and  C_3
REMARK    3  A    between atoms: N_8  and  S_9
REMARK    4  A    between atoms: S_9  and  C_12
REMARK                            x       y       z     vdW  Elec       q    Type
REMARK                         _______ _______ _______ _____ _____    ______ ____
ROOT
ATOM      1  C   UNL     1       2.436  13.993  18.603  0.00  0.00    +0.000 C 
ATOM      2  O   UNL     1       2.940  12.985  18.109  0.00  0.00    +0.000 OA
ATOM      3  N   UNL     1       1.153  13.973  19.138  0.00  0.00    +0.000 N 
ATOM      4  C   UNL     1       0.415  15.127  19.644  0.00  0.00    +0.000 C 
ATOM      5  C   UNL     1      -0.250  14.852  20.995  0.00  0.00    +0.000 C 
ATOM      6  N   UNL     1      -0.958  13.516  21.127  0.00  0.00    +0.000 NA
ATOM      7  C   UNL     1      -0.282  12.353  20.402  0.00  0.00    +0.000 C 
ATOM      8  C   UNL     1      -1.280  11.229  20.074  0.00  0.00    +0.000 C 
ATOM      9  S   UNL     1      -1.727  11.397  18.358  0.00  0.00    +0.000 S 
ATOM     10  O   UNL     1      -1.213  10.254  17.631  0.00  0.00    +0.000 OA
ATOM     11  O   UNL     1      -3.111  11.811  18.259  0.00  0.00    +0.000 OA
ATOM     12  C   UNL     1      -0.705  12.790  17.992  0.00  0.00    +0.000 C 
ATOM     13  C   UNL     1       0.381  12.733  19.060  0.00  0.00    +0.000 C 
ENDROOT
BRANCH   6  14
ATOM     14  S   UNL     1      -1.195  13.132  22.835  0.00  0.00    +0.000 S 
ATOM     15  O   UNL     1      -0.662  11.808  23.081  0.00  0.00    +0.000 OA
ATOM     16  O   UNL     1      -0.732  14.269  23.600  0.00  0.00    +0.000 OA
BRANCH  14  17
ATOM     17  C   UNL     1      -2.956  13.022  22.981  0.00  0.00    +0.000 A 
ATOM     18  C   UNL     1      -3.746  13.356  21.875  0.00  0.00    +0.000 A 
ATOM     19  C   UNL     1      -5.137  13.293  21.977  0.00  0.00    +0.000 A 
ATOM     20  C   UNL     1      -5.728  12.883  23.172  0.00  0.00    +0.000 A 
ATOM     21  C   UNL     1      -4.925  12.520  24.251  0.00  0.00    +0.000 A 
ATOM     22  F   UNL     1      -5.501  12.109  25.388  0.00  0.00    +0.000 F 
ATOM     23  C   UNL     1      -3.538  12.580  24.171  0.00  0.00    +0.000 A 
ENDBRANCH  14  17
ENDBRANCH   6  14
BRANCH   1  25
ATOM     24  C   UNL     1       4.089  15.517  17.449  0.00  0.00    +0.000 C 
ATOM     25  C   UNL     1       3.192  15.309  18.661  0.00  0.00    +0.000 C 
ENDBRANCH   1  25
TORSDOF 3
ENDMDL
MODEL 8
REMARK VINA RESULT:      -6.0     10.956     12.763
REMARK  Name = 
REMARK  4 active torsions:
REMARK  status: ('A' for Active; 'I' for Inactive)
REMARK    1  A    between atoms: C_1  and  C_2
REMARK    2  A    between atoms: C_2  and  C_3
REMARK    3  A    between atoms: N_8  and  S_9
REMARK    4  A    between atoms: S_9  and  C_12
REMARK                            x       y       z     vdW  Elec       q    Type
REMARK                         _______ _______ _______ _____ _____    ______ ____
ROOT
ATOM      1  C   UNL     1      -0.297   9.905  20.472  0.00  0.00    +0.000 C 
ATOM      2  O   UNL     1      -0.280  10.073  19.253  0.00  0.00    +0.000 OA
ATOM      3  N   UNL     1      -0.707  10.913  21.337  0.00  0.00    +0.000 N 
ATOM      4  C   UNL     1      -0.661  10.866  22.796  0.00  0.00    +0.000 C 
ATOM      5  C   UNL     1      -1.961  11.351  23.440  0.00  0.00    +0.000 C 
ATOM      6  N   UNL     1      -2.567  12.610  22.848  0.00  0.00    +0.000 NA
ATOM      7  C   UNL     1      -2.412  12.750  21.334  0.00  0.00    +0.000 C 
ATOM      8  C   UNL     1      -2.493  14.219  20.886  0.00  0.00    +0.000 C 
ATOM      9  S   UNL     1      -0.826  14.786  20.615  0.00  0.00    +0.000 S 
ATOM     10  O   UNL     1      -0.652  15.052  19.201  0.00  0.00    +0.000 OA
ATOM     11  O   UNL     1      -0.477  15.759  21.628  0.00  0.00    +0.000 OA
ATOM     12  C   UNL     1      -0.006  13.270  20.997  0.00  0.00    +0.000 C 
ATOM     13  C   UNL     1      -1.078  12.211  20.773  0.00  0.00    +0.000 C 
ENDROOT
BRANCH   6  14
ATOM     14  S   UNL     1      -4.266  12.733  23.315  0.00  0.00    +0.000 S 
ATOM     15  O   UNL     1      -5.075  12.643  22.117  0.00  0.00    +0.000 OA
ATOM     16  O   UNL     1      -4.475  11.822  24.418  0.00  0.00    +0.000 OA
BRANCH  14  17
ATOM     17  C   UNL     1      -4.400  14.395  23.911  0.00  0.00    +0.000 A 
ATOM     18  C   UNL     1      -5.586  15.100  23.678  0.00  0.00    +0.000 A 
ATOM     19  C   UNL     1      -5.703  16.418  24.124  0.00  0.00    +0.000 A 
ATOM     20  C   UNL     1      -4.645  17.016  24.810  0.00  0.00    +0.000 A 
ATOM     21  C   UNL     1      -3.486  16.286  25.063  0.00  0.00    +0.000 A 
ATOM     22  F   UNL     1      -2.484  16.862  25.739  0.00  0.00    +0.000 F 
ATOM     23  C   UNL     1      -3.349  14.974  24.624  0.00  0.00    +0.000 A 
ENDBRANCH  14  17
ENDBRANCH   6  14
BRANCH   1  25
ATOM     24  C   UNL     1       1.513   8.150  20.650  0.00  0.00    +0.000 C 
ATOM     25  C   UNL     1       0.124   8.584  21.095  0.00  0.00    +0.000 C 
ENDBRANCH   1  25
TORSDOF 3
ENDMDL
MODEL 9
REMARK VINA RESULT:      -6.0      7.528      9.699
REMARK  Name = 
REMARK  4 active torsions:
REMARK  status: ('A' for Active; 'I' for Inactive)
REMARK    1  A    between atoms: C_1  and  C_2
REMARK    2  A    between atoms: C_2  and  C_3
REMARK    3  A    between atoms: N_8  and  S_9
REMARK    4  A    between atoms: S_9  and  C_12
REMARK                            x       y       z     vdW  Elec       q    Type
REMARK                         _______ _______ _______ _____ _____    ______ ____
ROOT
ATOM      1  C   UNL     1      -3.957  11.901  18.927  0.00  0.00    +0.000 C 
ATOM      2  O   UNL     1      -4.441  12.783  19.636  0.00  0.00    +0.000 OA
ATOM      3  N   UNL     1      -2.593  11.636  18.930  0.00  0.00    +0.000 N 
ATOM      4  C   UNL     1      -1.898  10.697  18.053  0.00  0.00    +0.000 C 
ATOM      5  C   UNL     1      -0.915   9.803  18.812  0.00  0.00    +0.000 C 
ATOM      6  N   UNL     1      -0.046  10.496  19.845  0.00  0.00    +0.000 NA
ATOM      7  C   UNL     1      -0.730  11.631  20.606  0.00  0.00    +0.000 C 
ATOM      8  C   UNL     1       0.290  12.636  21.168  0.00  0.00    +0.000 C 
ATOM      9  S   UNL     1       0.312  14.042  20.075  0.00  0.00    +0.000 S 
ATOM     10  O   UNL     1      -0.219  15.188  20.784  0.00  0.00    +0.000 OA
ATOM     11  O   UNL     1       1.579  14.089  19.376  0.00  0.00    +0.000 OA
ATOM     12  C   UNL     1      -0.921  13.471  18.947  0.00  0.00    +0.000 C 
ATOM     13  C   UNL     1      -1.721  12.463  19.763  0.00  0.00    +0.000 C 
ENDROOT
BRANCH   6  14
ATOM     14  S   UNL     1       0.617   9.303  20.966  0.00  0.00    +0.000 S 
ATOM     15  O   UNL     1       1.521   9.984  21.871  0.00  0.00    +0.000 OA
ATOM     16  O   UNL     1      -0.492   8.528  21.474  0.00  0.00    +0.000 OA
BRANCH  14  17
ATOM     17  C   UNL     1       1.606   8.274  19.919  0.00  0.00    +0.000 A 
ATOM     18  C   UNL     1       2.063   8.793  18.702  0.00  0.00    +0.000 A 
ATOM     19  C   UNL     1       2.828   7.990  17.854  0.00  0.00    +0.000 A 
ATOM     20  C   UNL     1       3.143   6.683  18.231  0.00  0.00    +0.000 A 
ATOM     21  C   UNL     1       2.709   6.197  19.462  0.00  0.00    +0.000 A 
ATOM     22  F   UNL     1       3.032   4.949  19.824  0.00  0.00    +0.000 F 
ATOM     23  C   UNL     1       1.943   6.979  20.318  0.00  0.00    +0.000 A 
ENDBRANCH  14  17
ENDBRANCH   6  14
BRANCH   1  25
ATOM     24  C   UNL     1      -6.296  11.449  18.080  0.00  0.00    +0.000 C 
ATOM     25  C   UNL     1      -4.828  11.052  18.015  0.00  0.00    +0.000 C 
ENDBRANCH   1  25
TORSDOF 3
ENDMDL
