MODEL 1
REMARK VINA RESULT:      -7.3      0.000      0.000
REMARK  Name = 
REMARK  5 active torsions:
REMARK  status: ('A' for Active; 'I' for Inactive)
REMARK    1  A    between atoms: C_1  and  C_2
REMARK    2  A    between atoms: C_2  and  C_3
REMARK    3  A    between atoms: C_3  and  O_4
REMARK    4  A    between atoms: C_3  and  C_5
REMARK    5  A    between atoms: C_14  and  C_15
REMARK                            x       y       z     vdW  Elec       q    Type
REMARK                         _______ _______ _______ _____ _____    ______ ____
ROOT
ATOM      1  C   UNL     1      -0.343  11.397  22.281  0.00  0.00    +0.000 C 
ATOM      2  C   UNL     1       0.398  11.477  20.926  0.00  0.00    +0.000 C 
ATOM      3  C   UNL     1       0.050  10.299  20.018  0.00  0.00    +0.000 C 
ATOM      4  N   UNL     1       0.292   9.024  20.699  0.00  0.00    +0.000 N 
ATOM      5  C   UNL     1       1.279   8.188  20.178  0.00  0.00    +0.000 C 
ATOM      6  O   UNL     1       1.979   8.550  19.236  0.00  0.00    +0.000 OA
ATOM      7  N   UNL     1       1.364   6.953  20.770  0.00  0.00    +0.000 N 
ATOM      8  C   UNL     1       2.289   6.040  20.344  0.00  0.00    +0.000 A 
ATOM      9  N   UNL     1       3.346   6.189  19.593  0.00  0.00    +0.000 NA
ATOM     10  C   UNL     1       3.927   4.939  19.377  0.00  0.00    +0.000 A 
ATOM     11  N   UNL     1       3.372   3.872  19.976  0.00  0.00    +0.000 NA
ATOM     12  S   UNL     1       2.059   4.427  20.843  0.00  0.00    +0.000 S 
ATOM     13  C   UNL     1      -0.393   8.869  21.983  0.00  0.00    +0.000 C 
ATOM     14  C   UNL     1      -0.038  10.027  22.916  0.00  0.00    +0.000 C 
ATOM     15  H   UNL     1       0.581   6.589  21.281  0.00  0.00    +0.000 HD
ENDROOT
BRANCH  10  16
ATOM     16  C   UNL     1       5.110   4.832  18.517  0.00  0.00    +0.000 A 
ATOM     17  C   UNL     1       6.370   5.237  18.987  0.00  0.00    +0.000 A 
ATOM     18  C   UNL     1       7.502   5.128  18.178  0.00  0.00    +0.000 A 
ATOM     19  C   UNL     1       7.390   4.618  16.886  0.00  0.00    +0.000 A 
ATOM     20  C   UNL     1       6.145   4.220  16.402  0.00  0.00    +0.000 A 
ATOM     21  C   UNL     1       5.011   4.326  17.212  0.00  0.00    +0.000 A 
ENDBRANCH  10  16
BRANCH   1  22
ATOM     22  C   UNL     1      -1.853  11.696  22.114  0.00  0.00    +0.000 C 
BRANCH  22  24
ATOM     23  C   UNL     1      -3.606  13.063  23.336  0.00  0.00    +0.000 C 
ATOM     24  C   UNL     1      -2.597  11.924  23.438  0.00  0.00    +0.000 C 
ENDBRANCH  22  24
BRANCH  22  25
ATOM     25  O   UNL     1      -2.000  12.860  21.302  0.00  0.00    +0.000 OA
ATOM     26  H   UNL     1      -2.574  12.634  20.549  0.00  0.00    +0.000 HD
ENDBRANCH  22  25
ENDBRANCH   1  22
TORSDOF 4
ENDMDL
MODEL 2
REMARK VINA RESULT:      -6.9      1.217      1.438
REMARK  Name = 
REMARK  5 active torsions:
REMARK  status: ('A' for Active; 'I' for Inactive)
REMARK    1  A    between atoms: C_1  and  C_2
REMARK    2  A    between atoms: C_2  and  C_3
REMARK    3  A    between atoms: C_3  and  O_4
REMARK    4  A    between atoms: C_3  and  C_5
REMARK    5  A    between atoms: C_14  and  C_15
REMARK                            x       y       z     vdW  Elec       q    Type
REMARK                         _______ _______ _______ _____ _____    ______ ____
ROOT
ATOM      1  C   UNL     1       0.176  12.335  20.453  0.00  0.00    +0.000 C 
ATOM      2  C   UNL     1       0.717  12.056  19.032  0.00  0.00    +0.000 C 
ATOM      3  C   UNL     1       0.253  10.699  18.504  0.00  0.00    +0.000 C 
ATOM      4  N   UNL     1       0.600   9.627  19.443  0.00  0.00    +0.000 N 
ATOM      5  C   UNL     1       1.509   8.660  19.014  0.00  0.00    +0.000 C 
ATOM      6  O   UNL     1       2.066   8.757  17.924  0.00  0.00    +0.000 OA
ATOM      7  N   UNL     1       1.687   7.609  19.879  0.00  0.00    +0.000 N 
ATOM      8  C   UNL     1       2.550   6.594  19.570  0.00  0.00    +0.000 A 
ATOM      9  N   UNL     1       3.488   6.522  18.666  0.00  0.00    +0.000 NA
ATOM     10  C   UNL     1       4.043   5.242  18.691  0.00  0.00    +0.000 A 
ATOM     11  N   UNL     1       3.587   4.373  19.609  0.00  0.00    +0.000 NA
ATOM     12  S   UNL     1       2.405   5.162  20.483  0.00  0.00    +0.000 S 
ATOM     13  C   UNL     1       0.104   9.815  20.807  0.00  0.00    +0.000 C 
ATOM     14  C   UNL     1       0.579  11.158  21.362  0.00  0.00    +0.000 C 
ATOM     15  H   UNL     1       0.987   7.406  20.568  0.00  0.00    +0.000 HD
ENDROOT
BRANCH  10  16
ATOM     16  C   UNL     1       5.092   4.891  17.729  0.00  0.00    +0.000 A 
ATOM     17  C   UNL     1       6.444   4.921  18.111  0.00  0.00    +0.000 A 
ATOM     18  C   UNL     1       7.449   4.578  17.203  0.00  0.00    +0.000 A 
ATOM     19  C   UNL     1       7.117   4.206  15.902  0.00  0.00    +0.000 A 
ATOM     20  C   UNL     1       5.780   4.182  15.507  0.00  0.00    +0.000 A 
ATOM     21  C   UNL     1       4.774   4.521  16.414  0.00  0.00    +0.000 A 
ENDBRANCH  10  16
BRANCH   1  22
ATOM     22  C   UNL     1      -1.345  12.625  20.429  0.00  0.00    +0.000 C 
BRANCH  22  24
ATOM     23  C   UNL     1      -2.610  12.271  22.599  0.00  0.00    +0.000 C 
ATOM     24  C   UNL     1      -1.880  13.275  21.713  0.00  0.00    +0.000 C 
ENDBRANCH  22  24
BRANCH  22  25
ATOM     25  O   UNL     1      -1.626  13.490  19.328  0.00  0.00    +0.000 OA
ATOM     26  H   UNL     1      -2.579  13.685  19.332  0.00  0.00    +0.000 HD
ENDBRANCH  22  25
ENDBRANCH   1  22
TORSDOF 4
ENDMDL
MODEL 3
REMARK VINA RESULT:      -6.9      1.181      1.682
REMARK  Name = 
REMARK  5 active torsions:
REMARK  status: ('A' for Active; 'I' for Inactive)
REMARK    1  A    between atoms: C_1  and  C_2
REMARK    2  A    between atoms: C_2  and  C_3
REMARK    3  A    between atoms: C_3  and  O_4
REMARK    4  A    between atoms: C_3  and  C_5
REMARK    5  A    between atoms: C_14  and  C_15
REMARK                            x       y       z     vdW  Elec       q    Type
REMARK                         _______ _______ _______ _____ _____    ______ ____
ROOT
ATOM      1  C   UNL     1       0.188  12.465  20.607  0.00  0.00    +0.000 C 
ATOM      2  C   UNL     1       0.760  12.201  19.196  0.00  0.00    +0.000 C 
ATOM      3  C   UNL     1       0.278  10.866  18.628  0.00  0.00    +0.000 C 
ATOM      4  N   UNL     1       0.575   9.768  19.553  0.00  0.00    +0.000 N 
ATOM      5  C   UNL     1       1.471   8.788  19.129  0.00  0.00    +0.000 C 
ATOM      6  O   UNL     1       2.060   8.893  18.057  0.00  0.00    +0.000 OA
ATOM      7  N   UNL     1       1.601   7.717  19.977  0.00  0.00    +0.000 N 
ATOM      8  C   UNL     1       2.448   6.687  19.670  0.00  0.00    +0.000 A 
ATOM      9  N   UNL     1       3.408   6.610  18.790  0.00  0.00    +0.000 NA
ATOM     10  C   UNL     1       3.931   5.316  18.803  0.00  0.00    +0.000 A 
ATOM     11  N   UNL     1       3.430   4.441  19.691  0.00  0.00    +0.000 NA
ATOM     12  S   UNL     1       2.245   5.241  20.550  0.00  0.00    +0.000 S 
ATOM     13  C   UNL     1       0.047   9.941  20.908  0.00  0.00    +0.000 C 
ATOM     14  C   UNL     1       0.539  11.261  21.502  0.00  0.00    +0.000 C 
ATOM     15  H   UNL     1       0.879   7.516  20.643  0.00  0.00    +0.000 HD
ENDROOT
BRANCH  10  16
ATOM     16  C   UNL     1       4.998   4.959  17.862  0.00  0.00    +0.000 A 
ATOM     17  C   UNL     1       4.685   4.560  16.552  0.00  0.00    +0.000 A 
ATOM     18  C   UNL     1       5.695   4.229  15.647  0.00  0.00    +0.000 A 
ATOM     19  C   UNL     1       7.031   4.287  16.040  0.00  0.00    +0.000 A 
ATOM     20  C   UNL     1       7.356   4.673  17.339  0.00  0.00    +0.000 A 
ATOM     21  C   UNL     1       6.347   5.007  18.245  0.00  0.00    +0.000 A 
ENDBRANCH  10  16
BRANCH   1  22
ATOM     22  C   UNL     1      -1.324  12.792  20.549  0.00  0.00    +0.000 C 
BRANCH  22  24
ATOM     23  C   UNL     1      -2.867  12.331  22.509  0.00  0.00    +0.000 C 
ATOM     24  C   UNL     1      -1.902  13.323  21.869  0.00  0.00    +0.000 C 
ENDBRANCH  22  24
BRANCH  22  25
ATOM     25  O   UNL     1      -1.540  13.770  19.531  0.00  0.00    +0.000 OA
ATOM     26  H   UNL     1      -2.440  13.650  19.183  0.00  0.00    +0.000 HD
ENDBRANCH  22  25
ENDBRANCH   1  22
TORSDOF 4
ENDMDL
MODEL 4
REMARK VINA RESULT:      -6.9      1.191      1.715
REMARK  Name = 
REMARK  5 active torsions:
REMARK  status: ('A' for Active; 'I' for Inactive)
REMARK    1  A    between atoms: C_1  and  C_2
REMARK    2  A    between atoms: C_2  and  C_3
REMARK    3  A    between atoms: C_3  and  O_4
REMARK    4  A    between atoms: C_3  and  C_5
REMARK    5  A    between atoms: C_14  and  C_15
REMARK                            x       y       z     vdW  Elec       q    Type
REMARK                         _______ _______ _______ _____ _____    ______ ____
ROOT
ATOM      1  C   UNL     1       0.462  11.465  21.337  0.00  0.00    +0.000 C 
ATOM      2  C   UNL     1       0.777  11.410  19.825  0.00  0.00    +0.000 C 
ATOM      3  C   UNL     1       0.328  10.091  19.199  0.00  0.00    +0.000 C 
ATOM      4  N   UNL     1       0.900   8.950  19.919  0.00  0.00    +0.000 N 
ATOM      5  C   UNL     1       1.791   8.128  19.228  0.00  0.00    +0.000 C 
ATOM      6  O   UNL     1       2.151   8.407  18.087  0.00  0.00    +0.000 OA
ATOM      7  N   UNL     1       2.183   7.001  19.905  0.00  0.00    +0.000 N 
ATOM      8  C   UNL     1       3.052   6.113  19.332  0.00  0.00    +0.000 A 
ATOM      9  N   UNL     1       3.830   6.237  18.292  0.00  0.00    +0.000 NA
ATOM     10  C   UNL     1       4.469   5.019  18.057  0.00  0.00    +0.000 A 
ATOM     11  N   UNL     1       4.234   4.007  18.910  0.00  0.00    +0.000 NA
ATOM     12  S   UNL     1       3.161   4.574  20.056  0.00  0.00    +0.000 S 
ATOM     13  C   UNL     1       0.626   8.925  21.357  0.00  0.00    +0.000 C 
ATOM     14  C   UNL     1       1.091  10.228  22.006  0.00  0.00    +0.000 C 
ATOM     15  H   UNL     1       1.624   6.652  20.662  0.00  0.00    +0.000 HD
ENDROOT
BRANCH  10  16
ATOM     16  C   UNL     1       5.366   4.884  16.905  0.00  0.00    +0.000 A 
ATOM     17  C   UNL     1       4.990   4.103  15.800  0.00  0.00    +0.000 A 
ATOM     18  C   UNL     1       5.834   3.979  14.694  0.00  0.00    +0.000 A 
ATOM     19  C   UNL     1       7.067   4.629  14.681  0.00  0.00    +0.000 A 
ATOM     20  C   UNL     1       7.457   5.399  15.775  0.00  0.00    +0.000 A 
ATOM     21  C   UNL     1       6.613   5.527  16.880  0.00  0.00    +0.000 A 
ENDBRANCH  10  16
BRANCH   1  22
ATOM     22  C   UNL     1      -1.058  11.617  21.590  0.00  0.00    +0.000 C 
BRANCH  22  24
ATOM     23  C   UNL     1      -2.906  12.175  23.236  0.00  0.00    +0.000 C 
ATOM     24  C   UNL     1      -1.432  11.824  23.064  0.00  0.00    +0.000 C 
ENDBRANCH  22  24
BRANCH  22  25
ATOM     25  O   UNL     1      -1.536  12.731  20.837  0.00  0.00    +0.000 OA
ATOM     26  H   UNL     1      -0.767  13.243  20.532  0.00  0.00    +0.000 HD
ENDBRANCH  22  25
ENDBRANCH   1  22
TORSDOF 4
ENDMDL
MODEL 5
REMARK VINA RESULT:      -6.8      3.008      8.750
REMARK  Name = 
REMARK  5 active torsions:
REMARK  status: ('A' for Active; 'I' for Inactive)
REMARK    1  A    between atoms: C_1  and  C_2
REMARK    2  A    between atoms: C_2  and  C_3
REMARK    3  A    between atoms: C_3  and  O_4
REMARK    4  A    between atoms: C_3  and  C_5
REMARK    5  A    between atoms: C_14  and  C_15
REMARK                            x       y       z     vdW  Elec       q    Type
REMARK                         _______ _______ _______ _____ _____    ______ ____
ROOT
ATOM      1  C   UNL     1       1.928   3.473  18.567  0.00  0.00    +0.000 C 
ATOM      2  C   UNL     1       2.356   4.710  17.745  0.00  0.00    +0.000 C 
ATOM      3  C   UNL     1       3.123   5.721  18.597  0.00  0.00    +0.000 C 
ATOM      4  N   UNL     1       2.351   6.094  19.786  0.00  0.00    +0.000 N 
ATOM      5  C   UNL     1       1.934   7.420  19.898  0.00  0.00    +0.000 C 
ATOM      6  O   UNL     1       2.130   8.222  18.988  0.00  0.00    +0.000 OA
ATOM      7  N   UNL     1       1.340   7.742  21.092  0.00  0.00    +0.000 N 
ATOM      8  C   UNL     1       0.892   9.013  21.326  0.00  0.00    +0.000 A 
ATOM      9  N   UNL     1       0.682  10.004  20.503  0.00  0.00    +0.000 NA
ATOM     10  C   UNL     1       0.299  11.127  21.237  0.00  0.00    +0.000 A 
ATOM     11  N   UNL     1       0.171  10.999  22.568  0.00  0.00    +0.000 NA
ATOM     12  S   UNL     1       0.551   9.418  22.945  0.00  0.00    +0.000 S 
ATOM     13  C   UNL     1       1.926   4.972  20.624  0.00  0.00    +0.000 C 
ATOM     14  C   UNL     1       1.135   3.961  19.794  0.00  0.00    +0.000 C 
ATOM     15  H   UNL     1       1.503   7.171  21.901  0.00  0.00    +0.000 HD
ENDROOT
BRANCH  10  16
ATOM     16  C   UNL     1       0.050  12.394  20.541  0.00  0.00    +0.000 A 
ATOM     17  C   UNL     1      -0.080  13.589  21.267  0.00  0.00    +0.000 A 
ATOM     18  C   UNL     1      -0.306  14.801  20.610  0.00  0.00    +0.000 A 
ATOM     19  C   UNL     1      -0.410  14.833  19.221  0.00  0.00    +0.000 A 
ATOM     20  C   UNL     1      -0.293  13.653  18.489  0.00  0.00    +0.000 A 
ATOM     21  C   UNL     1      -0.064  12.441  19.143  0.00  0.00    +0.000 A 
ENDBRANCH  10  16
BRANCH   1  22
ATOM     22  C   UNL     1       3.144   2.580  18.913  0.00  0.00    +0.000 C 
BRANCH  22  24
ATOM     23  C   UNL     1       4.700   1.848  20.779  0.00  0.00    +0.000 C 
ATOM     24  C   UNL     1       3.277   2.252  20.407  0.00  0.00    +0.000 C 
ENDBRANCH  22  24
BRANCH  22  25
ATOM     25  O   UNL     1       3.033   1.356  18.186  0.00  0.00    +0.000 OA
ATOM     26  H   UNL     1       3.482   1.471  17.330  0.00  0.00    +0.000 HD
ENDBRANCH  22  25
ENDBRANCH   1  22
TORSDOF 4
ENDMDL
MODEL 6
REMARK VINA RESULT:      -6.8      1.624      1.928
REMARK  Name = 
REMARK  5 active torsions:
REMARK  status: ('A' for Active; 'I' for Inactive)
REMARK    1  A    between atoms: C_1  and  C_2
REMARK    2  A    between atoms: C_2  and  C_3
REMARK    3  A    between atoms: C_3  and  O_4
REMARK    4  A    between atoms: C_3  and  C_5
REMARK    5  A    between atoms: C_14  and  C_15
REMARK                            x       y       z     vdW  Elec       q    Type
REMARK                         _______ _______ _______ _____ _____    ______ ____
ROOT
ATOM      1  C   UNL     1       0.119  12.706  20.438  0.00  0.00    +0.000 C 
ATOM      2  C   UNL     1       0.374  12.388  18.946  0.00  0.00    +0.000 C 
ATOM      3  C   UNL     1      -0.146  11.003  18.563  0.00  0.00    +0.000 C 
ATOM      4  N   UNL     1       0.412   9.974  19.445  0.00  0.00    +0.000 N 
ATOM      5  C   UNL     1       1.245   9.013  18.873  0.00  0.00    +0.000 C 
ATOM      6  O   UNL     1       1.571   9.084  17.691  0.00  0.00    +0.000 OA
ATOM      7  N   UNL     1       1.622   7.998  19.715  0.00  0.00    +0.000 N 
ATOM      8  C   UNL     1       2.436   6.992  19.271  0.00  0.00    +0.000 A 
ATOM      9  N   UNL     1       3.177   6.909  18.200  0.00  0.00    +0.000 NA
ATOM     10  C   UNL     1       3.762   5.643  18.152  0.00  0.00    +0.000 A 
ATOM     11  N   UNL     1       3.524   4.797  19.168  0.00  0.00    +0.000 NA
ATOM     12  S   UNL     1       2.517   5.590  20.238  0.00  0.00    +0.000 S 
ATOM     13  C   UNL     1       0.193  10.199  20.875  0.00  0.00    +0.000 C 
ATOM     14  C   UNL     1       0.729  11.571  21.283  0.00  0.00    +0.000 C 
ATOM     15  H   UNL     1       1.080   7.803  20.537  0.00  0.00    +0.000 HD
ENDROOT
BRANCH  10  16
ATOM     16  C   UNL     1       4.609   5.282  17.011  0.00  0.00    +0.000 A 
ATOM     17  C   UNL     1       5.060   6.271  16.120  0.00  0.00    +0.000 A 
ATOM     18  C   UNL     1       5.875   5.937  15.037  0.00  0.00    +0.000 A 
ATOM     19  C   UNL     1       6.246   4.610  14.826  0.00  0.00    +0.000 A 
ATOM     20  C   UNL     1       5.798   3.617  15.695  0.00  0.00    +0.000 A 
ATOM     21  C   UNL     1       4.985   3.950  16.781  0.00  0.00    +0.000 A 
ENDBRANCH  10  16
BRANCH   1  22
ATOM     22  C   UNL     1      -1.383  12.960  20.710  0.00  0.00    +0.000 C 
BRANCH  22  24
ATOM     23  C   UNL     1      -2.519  12.232  22.859  0.00  0.00    +0.000 C 
ATOM     24  C   UNL     1      -1.705  13.321  22.167  0.00  0.00    +0.000 C 
ENDBRANCH  22  24
BRANCH  22  25
ATOM     25  O   UNL     1      -1.825  14.026  19.868  0.00  0.00    +0.000 OA
ATOM     26  H   UNL     1      -2.609  13.720  19.379  0.00  0.00    +0.000 HD
ENDBRANCH  22  25
ENDBRANCH   1  22
TORSDOF 4
ENDMDL
MODEL 7
REMARK VINA RESULT:      -6.7      2.608      9.375
REMARK  Name = 
REMARK  5 active torsions:
REMARK  status: ('A' for Active; 'I' for Inactive)
REMARK    1  A    between atoms: C_1  and  C_2
REMARK    2  A    between atoms: C_2  and  C_3
REMARK    3  A    between atoms: C_3  and  O_4
REMARK    4  A    between atoms: C_3  and  C_5
REMARK    5  A    between atoms: C_14  and  C_15
REMARK                            x       y       z     vdW  Elec       q    Type
REMARK                         _______ _______ _______ _____ _____    ______ ____
ROOT
ATOM      1  C   UNL     1       6.879   5.899  17.707  0.00  0.00    +0.000 C 
ATOM      2  C   UNL     1       6.185   5.686  19.071  0.00  0.00    +0.000 C 
ATOM      3  C   UNL     1       4.694   5.395  18.911  0.00  0.00    +0.000 C 
ATOM      4  N   UNL     1       4.039   6.442  18.122  0.00  0.00    +0.000 N 
ATOM      5  C   UNL     1       3.070   7.220  18.754  0.00  0.00    +0.000 C 
ATOM      6  O   UNL     1       2.842   7.091  19.954  0.00  0.00    +0.000 OA
ATOM      7  N   UNL     1       2.394   8.086  17.932  0.00  0.00    +0.000 N 
ATOM      8  C   UNL     1       1.417   8.901  18.432  0.00  0.00    +0.000 A 
ATOM      9  N   UNL     1       1.128   9.223  19.664  0.00  0.00    +0.000 NA
ATOM     10  C   UNL     1      -0.013  10.027  19.665  0.00  0.00    +0.000 A 
ATOM     11  N   UNL     1      -0.557  10.354  18.481  0.00  0.00    +0.000 NA
ATOM     12  S   UNL     1       0.372   9.628  17.300  0.00  0.00    +0.000 S 
ATOM     13  C   UNL     1       4.632   6.687  16.806  0.00  0.00    +0.000 C 
ATOM     14  C   UNL     1       6.120   7.004  16.947  0.00  0.00    +0.000 C 
ATOM     15  H   UNL     1       2.374   7.922  16.942  0.00  0.00    +0.000 HD
ENDROOT
BRANCH  10  16
ATOM     16  C   UNL     1      -0.572  10.484  20.941  0.00  0.00    +0.000 A 
ATOM     17  C   UNL     1      -1.335  11.662  21.001  0.00  0.00    +0.000 A 
ATOM     18  C   UNL     1      -1.879  12.098  22.211  0.00  0.00    +0.000 A 
ATOM     19  C   UNL     1      -1.665  11.366  23.377  0.00  0.00    +0.000 A 
ATOM     20  C   UNL     1      -0.903  10.200  23.334  0.00  0.00    +0.000 A 
ATOM     21  C   UNL     1      -0.359   9.761  22.125  0.00  0.00    +0.000 A 
ENDBRANCH  10  16
BRANCH   1  22
ATOM     22  C   UNL     1       7.005   4.568  16.926  0.00  0.00    +0.000 C 
BRANCH  22  24
ATOM     23  C   UNL     1       6.053   3.879  14.678  0.00  0.00    +0.000 C 
ATOM     24  C   UNL     1       7.084   4.738  15.403  0.00  0.00    +0.000 C 
ENDBRANCH  22  24
BRANCH  22  25
ATOM     25  O   UNL     1       8.180   3.889  17.371  0.00  0.00    +0.000 OA
ATOM     26  H   UNL     1       8.938   4.238  16.870  0.00  0.00    +0.000 HD
ENDBRANCH  22  25
ENDBRANCH   1  22
TORSDOF 4
ENDMDL
MODEL 8
REMARK VINA RESULT:      -6.5      1.800      2.136
REMARK  Name = 
REMARK  5 active torsions:
REMARK  status: ('A' for Active; 'I' for Inactive)
REMARK    1  A    between atoms: C_1  and  C_2
REMARK    2  A    between atoms: C_2  and  C_3
REMARK    3  A    between atoms: C_3  and  O_4
REMARK    4  A    between atoms: C_3  and  C_5
REMARK    5  A    between atoms: C_14  and  C_15
REMARK                            x       y       z     vdW  Elec       q    Type
REMARK                         _______ _______ _______ _____ _____    ______ ____
ROOT
ATOM      1  C   UNL     1       0.046  12.937  20.454  0.00  0.00    +0.000 C 
ATOM      2  C   UNL     1       0.304  12.604  18.966  0.00  0.00    +0.000 C 
ATOM      3  C   UNL     1      -0.232  11.222  18.593  0.00  0.00    +0.000 C 
ATOM      4  N   UNL     1       0.309  10.193  19.486  0.00  0.00    +0.000 N 
ATOM      5  C   UNL     1       1.132   9.217  18.926  0.00  0.00    +0.000 C 
ATOM      6  O   UNL     1       1.465   9.274  17.745  0.00  0.00    +0.000 OA
ATOM      7  N   UNL     1       1.493   8.205  19.779  0.00  0.00    +0.000 N 
ATOM      8  C   UNL     1       2.295   7.185  19.348  0.00  0.00    +0.000 A 
ATOM      9  N   UNL     1       3.041   7.083  18.281  0.00  0.00    +0.000 NA
ATOM     10  C   UNL     1       3.610   5.810  18.247  0.00  0.00    +0.000 A 
ATOM     11  N   UNL     1       3.356   4.976  19.269  0.00  0.00    +0.000 NA
ATOM     12  S   UNL     1       2.355   5.791  20.327  0.00  0.00    +0.000 S 
ATOM     13  C   UNL     1       0.086  10.433  20.913  0.00  0.00    +0.000 C 
ATOM     14  C   UNL     1       0.637  11.802  21.311  0.00  0.00    +0.000 C 
ATOM     15  H   UNL     1       0.944   8.024  20.600  0.00  0.00    +0.000 HD
ENDROOT
BRANCH  10  16
ATOM     16  C   UNL     1       4.457   5.429  17.113  0.00  0.00    +0.000 A 
ATOM     17  C   UNL     1       4.756   4.077  16.872  0.00  0.00    +0.000 A 
ATOM     18  C   UNL     1       5.554   3.706  15.787  0.00  0.00    +0.000 A 
ATOM     19  C   UNL     1       6.068   4.679  14.932  0.00  0.00    +0.000 A 
ATOM     20  C   UNL     1       5.787   6.025  15.165  0.00  0.00    +0.000 A 
ATOM     21  C   UNL     1       4.987   6.398  16.247  0.00  0.00    +0.000 A 
ENDBRANCH  10  16
BRANCH   1  22
ATOM     22  C   UNL     1      -1.455  13.213  20.716  0.00  0.00    +0.000 C 
BRANCH  22  24
ATOM     23  C   UNL     1      -0.890  14.847  22.573  0.00  0.00    +0.000 C 
ATOM     24  C   UNL     1      -1.767  13.674  22.147  0.00  0.00    +0.000 C 
ENDBRANCH  22  24
BRANCH  22  25
ATOM     25  O   UNL     1      -1.899  14.219  19.806  0.00  0.00    +0.000 OA
ATOM     26  H   UNL     1      -2.479  14.831  20.291  0.00  0.00    +0.000 HD
ENDBRANCH  22  25
ENDBRANCH   1  22
TORSDOF 4
ENDMDL
MODEL 9
REMARK VINA RESULT:      -6.5      2.592      9.109
REMARK  Name = 
REMARK  5 active torsions:
REMARK  status: ('A' for Active; 'I' for Inactive)
REMARK    1  A    between atoms: C_1  and  C_2
REMARK    2  A    between atoms: C_2  and  C_3
REMARK    3  A    between atoms: C_3  and  O_4
REMARK    4  A    between atoms: C_3  and  C_5
REMARK    5  A    between atoms: C_14  and  C_15
REMARK                            x       y       z     vdW  Elec       q    Type
REMARK                         _______ _______ _______ _____ _____    ______ ____
ROOT
ATOM      1  C   UNL     1       2.598   4.275  18.417  0.00  0.00    +0.000 C 
ATOM      2  C   UNL     1       2.717   5.648  17.718  0.00  0.00    +0.000 C 
ATOM      3  C   UNL     1       3.283   6.715  18.653  0.00  0.00    +0.000 C 
ATOM      4  N   UNL     1       2.498   6.796  19.889  0.00  0.00    +0.000 N 
ATOM      5  C   UNL     1       1.812   7.983  20.144  0.00  0.00    +0.000 C 
ATOM      6  O   UNL     1       1.793   8.891  19.317  0.00  0.00    +0.000 OA
ATOM      7  N   UNL     1       1.212   8.052  21.376  0.00  0.00    +0.000 N 
ATOM      8  C   UNL     1       0.512   9.167  21.747  0.00  0.00    +0.000 A 
ATOM      9  N   UNL     1       0.060  10.162  21.034  0.00  0.00    +0.000 NA
ATOM     10  C   UNL     1      -0.525  11.100  21.886  0.00  0.00    +0.000 A 
ATOM     11  N   UNL     1      -0.567  10.820  23.200  0.00  0.00    +0.000 NA
ATOM     12  S   UNL     1       0.159   9.332  23.406  0.00  0.00    +0.000 S 
ATOM     13  C   UNL     1       2.359   5.534  20.617  0.00  0.00    +0.000 C 
ATOM     14  C   UNL     1       1.770   4.459  19.704  0.00  0.00    +0.000 C 
ATOM     15  H   UNL     1       1.527   7.456  22.119  0.00  0.00    +0.000 HD
ENDROOT
BRANCH  10  16
ATOM     16  C   UNL     1      -1.068  12.342  21.329  0.00  0.00    +0.000 A 
ATOM     17  C   UNL     1      -2.322  12.819  21.745  0.00  0.00    +0.000 A 
ATOM     18  C   UNL     1      -2.841  14.007  21.226  0.00  0.00    +0.000 A 
ATOM     19  C   UNL     1      -2.117  14.731  20.280  0.00  0.00    +0.000 A 
ATOM     20  C   UNL     1      -0.876  14.265  19.851  0.00  0.00    +0.000 A 
ATOM     21  C   UNL     1      -0.353  13.079  20.371  0.00  0.00    +0.000 A 
ENDBRANCH  10  16
BRANCH   1  22
ATOM     22  C   UNL     1       3.991   3.639  18.647  0.00  0.00    +0.000 C 
BRANCH  22  24
ATOM     23  C   UNL     1       3.598   1.139  18.468  0.00  0.00    +0.000 C 
ATOM     24  C   UNL     1       3.954   2.298  19.393  0.00  0.00    +0.000 C 
ENDBRANCH  22  24
BRANCH  22  25
ATOM     25  O   UNL     1       4.614   3.437  17.378  0.00  0.00    +0.000 OA
ATOM     26  H   UNL     1       4.138   2.725  16.917  0.00  0.00    +0.000 HD
ENDBRANCH  22  25
ENDBRANCH   1  22
TORSDOF 4
ENDMDL
