MODEL 1
REMARK VINA RESULT:      -9.2      0.000      0.000
REMARK  Name = 
REMARK  3 active torsions:
REMARK  status: ('A' for Active; 'I' for Inactive)
REMARK    1  A    between atoms: N_6  and  N_7
REMARK    2  A    between atoms: C_8  and  C_10
REMARK    3  A    between atoms: C_21  and  C_22
REMARK                            x       y       z     vdW  Elec       q    Type
REMARK                         _______ _______ _______ _____ _____    ______ ____
ROOT
ATOM      1  C   UNL     1       2.606   7.783  18.166  0.00  0.00    +0.000 A 
ATOM      2  C   UNL     1       3.559   7.617  17.164  0.00  0.00    +0.000 A 
ATOM      3  C   UNL     1       4.084   6.329  16.994  0.00  0.00    +0.000 A 
ATOM      4  C   UNL     1       3.611   5.313  17.825  0.00  0.00    +0.000 A 
ATOM      5  N   UNL     1       4.294   4.174  17.459  0.00  0.00    +0.000 N 
ATOM      6  C   UNL     1       5.138   4.397  16.407  0.00  0.00    +0.000 A 
ATOM      7  C   UNL     1       5.954   3.497  15.715  0.00  0.00    +0.000 A 
ATOM      8  C   UNL     1       6.742   4.008  14.684  0.00  0.00    +0.000 A 
ATOM      9  C   UNL     1       6.707   5.364  14.366  0.00  0.00    +0.000 A 
ATOM     10  C   UNL     1       5.866   6.246  15.062  0.00  0.00    +0.000 A 
ATOM     11  C   UNL     1       5.056   5.753  16.106  0.00  0.00    +0.000 A 
ATOM     12  C   UNL     1       2.637   5.516  18.818  0.00  0.00    +0.000 A 
ATOM     13  N   UNL     1       2.155   6.786  18.980  0.00  0.00    +0.000 NA
ATOM     14  H   UNL     1       4.138   3.264  17.869  0.00  0.00    +0.000 HD
ENDROOT
BRANCH  12  15
ATOM     15  C   UNL     1       2.150   4.471  19.736  0.00  0.00    +0.000 A 
ATOM     16  C   UNL     1       2.549   4.465  21.086  0.00  0.00    +0.000 A 
ATOM     17  C   UNL     1       2.128   3.464  21.971  0.00  0.00    +0.000 A 
ATOM     18  C   UNL     1       1.300   2.436  21.527  0.00  0.00    +0.000 A 
ATOM     19  C   UNL     1       0.881   2.419  20.204  0.00  0.00    +0.000 A 
ATOM     20  C   UNL     1       1.290   3.431  19.337  0.00  0.00    +0.000 A 
ATOM     21  F   UNL     1       0.823   3.364  18.082  0.00  0.00    +0.000 F 
ENDBRANCH  12  15
BRANCH   1  23
ATOM     22  N   UNL     1       1.349   9.314  19.589  0.00  0.00    +0.000 N 
ATOM     23  C   UNL     1       2.033   9.152  18.391  0.00  0.00    +0.000 C 
ATOM     24  O   UNL     1       2.188  10.032  17.549  0.00  0.00    +0.000 OA
ATOM     25  H   UNL     1       1.252   8.528  20.229  0.00  0.00    +0.000 HD
BRANCH  22  31
ATOM     26  O   UNL     1      -1.564  13.013  22.901  0.00  0.00    +0.000 OA
ATOM     27  C   UNL     1      -1.059  11.973  22.501  0.00  0.00    +0.000 C 
ATOM     28  C   UNL     1      -1.125  10.655  23.229  0.00  0.00    +0.000 C 
ATOM     29  S   UNL     1      -0.159   9.483  22.222  0.00  0.00    +0.000 S 
ATOM     30  C   UNL     1       0.167  10.669  21.000  0.00  0.00    +0.000 C 
ATOM     31  N   UNL     1       0.813  10.535  19.896  0.00  0.00    +0.000 NA
ATOM     32  N   UNL     1      -0.368  11.868  21.329  0.00  0.00    +0.000 N 
ATOM     33  H   UNL     1      -0.248  12.661  20.719  0.00  0.00    +0.000 HD
ENDBRANCH  22  31
ENDBRANCH   1  23
TORSDOF 3
ENDMDL
MODEL 2
REMARK VINA RESULT:      -8.6      5.217      6.091
REMARK  Name = 
REMARK  3 active torsions:
REMARK  status: ('A' for Active; 'I' for Inactive)
REMARK    1  A    between atoms: N_6  and  N_7
REMARK    2  A    between atoms: C_8  and  C_10
REMARK    3  A    between atoms: C_21  and  C_22
REMARK                            x       y       z     vdW  Elec       q    Type
REMARK                         _______ _______ _______ _____ _____    ______ ____
ROOT
ATOM      1  C   UNL     1       6.948   5.770  17.694  0.00  0.00    +0.000 A 
ATOM      2  C   UNL     1       7.408   5.677  16.383  0.00  0.00    +0.000 A 
ATOM      3  C   UNL     1       6.617   4.949  15.484  0.00  0.00    +0.000 A 
ATOM      4  C   UNL     1       5.433   4.384  15.959  0.00  0.00    +0.000 A 
ATOM      5  N   UNL     1       4.871   3.724  14.889  0.00  0.00    +0.000 N 
ATOM      6  C   UNL     1       5.605   3.879  13.746  0.00  0.00    +0.000 A 
ATOM      7  C   UNL     1       5.345   3.418  12.452  0.00  0.00    +0.000 A 
ATOM      8  C   UNL     1       6.289   3.704  11.467  0.00  0.00    +0.000 A 
ATOM      9  C   UNL     1       7.442   4.424  11.774  0.00  0.00    +0.000 A 
ATOM     10  C   UNL     1       7.674   4.894  13.076  0.00  0.00    +0.000 A 
ATOM     11  C   UNL     1       6.731   4.621  14.089  0.00  0.00    +0.000 A 
ATOM     12  C   UNL     1       4.994   4.511  17.288  0.00  0.00    +0.000 A 
ATOM     13  N   UNL     1       5.793   5.208  18.153  0.00  0.00    +0.000 NA
ATOM     14  H   UNL     1       3.983   3.243  14.923  0.00  0.00    +0.000 HD
ENDROOT
BRANCH  12  15
ATOM     15  C   UNL     1       3.771   3.893  17.827  0.00  0.00    +0.000 A 
ATOM     16  C   UNL     1       3.750   2.525  18.161  0.00  0.00    +0.000 A 
ATOM     17  C   UNL     1       2.590   1.905  18.642  0.00  0.00    +0.000 A 
ATOM     18  C   UNL     1       1.414   2.634  18.796  0.00  0.00    +0.000 A 
ATOM     19  C   UNL     1       1.405   3.987  18.484  0.00  0.00    +0.000 A 
ATOM     20  C   UNL     1       2.570   4.599  18.025  0.00  0.00    +0.000 A 
ATOM     21  F   UNL     1       2.492   5.914  17.772  0.00  0.00    +0.000 F 
ENDBRANCH  12  15
BRANCH   1  23
ATOM     22  N   UNL     1       8.152   7.804  18.298  0.00  0.00    +0.000 N 
ATOM     23  C   UNL     1       7.775   6.527  18.692  0.00  0.00    +0.000 C 
ATOM     24  O   UNL     1       8.070   6.012  19.767  0.00  0.00    +0.000 OA
ATOM     25  H   UNL     1       7.878   8.154  17.381  0.00  0.00    +0.000 HD
BRANCH  22  31
ATOM     26  O   UNL     1      10.369  12.775  20.172  0.00  0.00    +0.000 OA
ATOM     27  C   UNL     1       9.765  11.970  19.476  0.00  0.00    +0.000 C 
ATOM     28  C   UNL     1       9.027  12.320  18.209  0.00  0.00    +0.000 C 
ATOM     29  S   UNL     1       8.270  10.767  17.630  0.00  0.00    +0.000 S 
ATOM     30  C   UNL     1       8.969   9.845  18.922  0.00  0.00    +0.000 C 
ATOM     31  N   UNL     1       8.885   8.582  19.151  0.00  0.00    +0.000 NA
ATOM     32  N   UNL     1       9.685  10.637  19.754  0.00  0.00    +0.000 N 
ATOM     33  H   UNL     1      10.140  10.243  20.562  0.00  0.00    +0.000 HD
ENDBRANCH  22  31
ENDBRANCH   1  23
TORSDOF 3
ENDMDL
MODEL 3
REMARK VINA RESULT:      -8.5      5.232      6.106
REMARK  Name = 
REMARK  3 active torsions:
REMARK  status: ('A' for Active; 'I' for Inactive)
REMARK    1  A    between atoms: N_6  and  N_7
REMARK    2  A    between atoms: C_8  and  C_10
REMARK    3  A    between atoms: C_21  and  C_22
REMARK                            x       y       z     vdW  Elec       q    Type
REMARK                         _______ _______ _______ _____ _____    ______ ____
ROOT
ATOM      1  C   UNL     1       7.000   5.891  17.784  0.00  0.00    +0.000 A 
ATOM      2  C   UNL     1       7.425   5.745  16.466  0.00  0.00    +0.000 A 
ATOM      3  C   UNL     1       6.596   5.007  15.611  0.00  0.00    +0.000 A 
ATOM      4  C   UNL     1       5.412   4.486  16.133  0.00  0.00    +0.000 A 
ATOM      5  N   UNL     1       4.808   3.804  15.099  0.00  0.00    +0.000 N 
ATOM      6  C   UNL     1       5.517   3.906  13.934  0.00  0.00    +0.000 A 
ATOM      7  C   UNL     1       5.215   3.409  12.663  0.00  0.00    +0.000 A 
ATOM      8  C   UNL     1       6.141   3.641  11.646  0.00  0.00    +0.000 A 
ATOM      9  C   UNL     1       7.317   4.343  11.902  0.00  0.00    +0.000 A 
ATOM     10  C   UNL     1       7.591   4.849  13.181  0.00  0.00    +0.000 A 
ATOM     11  C   UNL     1       6.668   4.632  14.225  0.00  0.00    +0.000 A 
ATOM     12  C   UNL     1       5.009   4.666  17.467  0.00  0.00    +0.000 A 
ATOM     13  N   UNL     1       5.845   5.372  18.289  0.00  0.00    +0.000 NA
ATOM     14  H   UNL     1       3.911   3.346  15.170  0.00  0.00    +0.000 HD
ENDROOT
BRANCH  12  15
ATOM     15  C   UNL     1       3.786   4.094  18.055  0.00  0.00    +0.000 A 
ATOM     16  C   UNL     1       2.517   4.531  17.629  0.00  0.00    +0.000 A 
ATOM     17  C   UNL     1       1.339   4.029  18.196  0.00  0.00    +0.000 A 
ATOM     18  C   UNL     1       1.398   3.078  19.212  0.00  0.00    +0.000 A 
ATOM     19  C   UNL     1       2.633   2.619  19.647  0.00  0.00    +0.000 A 
ATOM     20  C   UNL     1       3.799   3.111  19.062  0.00  0.00    +0.000 A 
ATOM     21  F   UNL     1       4.954   2.601  19.515  0.00  0.00    +0.000 F 
ENDBRANCH  12  15
BRANCH   1  23
ATOM     22  N   UNL     1       8.191   7.949  18.331  0.00  0.00    +0.000 N 
ATOM     23  C   UNL     1       7.869   6.660  18.736  0.00  0.00    +0.000 C 
ATOM     24  O   UNL     1       8.240   6.145  19.788  0.00  0.00    +0.000 OA
ATOM     25  H   UNL     1       7.855   8.298  17.435  0.00  0.00    +0.000 HD
BRANCH  22  31
ATOM     26  O   UNL     1      10.440  12.951  20.080  0.00  0.00    +0.000 OA
ATOM     27  C   UNL     1       9.812  12.137  19.417  0.00  0.00    +0.000 C 
ATOM     28  C   UNL     1       9.008  12.474  18.188  0.00  0.00    +0.000 C 
ATOM     29  S   UNL     1       8.242  10.911  17.651  0.00  0.00    +0.000 S 
ATOM     30  C   UNL     1       9.015  10.001  18.908  0.00  0.00    +0.000 C 
ATOM     31  N   UNL     1       8.957   8.738  19.144  0.00  0.00    +0.000 NA
ATOM     32  N   UNL     1       9.762  10.803  19.702  0.00  0.00    +0.000 N 
ATOM     33  H   UNL     1      10.261  10.417  20.487  0.00  0.00    +0.000 HD
ENDBRANCH  22  31
ENDBRANCH   1  23
TORSDOF 3
ENDMDL
MODEL 4
REMARK VINA RESULT:      -8.3      4.521      9.136
REMARK  Name = 
REMARK  3 active torsions:
REMARK  status: ('A' for Active; 'I' for Inactive)
REMARK    1  A    between atoms: N_6  and  N_7
REMARK    2  A    between atoms: C_8  and  C_10
REMARK    3  A    between atoms: C_21  and  C_22
REMARK                            x       y       z     vdW  Elec       q    Type
REMARK                         _______ _______ _______ _____ _____    ______ ____
ROOT
ATOM      1  C   UNL     1       0.559  10.234  19.990  0.00  0.00    +0.000 A 
ATOM      2  C   UNL     1       1.158  11.457  20.279  0.00  0.00    +0.000 A 
ATOM      3  C   UNL     1       0.613  12.592  19.664  0.00  0.00    +0.000 A 
ATOM      4  C   UNL     1      -0.487  12.418  18.822  0.00  0.00    +0.000 A 
ATOM      5  N   UNL     1      -0.805  13.672  18.348  0.00  0.00    +0.000 N 
ATOM      6  C   UNL     1      -0.001  14.642  18.880  0.00  0.00    +0.000 A 
ATOM      7  C   UNL     1      -0.038  16.027  18.697  0.00  0.00    +0.000 A 
ATOM      8  C   UNL     1       0.931  16.787  19.352  0.00  0.00    +0.000 A 
ATOM      9  C   UNL     1       1.892  16.176  20.155  0.00  0.00    +0.000 A 
ATOM     10  C   UNL     1       1.899  14.785  20.340  0.00  0.00    +0.000 A 
ATOM     11  C   UNL     1       0.926  13.995  19.692  0.00  0.00    +0.000 A 
ATOM     12  C   UNL     1      -1.074  11.167  18.565  0.00  0.00    +0.000 A 
ATOM     13  N   UNL     1      -0.511  10.071  19.160  0.00  0.00    +0.000 NA
ATOM     14  H   UNL     1      -1.585  13.865  17.736  0.00  0.00    +0.000 HD
ENDROOT
BRANCH  12  15
ATOM     15  C   UNL     1      -2.208  10.949  17.650  0.00  0.00    +0.000 A 
ATOM     16  C   UNL     1      -2.043  10.185  16.479  0.00  0.00    +0.000 A 
ATOM     17  C   UNL     1      -3.096   9.992  15.575  0.00  0.00    +0.000 A 
ATOM     18  C   UNL     1      -4.343  10.563  15.816  0.00  0.00    +0.000 A 
ATOM     19  C   UNL     1      -4.540  11.313  16.967  0.00  0.00    +0.000 A 
ATOM     20  C   UNL     1      -3.491  11.483  17.869  0.00  0.00    +0.000 A 
ATOM     21  F   UNL     1      -3.764  12.196  18.972  0.00  0.00    +0.000 F 
ENDBRANCH  12  15
BRANCH   1  23
ATOM     22  N   UNL     1       1.648   8.068  19.722  0.00  0.00    +0.000 N 
ATOM     23  C   UNL     1       1.125   8.993  20.616  0.00  0.00    +0.000 C 
ATOM     24  O   UNL     1       1.106   8.853  21.836  0.00  0.00    +0.000 OA
ATOM     25  H   UNL     1       1.612   8.253  18.721  0.00  0.00    +0.000 HD
BRANCH  22  31
ATOM     26  O   UNL     1       5.136   3.497  19.439  0.00  0.00    +0.000 OA
ATOM     27  C   UNL     1       4.546   4.521  19.120  0.00  0.00    +0.000 C 
ATOM     28  C   UNL     1       4.713   5.226  17.798  0.00  0.00    +0.000 C 
ATOM     29  S   UNL     1       3.657   6.709  17.891  0.00  0.00    +0.000 S 
ATOM     30  C   UNL     1       3.072   6.298  19.470  0.00  0.00    +0.000 C 
ATOM     31  N   UNL     1       2.211   6.917  20.199  0.00  0.00    +0.000 NA
ATOM     32  N   UNL     1       3.647   5.159  19.922  0.00  0.00    +0.000 N 
ATOM     33  H   UNL     1       3.415   4.802  20.836  0.00  0.00    +0.000 HD
ENDBRANCH  22  31
ENDBRANCH   1  23
TORSDOF 3
ENDMDL
MODEL 5
REMARK VINA RESULT:      -8.3      1.349      1.471
REMARK  Name = 
REMARK  3 active torsions:
REMARK  status: ('A' for Active; 'I' for Inactive)
REMARK    1  A    between atoms: N_6  and  N_7
REMARK    2  A    between atoms: C_8  and  C_10
REMARK    3  A    between atoms: C_21  and  C_22
REMARK                            x       y       z     vdW  Elec       q    Type
REMARK                         _______ _______ _______ _____ _____    ______ ____
ROOT
ATOM      1  C   UNL     1       2.658   7.832  18.256  0.00  0.00    +0.000 A 
ATOM      2  C   UNL     1       3.590   7.669  17.235  0.00  0.00    +0.000 A 
ATOM      3  C   UNL     1       4.077   6.372  17.023  0.00  0.00    +0.000 A 
ATOM      4  C   UNL     1       3.592   5.347  17.836  0.00  0.00    +0.000 A 
ATOM      5  N   UNL     1       4.239   4.201  17.429  0.00  0.00    +0.000 N 
ATOM      6  C   UNL     1       5.072   4.429  16.369  0.00  0.00    +0.000 A 
ATOM      7  C   UNL     1       5.853   3.527  15.641  0.00  0.00    +0.000 A 
ATOM      8  C   UNL     1       6.637   4.044  14.610  0.00  0.00    +0.000 A 
ATOM      9  C   UNL     1       6.632   5.409  14.328  0.00  0.00    +0.000 A 
ATOM     10  C   UNL     1       5.826   6.294  15.060  0.00  0.00    +0.000 A 
ATOM     11  C   UNL     1       5.020   5.794  16.104  0.00  0.00    +0.000 A 
ATOM     12  C   UNL     1       2.640   5.549  18.850  0.00  0.00    +0.000 A 
ATOM     13  N   UNL     1       2.194   6.827  19.052  0.00  0.00    +0.000 NA
ATOM     14  H   UNL     1       4.066   3.285  17.818  0.00  0.00    +0.000 HD
ENDROOT
BRANCH  12  15
ATOM     15  C   UNL     1       2.140   4.494  19.748  0.00  0.00    +0.000 A 
ATOM     16  C   UNL     1       2.539   4.459  21.098  0.00  0.00    +0.000 A 
ATOM     17  C   UNL     1       2.106   3.447  21.965  0.00  0.00    +0.000 A 
ATOM     18  C   UNL     1       1.267   2.437  21.503  0.00  0.00    +0.000 A 
ATOM     19  C   UNL     1       0.848   2.449  20.180  0.00  0.00    +0.000 A 
ATOM     20  C   UNL     1       1.268   3.472  19.331  0.00  0.00    +0.000 A 
ATOM     21  F   UNL     1       0.800   3.433  18.074  0.00  0.00    +0.000 F 
ENDBRANCH  12  15
BRANCH   1  23
ATOM     22  N   UNL     1       1.401   9.341  19.704  0.00  0.00    +0.000 N 
ATOM     23  C   UNL     1       2.124   9.209  18.526  0.00  0.00    +0.000 C 
ATOM     24  O   UNL     1       2.341  10.121  17.732  0.00  0.00    +0.000 OA
ATOM     25  H   UNL     1       1.254   8.530  20.303  0.00  0.00    +0.000 HD
BRANCH  22  31
ATOM     26  O   UNL     1      -2.596  13.483  19.733  0.00  0.00    +0.000 OA
ATOM     27  C   UNL     1      -2.025  12.431  19.477  0.00  0.00    +0.000 C 
ATOM     28  C   UNL     1      -2.588  11.347  18.594  0.00  0.00    +0.000 C 
ATOM     29  S   UNL     1      -1.360  10.001  18.618  0.00  0.00    +0.000 S 
ATOM     30  C   UNL     1      -0.269  10.898  19.624  0.00  0.00    +0.000 C 
ATOM     31  N   UNL     1       0.897  10.564  20.051  0.00  0.00    +0.000 NA
ATOM     32  N   UNL     1      -0.791  12.102  19.957  0.00  0.00    +0.000 N 
ATOM     33  H   UNL     1      -0.276  12.731  20.552  0.00  0.00    +0.000 HD
ENDBRANCH  22  31
ENDBRANCH   1  23
TORSDOF 3
ENDMDL
MODEL 6
REMARK VINA RESULT:      -8.3      0.941      1.144
REMARK  Name = 
REMARK  3 active torsions:
REMARK  status: ('A' for Active; 'I' for Inactive)
REMARK    1  A    between atoms: N_6  and  N_7
REMARK    2  A    between atoms: C_8  and  C_10
REMARK    3  A    between atoms: C_21  and  C_22
REMARK                            x       y       z     vdW  Elec       q    Type
REMARK                         _______ _______ _______ _____ _____    ______ ____
ROOT
ATOM      1  C   UNL     1       2.702   7.630  18.116  0.00  0.00    +0.000 A 
ATOM      2  C   UNL     1       3.604   7.483  17.066  0.00  0.00    +0.000 A 
ATOM      3  C   UNL     1       4.155   6.209  16.876  0.00  0.00    +0.000 A 
ATOM      4  C   UNL     1       3.755   5.186  17.738  0.00  0.00    +0.000 A 
ATOM      5  N   UNL     1       4.450   4.064  17.343  0.00  0.00    +0.000 N 
ATOM      6  C   UNL     1       5.231   4.302  16.246  0.00  0.00    +0.000 A 
ATOM      7  C   UNL     1       6.034   3.420  15.518  0.00  0.00    +0.000 A 
ATOM      8  C   UNL     1       6.752   3.944  14.443  0.00  0.00    +0.000 A 
ATOM      9  C   UNL     1       6.662   5.296  14.119  0.00  0.00    +0.000 A 
ATOM     10  C   UNL     1       5.835   6.160  14.853  0.00  0.00    +0.000 A 
ATOM     11  C   UNL     1       5.095   5.653  15.941  0.00  0.00    +0.000 A 
ATOM     12  C   UNL     1       2.830   5.370  18.779  0.00  0.00    +0.000 A 
ATOM     13  N   UNL     1       2.322   6.628  18.959  0.00  0.00    +0.000 NA
ATOM     14  H   UNL     1       4.341   3.153  17.766  0.00  0.00    +0.000 HD
ENDROOT
BRANCH  12  15
ATOM     15  C   UNL     1       2.421   4.320  19.728  0.00  0.00    +0.000 A 
ATOM     16  C   UNL     1       1.058   4.064  19.966  0.00  0.00    +0.000 A 
ATOM     17  C   UNL     1       0.643   3.096  20.889  0.00  0.00    +0.000 A 
ATOM     18  C   UNL     1       1.582   2.359  21.605  0.00  0.00    +0.000 A 
ATOM     19  C   UNL     1       2.934   2.580  21.386  0.00  0.00    +0.000 A 
ATOM     20  C   UNL     1       3.337   3.532  20.451  0.00  0.00    +0.000 A 
ATOM     21  F   UNL     1       4.659   3.671  20.273  0.00  0.00    +0.000 F 
ENDBRANCH  12  15
BRANCH   1  23
ATOM     22  N   UNL     1       1.405   9.112  19.556  0.00  0.00    +0.000 N 
ATOM     23  C   UNL     1       2.103   8.984  18.362  0.00  0.00    +0.000 C 
ATOM     24  O   UNL     1       2.251   9.884  17.539  0.00  0.00    +0.000 OA
ATOM     25  H   UNL     1       1.315   8.312  20.180  0.00  0.00    +0.000 HD
BRANCH  22  31
ATOM     26  O   UNL     1      -1.505  12.725  22.964  0.00  0.00    +0.000 OA
ATOM     27  C   UNL     1      -0.984  11.700  22.546  0.00  0.00    +0.000 C 
ATOM     28  C   UNL     1      -0.991  10.379  23.274  0.00  0.00    +0.000 C 
ATOM     29  S   UNL     1      -0.025   9.235  22.235  0.00  0.00    +0.000 S 
ATOM     30  C   UNL     1       0.230  10.431  21.006  0.00  0.00    +0.000 C 
ATOM     31  N   UNL     1       0.846  10.316  19.882  0.00  0.00    +0.000 NA
ATOM     32  N   UNL     1      -0.327  11.615  21.354  0.00  0.00    +0.000 N 
ATOM     33  H   UNL     1      -0.248  12.411  20.742  0.00  0.00    +0.000 HD
ENDBRANCH  22  31
ENDBRANCH   1  23
TORSDOF 3
ENDMDL
MODEL 7
REMARK VINA RESULT:      -8.2      1.775      4.913
REMARK  Name = 
REMARK  3 active torsions:
REMARK  status: ('A' for Active; 'I' for Inactive)
REMARK    1  A    between atoms: N_6  and  N_7
REMARK    2  A    between atoms: C_8  and  C_10
REMARK    3  A    between atoms: C_21  and  C_22
REMARK                            x       y       z     vdW  Elec       q    Type
REMARK                         _______ _______ _______ _____ _____    ______ ____
ROOT
ATOM      1  C   UNL     1       2.709   7.637  18.191  0.00  0.00    +0.000 A 
ATOM      2  C   UNL     1       2.227   6.832  19.220  0.00  0.00    +0.000 A 
ATOM      3  C   UNL     1       2.771   5.545  19.325  0.00  0.00    +0.000 A 
ATOM      4  C   UNL     1       3.753   5.170  18.407  0.00  0.00    +0.000 A 
ATOM      5  N   UNL     1       4.095   3.874  18.724  0.00  0.00    +0.000 N 
ATOM      6  C   UNL     1       3.423   3.419  19.825  0.00  0.00    +0.000 A 
ATOM      7  C   UNL     1       3.529   2.194  20.489  0.00  0.00    +0.000 A 
ATOM      8  C   UNL     1       2.693   1.984  21.585  0.00  0.00    +0.000 A 
ATOM      9  C   UNL     1       1.793   2.967  21.992  0.00  0.00    +0.000 A 
ATOM     10  C   UNL     1       1.717   4.197  21.322  0.00  0.00    +0.000 A 
ATOM     11  C   UNL     1       2.555   4.435  20.214  0.00  0.00    +0.000 A 
ATOM     12  C   UNL     1       4.224   6.017  17.389  0.00  0.00    +0.000 A 
ATOM     13  N   UNL     1       3.663   7.261  17.293  0.00  0.00    +0.000 NA
ATOM     14  H   UNL     1       4.812   3.345  18.247  0.00  0.00    +0.000 HD
ENDROOT
BRANCH  12  15
ATOM     15  C   UNL     1       5.229   5.634  16.382  0.00  0.00    +0.000 A 
ATOM     16  C   UNL     1       4.866   4.840  15.278  0.00  0.00    +0.000 A 
ATOM     17  C   UNL     1       5.809   4.434  14.325  0.00  0.00    +0.000 A 
ATOM     18  C   UNL     1       7.145   4.805  14.455  0.00  0.00    +0.000 A 
ATOM     19  C   UNL     1       7.532   5.596  15.527  0.00  0.00    +0.000 A 
ATOM     20  C   UNL     1       6.582   6.012  16.459  0.00  0.00    +0.000 A 
ATOM     21  F   UNL     1       7.026   6.797  17.452  0.00  0.00    +0.000 F 
ENDBRANCH  12  15
BRANCH   1  23
ATOM     22  N   UNL     1       1.132   9.344  18.934  0.00  0.00    +0.000 N 
ATOM     23  C   UNL     1       2.138   9.017  18.035  0.00  0.00    +0.000 C 
ATOM     24  O   UNL     1       2.567   9.767  17.162  0.00  0.00    +0.000 OA
ATOM     25  H   UNL     1       0.822   8.659  19.621  0.00  0.00    +0.000 HD
BRANCH  22  31
ATOM     26  O   UNL     1      -1.384  13.985  21.230  0.00  0.00    +0.000 OA
ATOM     27  C   UNL     1      -0.882  12.874  21.133  0.00  0.00    +0.000 C 
ATOM     28  C   UNL     1      -0.700  11.915  22.281  0.00  0.00    +0.000 C 
ATOM     29  S   UNL     1       0.147  10.460  21.584  0.00  0.00    +0.000 S 
ATOM     30  C   UNL     1       0.136  11.116  19.979  0.00  0.00    +0.000 C 
ATOM     31  N   UNL     1       0.568  10.589  18.888  0.00  0.00    +0.000 NA
ATOM     32  N   UNL     1      -0.422  12.349  19.960  0.00  0.00    +0.000 N 
ATOM     33  H   UNL     1      -0.485  12.864  19.097  0.00  0.00    +0.000 HD
ENDBRANCH  22  31
ENDBRANCH   1  23
TORSDOF 3
ENDMDL
MODEL 8
REMARK VINA RESULT:      -8.1      4.442      9.182
REMARK  Name = 
REMARK  3 active torsions:
REMARK  status: ('A' for Active; 'I' for Inactive)
REMARK    1  A    between atoms: N_6  and  N_7
REMARK    2  A    between atoms: C_8  and  C_10
REMARK    3  A    between atoms: C_21  and  C_22
REMARK                            x       y       z     vdW  Elec       q    Type
REMARK                         _______ _______ _______ _____ _____    ______ ____
ROOT
ATOM      1  C   UNL     1       0.080  10.470  20.175  0.00  0.00    +0.000 A 
ATOM      2  C   UNL     1       0.976  11.535  20.228  0.00  0.00    +0.000 A 
ATOM      3  C   UNL     1       0.551  12.750  19.673  0.00  0.00    +0.000 A 
ATOM      4  C   UNL     1      -0.730  12.807  19.122  0.00  0.00    +0.000 A 
ATOM      5  N   UNL     1      -0.880  14.090  18.642  0.00  0.00    +0.000 N 
ATOM      6  C   UNL     1       0.214  14.868  18.903  0.00  0.00    +0.000 A 
ATOM      7  C   UNL     1       0.428  16.222  18.632  0.00  0.00    +0.000 A 
ATOM      8  C   UNL     1       1.664  16.761  18.990  0.00  0.00    +0.000 A 
ATOM      9  C   UNL     1       2.638  15.968  19.593  0.00  0.00    +0.000 A 
ATOM     10  C   UNL     1       2.395  14.614  19.873  0.00  0.00    +0.000 A 
ATOM     11  C   UNL     1       1.151  14.048  19.525  0.00  0.00    +0.000 A 
ATOM     12  C   UNL     1      -1.612  11.713  19.098  0.00  0.00    +0.000 A 
ATOM     13  N   UNL     1      -1.167  10.532  19.627  0.00  0.00    +0.000 NA
ATOM     14  H   UNL     1      -1.726  14.439  18.214  0.00  0.00    +0.000 HD
ENDROOT
BRANCH  12  15
ATOM     15  C   UNL     1      -2.952  11.734  18.488  0.00  0.00    +0.000 A 
ATOM     16  C   UNL     1      -4.071  12.150  19.235  0.00  0.00    +0.000 A 
ATOM     17  C   UNL     1      -5.361  12.145  18.688  0.00  0.00    +0.000 A 
ATOM     18  C   UNL     1      -5.569  11.718  17.380  0.00  0.00    +0.000 A 
ATOM     19  C   UNL     1      -4.485  11.312  16.614  0.00  0.00    +0.000 A 
ATOM     20  C   UNL     1      -3.203  11.339  17.161  0.00  0.00    +0.000 A 
ATOM     21  F   UNL     1      -2.203  10.959  16.352  0.00  0.00    +0.000 F 
ENDBRANCH  12  15
BRANCH   1  23
ATOM     22  N   UNL     1       1.491   8.486  20.023  0.00  0.00    +0.000 N 
ATOM     23  C   UNL     1       0.505   9.148  20.743  0.00  0.00    +0.000 C 
ATOM     24  O   UNL     1      -0.011   8.725  21.775  0.00  0.00    +0.000 OA
ATOM     25  H   UNL     1       1.857   8.898  19.167  0.00  0.00    +0.000 HD
BRANCH  22  31
ATOM     26  O   UNL     1       4.373   3.527  19.532  0.00  0.00    +0.000 OA
ATOM     27  C   UNL     1       3.876   4.607  19.242  0.00  0.00    +0.000 C 
ATOM     28  C   UNL     1       3.984   5.262  17.889  0.00  0.00    +0.000 C 
ATOM     29  S   UNL     1       3.124   6.861  18.041  0.00  0.00    +0.000 S 
ATOM     30  C   UNL     1       2.664   6.555  19.684  0.00  0.00    +0.000 C 
ATOM     31  N   UNL     1       1.963   7.285  20.477  0.00  0.00    +0.000 NA
ATOM     32  N   UNL     1       3.146   5.364  20.111  0.00  0.00    +0.000 N 
ATOM     33  H   UNL     1       2.972   5.055  21.055  0.00  0.00    +0.000 HD
ENDBRANCH  22  31
ENDBRANCH   1  23
TORSDOF 3
ENDMDL
MODEL 9
REMARK VINA RESULT:      -8.0      4.301      9.482
REMARK  Name = 
REMARK  3 active torsions:
REMARK  status: ('A' for Active; 'I' for Inactive)
REMARK    1  A    between atoms: N_6  and  N_7
REMARK    2  A    between atoms: C_8  and  C_10
REMARK    3  A    between atoms: C_21  and  C_22
REMARK                            x       y       z     vdW  Elec       q    Type
REMARK                         _______ _______ _______ _____ _____    ______ ____
ROOT
ATOM      1  C   UNL     1       0.234  11.282  20.801  0.00  0.00    +0.000 A 
ATOM      2  C   UNL     1       1.059  12.268  20.266  0.00  0.00    +0.000 A 
ATOM      3  C   UNL     1       0.435  13.431  19.796  0.00  0.00    +0.000 A 
ATOM      4  C   UNL     1      -0.954  13.522  19.906  0.00  0.00    +0.000 A 
ATOM      5  N   UNL     1      -1.299  14.740  19.363  0.00  0.00    +0.000 N 
ATOM      6  C   UNL     1      -0.204  15.453  18.960  0.00  0.00    +0.000 A 
ATOM      7  C   UNL     1      -0.130  16.739  18.418  0.00  0.00    +0.000 A 
ATOM      8  C   UNL     1       1.133  17.216  18.069  0.00  0.00    +0.000 A 
ATOM      9  C   UNL     1       2.268  16.431  18.260  0.00  0.00    +0.000 A 
ATOM     10  C   UNL     1       2.172  15.149  18.823  0.00  0.00    +0.000 A 
ATOM     11  C   UNL     1       0.907  14.646  19.189  0.00  0.00    +0.000 A 
ATOM     12  C   UNL     1      -1.753  12.510  20.465  0.00  0.00    +0.000 A 
ATOM     13  N   UNL     1      -1.123  11.374  20.897  0.00  0.00    +0.000 NA
ATOM     14  H   UNL     1      -2.243  15.099  19.333  0.00  0.00    +0.000 HD
ENDROOT
BRANCH  12  15
ATOM     15  C   UNL     1      -3.222  12.561  20.557  0.00  0.00    +0.000 A 
ATOM     16  C   UNL     1      -3.850  12.902  21.770  0.00  0.00    +0.000 A 
ATOM     17  C   UNL     1      -5.245  12.924  21.893  0.00  0.00    +0.000 A 
ATOM     18  C   UNL     1      -6.052  12.598  20.806  0.00  0.00    +0.000 A 
ATOM     19  C   UNL     1      -5.464  12.267  19.594  0.00  0.00    +0.000 A 
ATOM     20  C   UNL     1      -4.075  12.268  19.477  0.00  0.00    +0.000 A 
ATOM     21  F   UNL     1      -3.579  11.965  18.268  0.00  0.00    +0.000 F 
ENDBRANCH  12  15
BRANCH   1  23
ATOM     22  N   UNL     1       1.024   9.020  20.342  0.00  0.00    +0.000 N 
ATOM     23  C   UNL     1       0.863  10.014  21.299  0.00  0.00    +0.000 C 
ATOM     24  O   UNL     1       1.197   9.911  22.476  0.00  0.00    +0.000 OA
ATOM     25  H   UNL     1       0.706   9.179  19.387  0.00  0.00    +0.000 HD
BRANCH  22  31
ATOM     26  O   UNL     1       4.199   4.318  19.370  0.00  0.00    +0.000 OA
ATOM     27  C   UNL     1       3.606   5.371  19.177  0.00  0.00    +0.000 C 
ATOM     28  C   UNL     1       3.561   6.096  17.856  0.00  0.00    +0.000 C 
ATOM     29  S   UNL     1       2.606   7.618  18.158  0.00  0.00    +0.000 S 
ATOM     30  C   UNL     1       2.299   7.199  19.813  0.00  0.00    +0.000 C 
ATOM     31  N   UNL     1       1.613   7.837  20.694  0.00  0.00    +0.000 NA
ATOM     32  N   UNL     1       2.896   6.029  20.138  0.00  0.00    +0.000 N 
ATOM     33  H   UNL     1       2.818   5.663  21.073  0.00  0.00    +0.000 HD
ENDBRANCH  22  31
ENDBRANCH   1  23
TORSDOF 3
ENDMDL
