MODEL 1
REMARK VINA RESULT:      -7.0      0.000      0.000
REMARK  Name = 
REMARK  7 active torsions:
REMARK  status: ('A' for Active; 'I' for Inactive)
REMARK    1  A    between atoms: C_1  and  N_2
REMARK    2  A    between atoms: N_2  and  C_3
REMARK    3  A    between atoms: N_2  and  C_4
REMARK    4  A    between atoms: C_4  and  C_5
REMARK    5  A    between atoms: C_5  and  N_6
REMARK    6  A    between atoms: N_6  and  C_7
REMARK    7  A    between atoms: C_8  and  C_9
REMARK                            x       y       z     vdW  Elec       q    Type
REMARK                         _______ _______ _______ _____ _____    ______ ____
ROOT
ATOM      1  C   UNL     1       2.168   6.901  20.145  0.00  0.00    +0.000 C 
ATOM      2  C   UNL     1       2.586   7.071  18.874  0.00  0.00    +0.000 C 
ATOM      3  C   UNL     1       2.289   8.318  18.110  0.00  0.00    +0.000 C 
ATOM      4  O   UNL     1       2.734   8.517  16.986  0.00  0.00    +0.000 OA
ATOM      5  C   UNL     1       1.430   9.335  18.745  0.00  0.00    +0.000 A 
ATOM      6  C   UNL     1       1.061  10.484  18.028  0.00  0.00    +0.000 A 
ATOM      7  C   UNL     1       0.247  11.451  18.620  0.00  0.00    +0.000 A 
ATOM      8  C   UNL     1      -0.195  11.284  19.930  0.00  0.00    +0.000 A 
ATOM      9  C   UNL     1       0.173  10.145  20.647  0.00  0.00    +0.000 A 
ATOM     10  C   UNL     1       0.983   9.168  20.048  0.00  0.00    +0.000 A 
ATOM     11  C   UNL     1       1.348   7.969  20.814  0.00  0.00    +0.000 C 
ATOM     12  O   UNL     1       0.986   7.842  21.982  0.00  0.00    +0.000 OA
ENDROOT
BRANCH   2  13
ATOM     13  C   UNL     1       3.310   5.972  18.198  0.00  0.00    +0.000 A 
ATOM     14  C   UNL     1       4.709   6.015  18.109  0.00  0.00    +0.000 A 
ATOM     15  C   UNL     1       5.398   5.046  17.379  0.00  0.00    +0.000 A 
ATOM     16  C   UNL     1       4.698   4.026  16.737  0.00  0.00    +0.000 A 
ATOM     17  C   UNL     1       3.308   3.959  16.849  0.00  0.00    +0.000 A 
ATOM     18  C   UNL     1       2.616   4.924  17.583  0.00  0.00    +0.000 A 
ENDBRANCH   2  13
BRANCH   1  19
ATOM     19  N   UNL     1       2.411   5.769  20.942  0.00  0.00    +0.000 N 
ATOM     20  H   UNL     1       3.351   5.408  20.724  0.00  0.00    +0.000 HD
BRANCH  19  21
ATOM     21  C   UNL     1       1.495   4.617  20.859  0.00  0.00    +0.000 C 
BRANCH  21  22
ATOM     22  C   UNL     1       2.083   3.377  21.581  0.00  0.00    +0.000 C 
BRANCH  22  24
ATOM     23  C   UNL     1       1.593   2.119  19.553  0.00  0.00    +0.000 C 
ATOM     24  N   UNL     1       2.508   2.276  20.685  0.00  0.00    +0.000 NA
ATOM     25  C   UNL     1       3.866   2.529  20.189  0.00  0.00    +0.000 C 
ENDBRANCH  22  24
ENDBRANCH  21  22
ENDBRANCH  19  21
ENDBRANCH   1  19
TORSDOF 5
ENDMDL
MODEL 2
REMARK VINA RESULT:      -7.0      0.215      1.006
REMARK  Name = 
REMARK  7 active torsions:
REMARK  status: ('A' for Active; 'I' for Inactive)
REMARK    1  A    between atoms: C_1  and  N_2
REMARK    2  A    between atoms: N_2  and  C_3
REMARK    3  A    between atoms: N_2  and  C_4
REMARK    4  A    between atoms: C_4  and  C_5
REMARK    5  A    between atoms: C_5  and  N_6
REMARK    6  A    between atoms: N_6  and  C_7
REMARK    7  A    between atoms: C_8  and  C_9
REMARK                            x       y       z     vdW  Elec       q    Type
REMARK                         _______ _______ _______ _____ _____    ______ ____
ROOT
ATOM      1  C   UNL     1       2.155   7.019  20.083  0.00  0.00    +0.000 C 
ATOM      2  C   UNL     1       2.512   7.254  18.803  0.00  0.00    +0.000 C 
ATOM      3  C   UNL     1       2.142   8.521  18.106  0.00  0.00    +0.000 C 
ATOM      4  O   UNL     1       2.531   8.781  16.974  0.00  0.00    +0.000 OA
ATOM      5  C   UNL     1       1.279   9.481  18.819  0.00  0.00    +0.000 A 
ATOM      6  C   UNL     1       0.841  10.645  18.166  0.00  0.00    +0.000 A 
ATOM      7  C   UNL     1       0.023  11.559  18.832  0.00  0.00    +0.000 A 
ATOM      8  C   UNL     1      -0.357  11.323  20.152  0.00  0.00    +0.000 A 
ATOM      9  C   UNL     1       0.079  10.169  20.804  0.00  0.00    +0.000 A 
ATOM     10  C   UNL     1       0.894   9.246  20.131  0.00  0.00    +0.000 A 
ATOM     11  C   UNL     1       1.330   8.030  20.829  0.00  0.00    +0.000 C 
ATOM     12  O   UNL     1       1.024   7.843  22.005  0.00  0.00    +0.000 OA
ENDROOT
BRANCH   2  13
ATOM     13  C   UNL     1       3.241   6.210  18.052  0.00  0.00    +0.000 A 
ATOM     14  C   UNL     1       2.555   5.074  17.597  0.00  0.00    +0.000 A 
ATOM     15  C   UNL     1       3.249   4.029  16.986  0.00  0.00    +0.000 A 
ATOM     16  C   UNL     1       4.630   4.113  16.820  0.00  0.00    +0.000 A 
ATOM     17  C   UNL     1       5.315   5.254  17.240  0.00  0.00    +0.000 A 
ATOM     18  C   UNL     1       4.622   6.303  17.847  0.00  0.00    +0.000 A 
ENDBRANCH   2  13
BRANCH   1  19
ATOM     19  N   UNL     1       2.469   5.864  20.820  0.00  0.00    +0.000 N 
ATOM     20  H   UNL     1       3.359   5.483  20.472  0.00  0.00    +0.000 HD
BRANCH  19  21
ATOM     21  C   UNL     1       1.516   4.740  20.843  0.00  0.00    +0.000 C 
BRANCH  21  22
ATOM     22  C   UNL     1       2.098   3.523  21.607  0.00  0.00    +0.000 C 
BRANCH  22  24
ATOM     23  C   UNL     1       1.536   2.204  19.638  0.00  0.00    +0.000 C 
ATOM     24  N   UNL     1       2.469   2.369  20.755  0.00  0.00    +0.000 NA
ATOM     25  C   UNL     1       3.830   2.544  20.237  0.00  0.00    +0.000 C 
ENDBRANCH  22  24
ENDBRANCH  21  22
ENDBRANCH  19  21
ENDBRANCH   1  19
TORSDOF 5
ENDMDL
MODEL 3
REMARK VINA RESULT:      -6.9      2.187      6.337
REMARK  Name = 
REMARK  7 active torsions:
REMARK  status: ('A' for Active; 'I' for Inactive)
REMARK    1  A    between atoms: C_1  and  N_2
REMARK    2  A    between atoms: N_2  and  C_3
REMARK    3  A    between atoms: N_2  and  C_4
REMARK    4  A    between atoms: C_4  and  C_5
REMARK    5  A    between atoms: C_5  and  N_6
REMARK    6  A    between atoms: N_6  and  C_7
REMARK    7  A    between atoms: C_8  and  C_9
REMARK                            x       y       z     vdW  Elec       q    Type
REMARK                         _______ _______ _______ _____ _____    ______ ____
ROOT
ATOM      1  C   UNL     1       4.047   5.547  18.587  0.00  0.00    +0.000 C 
ATOM      2  C   UNL     1       3.755   4.232  18.518  0.00  0.00    +0.000 C 
ATOM      3  C   UNL     1       4.294   3.364  17.431  0.00  0.00    +0.000 C 
ATOM      4  O   UNL     1       4.104   2.153  17.406  0.00  0.00    +0.000 OA
ATOM      5  C   UNL     1       5.082   4.000  16.359  0.00  0.00    +0.000 A 
ATOM      6  C   UNL     1       5.536   3.232  15.276  0.00  0.00    +0.000 A 
ATOM      7  C   UNL     1       6.281   3.825  14.255  0.00  0.00    +0.000 A 
ATOM      8  C   UNL     1       6.584   5.184  14.312  0.00  0.00    +0.000 A 
ATOM      9  C   UNL     1       6.136   5.950  15.390  0.00  0.00    +0.000 A 
ATOM     10  C   UNL     1       5.380   5.355  16.410  0.00  0.00    +0.000 A 
ATOM     11  C   UNL     1       4.905   6.181  17.528  0.00  0.00    +0.000 C 
ATOM     12  O   UNL     1       5.205   7.371  17.594  0.00  0.00    +0.000 OA
ENDROOT
BRANCH   2  13
ATOM     13  C   UNL     1       2.833   3.643  19.514  0.00  0.00    +0.000 A 
ATOM     14  C   UNL     1       1.448   3.705  19.299  0.00  0.00    +0.000 A 
ATOM     15  C   UNL     1       0.562   3.255  20.279  0.00  0.00    +0.000 A 
ATOM     16  C   UNL     1       1.051   2.736  21.476  0.00  0.00    +0.000 A 
ATOM     17  C   UNL     1       2.428   2.641  21.683  0.00  0.00    +0.000 A 
ATOM     18  C   UNL     1       3.317   3.086  20.702  0.00  0.00    +0.000 A 
ENDBRANCH   2  13
BRANCH   1  19
ATOM     19  N   UNL     1       3.595   6.435  19.579  0.00  0.00    +0.000 N 
ATOM     20  H   UNL     1       3.413   5.901  20.440  0.00  0.00    +0.000 HD
BRANCH  19  21
ATOM     21  C   UNL     1       2.388   7.244  19.329  0.00  0.00    +0.000 C 
BRANCH  21  22
ATOM     22  C   UNL     1       1.565   7.444  20.627  0.00  0.00    +0.000 C 
BRANCH  22  24
ATOM     23  C   UNL     1       0.918   9.590  19.673  0.00  0.00    +0.000 C 
ATOM     24  N   UNL     1       1.171   8.844  20.907  0.00  0.00    +0.000 NA
ATOM     25  C   UNL     1      -0.029   8.869  21.751  0.00  0.00    +0.000 C 
ENDBRANCH  22  24
ENDBRANCH  21  22
ENDBRANCH  19  21
ENDBRANCH   1  19
TORSDOF 5
ENDMDL
MODEL 4
REMARK VINA RESULT:      -6.8      1.732      2.717
REMARK  Name = 
REMARK  7 active torsions:
REMARK  status: ('A' for Active; 'I' for Inactive)
REMARK    1  A    between atoms: C_1  and  N_2
REMARK    2  A    between atoms: N_2  and  C_3
REMARK    3  A    between atoms: N_2  and  C_4
REMARK    4  A    between atoms: C_4  and  C_5
REMARK    5  A    between atoms: C_5  and  N_6
REMARK    6  A    between atoms: N_6  and  C_7
REMARK    7  A    between atoms: C_8  and  C_9
REMARK                            x       y       z     vdW  Elec       q    Type
REMARK                         _______ _______ _______ _____ _____    ______ ____
ROOT
ATOM      1  C   UNL     1       3.909   4.980  19.196  0.00  0.00    +0.000 C 
ATOM      2  C   UNL     1       4.226   5.706  18.104  0.00  0.00    +0.000 C 
ATOM      3  C   UNL     1       3.649   7.062  17.868  0.00  0.00    +0.000 C 
ATOM      4  O   UNL     1       3.993   7.763  16.925  0.00  0.00    +0.000 OA
ATOM      5  C   UNL     1       2.632   7.559  18.814  0.00  0.00    +0.000 A 
ATOM      6  C   UNL     1       2.005   8.793  18.580  0.00  0.00    +0.000 A 
ATOM      7  C   UNL     1       1.040   9.272  19.468  0.00  0.00    +0.000 A 
ATOM      8  C   UNL     1       0.701   8.528  20.596  0.00  0.00    +0.000 A 
ATOM      9  C   UNL     1       1.324   7.302  20.833  0.00  0.00    +0.000 A 
ATOM     10  C   UNL     1       2.287   6.818  19.935  0.00  0.00    +0.000 A 
ATOM     11  C   UNL     1       2.921   5.518  20.193  0.00  0.00    +0.000 C 
ATOM     12  O   UNL     1       2.646   4.881  21.209  0.00  0.00    +0.000 OA
ENDROOT
BRANCH   2  13
ATOM     13  C   UNL     1       5.126   5.124  17.085  0.00  0.00    +0.000 A 
ATOM     14  C   UNL     1       6.515   5.245  17.236  0.00  0.00    +0.000 A 
ATOM     15  C   UNL     1       7.374   4.801  16.230  0.00  0.00    +0.000 A 
ATOM     16  C   UNL     1       6.854   4.229  15.071  0.00  0.00    +0.000 A 
ATOM     17  C   UNL     1       5.474   4.075  14.929  0.00  0.00    +0.000 A 
ATOM     18  C   UNL     1       4.613   4.514  15.936  0.00  0.00    +0.000 A 
ENDBRANCH   2  13
BRANCH   1  19
ATOM     19  N   UNL     1       4.412   3.704  19.505  0.00  0.00    +0.000 N 
ATOM     20  H   UNL     1       5.154   3.471  18.831  0.00  0.00    +0.000 HD
BRANCH  19  21
ATOM     21  C   UNL     1       3.493   2.552  19.528  0.00  0.00    +0.000 C 
BRANCH  21  22
ATOM     22  C   UNL     1       2.852   2.315  18.136  0.00  0.00    +0.000 C 
BRANCH  22  24
ATOM     23  C   UNL     1       0.767   2.555  19.371  0.00  0.00    +0.000 C 
ATOM     24  N   UNL     1       1.405   2.620  18.055  0.00  0.00    +0.000 NA
ATOM     25  C   UNL     1       1.205   3.953  17.476  0.00  0.00    +0.000 C 
ENDBRANCH  22  24
ENDBRANCH  21  22
ENDBRANCH  19  21
ENDBRANCH   1  19
TORSDOF 5
ENDMDL
MODEL 5
REMARK VINA RESULT:      -6.8      3.934      6.426
REMARK  Name = 
REMARK  7 active torsions:
REMARK  status: ('A' for Active; 'I' for Inactive)
REMARK    1  A    between atoms: C_1  and  N_2
REMARK    2  A    between atoms: N_2  and  C_3
REMARK    3  A    between atoms: N_2  and  C_4
REMARK    4  A    between atoms: C_4  and  C_5
REMARK    5  A    between atoms: C_5  and  N_6
REMARK    6  A    between atoms: N_6  and  C_7
REMARK    7  A    between atoms: C_8  and  C_9
REMARK                            x       y       z     vdW  Elec       q    Type
REMARK                         _______ _______ _______ _____ _____    ______ ____
ROOT
ATOM      1  C   UNL     1       4.914   3.803  17.516  0.00  0.00    +0.000 C 
ATOM      2  C   UNL     1       4.939   4.914  18.282  0.00  0.00    +0.000 C 
ATOM      3  C   UNL     1       3.880   5.193  19.295  0.00  0.00    +0.000 C 
ATOM      4  O   UNL     1       3.937   6.154  20.052  0.00  0.00    +0.000 OA
ATOM      5  C   UNL     1       2.732   4.270  19.374  0.00  0.00    +0.000 A 
ATOM      6  C   UNL     1       1.675   4.544  20.256  0.00  0.00    +0.000 A 
ATOM      7  C   UNL     1       0.584   3.677  20.337  0.00  0.00    +0.000 A 
ATOM      8  C   UNL     1       0.544   2.530  19.547  0.00  0.00    +0.000 A 
ATOM      9  C   UNL     1       1.596   2.253  18.672  0.00  0.00    +0.000 A 
ATOM     10  C   UNL     1       2.687   3.130  18.584  0.00  0.00    +0.000 A 
ATOM     11  C   UNL     1       3.777   2.829  17.646  0.00  0.00    +0.000 C 
ATOM     12  O   UNL     1       3.756   1.798  16.977  0.00  0.00    +0.000 OA
ENDROOT
BRANCH   2  13
ATOM     13  C   UNL     1       6.014   5.909  18.077  0.00  0.00    +0.000 A 
ATOM     14  C   UNL     1       7.192   5.826  18.834  0.00  0.00    +0.000 A 
ATOM     15  C   UNL     1       8.166   6.819  18.734  0.00  0.00    +0.000 A 
ATOM     16  C   UNL     1       7.975   7.899  17.874  0.00  0.00    +0.000 A 
ATOM     17  C   UNL     1       6.821   7.971  17.092  0.00  0.00    +0.000 A 
ATOM     18  C   UNL     1       5.847   6.976  17.187  0.00  0.00    +0.000 A 
ENDBRANCH   2  13
BRANCH   1  19
ATOM     19  N   UNL     1       5.873   3.454  16.550  0.00  0.00    +0.000 N 
ATOM     20  H   UNL     1       6.775   3.876  16.812  0.00  0.00    +0.000 HD
BRANCH  19  21
ATOM     21  C   UNL     1       5.641   3.814  15.139  0.00  0.00    +0.000 C 
BRANCH  21  22
ATOM     22  C   UNL     1       6.872   4.537  14.533  0.00  0.00    +0.000 C 
BRANCH  22  24
ATOM     23  C   UNL     1       6.085   3.499  12.474  0.00  0.00    +0.000 C 
ATOM     24  N   UNL     1       7.222   4.124  13.154  0.00  0.00    +0.000 NA
ATOM     25  C   UNL     1       7.677   5.286  12.382  0.00  0.00    +0.000 C 
ENDBRANCH  22  24
ENDBRANCH  21  22
ENDBRANCH  19  21
ENDBRANCH   1  19
TORSDOF 5
ENDMDL
MODEL 6
REMARK VINA RESULT:      -6.8      2.226      4.055
REMARK  Name = 
REMARK  7 active torsions:
REMARK  status: ('A' for Active; 'I' for Inactive)
REMARK    1  A    between atoms: C_1  and  N_2
REMARK    2  A    between atoms: N_2  and  C_3
REMARK    3  A    between atoms: N_2  and  C_4
REMARK    4  A    between atoms: C_4  and  C_5
REMARK    5  A    between atoms: C_5  and  N_6
REMARK    6  A    between atoms: N_6  and  C_7
REMARK    7  A    between atoms: C_8  and  C_9
REMARK                            x       y       z     vdW  Elec       q    Type
REMARK                         _______ _______ _______ _____ _____    ______ ____
ROOT
ATOM      1  C   UNL     1       2.608   7.516  18.124  0.00  0.00    +0.000 C 
ATOM      2  C   UNL     1       2.412   6.547  19.042  0.00  0.00    +0.000 C 
ATOM      3  C   UNL     1       1.647   6.800  20.298  0.00  0.00    +0.000 C 
ATOM      4  O   UNL     1       1.390   5.909  21.098  0.00  0.00    +0.000 OA
ATOM      5  C   UNL     1       1.190   8.176  20.569  0.00  0.00    +0.000 A 
ATOM      6  C   UNL     1       0.540   8.471  21.778  0.00  0.00    +0.000 A 
ATOM      7  C   UNL     1       0.106   9.771  22.044  0.00  0.00    +0.000 A 
ATOM      8  C   UNL     1       0.308  10.780  21.105  0.00  0.00    +0.000 A 
ATOM      9  C   UNL     1       0.951  10.489  19.901  0.00  0.00    +0.000 A 
ATOM     10  C   UNL     1       1.396   9.186  19.638  0.00  0.00    +0.000 A 
ATOM     11  C   UNL     1       2.084   8.902  18.372  0.00  0.00    +0.000 C 
ATOM     12  O   UNL     1       2.229   9.787  17.531  0.00  0.00    +0.000 OA
ENDROOT
BRANCH   2  13
ATOM     13  C   UNL     1       3.014   5.214  18.827  0.00  0.00    +0.000 A 
ATOM     14  C   UNL     1       2.326   4.254  18.070  0.00  0.00    +0.000 A 
ATOM     15  C   UNL     1       2.827   2.957  17.952  0.00  0.00    +0.000 A 
ATOM     16  C   UNL     1       4.020   2.611  18.583  0.00  0.00    +0.000 A 
ATOM     17  C   UNL     1       4.728   3.570  19.310  0.00  0.00    +0.000 A 
ATOM     18  C   UNL     1       4.231   4.869  19.425  0.00  0.00    +0.000 A 
ENDBRANCH   2  13
BRANCH   1  19
ATOM     19  N   UNL     1       3.303   7.364  16.910  0.00  0.00    +0.000 N 
ATOM     20  H   UNL     1       3.027   6.470  16.482  0.00  0.00    +0.000 HD
BRANCH  19  21
ATOM     21  C   UNL     1       4.777   7.385  16.915  0.00  0.00    +0.000 C 
BRANCH  21  22
ATOM     22  C   UNL     1       5.359   6.217  16.078  0.00  0.00    +0.000 C 
BRANCH  22  24
ATOM     23  C   UNL     1       7.352   6.782  17.360  0.00  0.00    +0.000 C 
ATOM     24  N   UNL     1       6.809   5.976  16.264  0.00  0.00    +0.000 NA
ATOM     25  C   UNL     1       7.052   4.554  16.532  0.00  0.00    +0.000 C 
ENDBRANCH  22  24
ENDBRANCH  21  22
ENDBRANCH  19  21
ENDBRANCH   1  19
TORSDOF 5
ENDMDL
MODEL 7
REMARK VINA RESULT:      -6.7      3.947      6.526
REMARK  Name = 
REMARK  7 active torsions:
REMARK  status: ('A' for Active; 'I' for Inactive)
REMARK    1  A    between atoms: C_1  and  N_2
REMARK    2  A    between atoms: N_2  and  C_3
REMARK    3  A    between atoms: N_2  and  C_4
REMARK    4  A    between atoms: C_4  and  C_5
REMARK    5  A    between atoms: C_5  and  N_6
REMARK    6  A    between atoms: N_6  and  C_7
REMARK    7  A    between atoms: C_8  and  C_9
REMARK                            x       y       z     vdW  Elec       q    Type
REMARK                         _______ _______ _______ _____ _____    ______ ____
ROOT
ATOM      1  C   UNL     1       4.918   3.821  17.574  0.00  0.00    +0.000 C 
ATOM      2  C   UNL     1       4.879   4.920  18.355  0.00  0.00    +0.000 C 
ATOM      3  C   UNL     1       3.774   5.150  19.332  0.00  0.00    +0.000 C 
ATOM      4  O   UNL     1       3.772   6.101  20.104  0.00  0.00    +0.000 OA
ATOM      5  C   UNL     1       2.655   4.190  19.355  0.00  0.00    +0.000 A 
ATOM      6  C   UNL     1       1.557   4.416  20.200  0.00  0.00    +0.000 A 
ATOM      7  C   UNL     1       0.493   3.514  20.228  0.00  0.00    +0.000 A 
ATOM      8  C   UNL     1       0.520   2.378  19.421  0.00  0.00    +0.000 A 
ATOM      9  C   UNL     1       1.611   2.149  18.582  0.00  0.00    +0.000 A 
ATOM     10  C   UNL     1       2.676   3.061  18.548  0.00  0.00    +0.000 A 
ATOM     11  C   UNL     1       3.809   2.810  17.647  0.00  0.00    +0.000 C 
ATOM     12  O   UNL     1       3.846   1.788  16.963  0.00  0.00    +0.000 OA
ENDROOT
BRANCH   2  13
ATOM     13  C   UNL     1       5.927   5.952  18.205  0.00  0.00    +0.000 A 
ATOM     14  C   UNL     1       5.756   6.985  17.270  0.00  0.00    +0.000 A 
ATOM     15  C   UNL     1       6.783   7.901  17.037  0.00  0.00    +0.000 A 
ATOM     16  C   UNL     1       7.983   7.796  17.736  0.00  0.00    +0.000 A 
ATOM     17  C   UNL     1       8.148   6.792  18.691  0.00  0.00    +0.000 A 
ATOM     18  C   UNL     1       7.121   5.877  18.931  0.00  0.00    +0.000 A 
ENDBRANCH   2  13
BRANCH   1  19
ATOM     19  N   UNL     1       5.923   3.517  16.639  0.00  0.00    +0.000 N 
ATOM     20  H   UNL     1       6.797   3.972  16.936  0.00  0.00    +0.000 HD
BRANCH  19  21
ATOM     21  C   UNL     1       5.726   3.880  15.224  0.00  0.00    +0.000 C 
BRANCH  21  22
ATOM     22  C   UNL     1       6.993   4.551  14.633  0.00  0.00    +0.000 C 
BRANCH  22  24
ATOM     23  C   UNL     1       8.142   5.510  12.711  0.00  0.00    +0.000 C 
ATOM     24  N   UNL     1       6.916   4.866  13.187  0.00  0.00    +0.000 NA
ATOM     25  C   UNL     1       6.674   3.641  12.418  0.00  0.00    +0.000 C 
ENDBRANCH  22  24
ENDBRANCH  21  22
ENDBRANCH  19  21
ENDBRANCH   1  19
TORSDOF 5
ENDMDL
MODEL 8
REMARK VINA RESULT:      -6.7      1.831      3.006
REMARK  Name = 
REMARK  7 active torsions:
REMARK  status: ('A' for Active; 'I' for Inactive)
REMARK    1  A    between atoms: C_1  and  N_2
REMARK    2  A    between atoms: N_2  and  C_3
REMARK    3  A    between atoms: N_2  and  C_4
REMARK    4  A    between atoms: C_4  and  C_5
REMARK    5  A    between atoms: C_5  and  N_6
REMARK    6  A    between atoms: N_6  and  C_7
REMARK    7  A    between atoms: C_8  and  C_9
REMARK                            x       y       z     vdW  Elec       q    Type
REMARK                         _______ _______ _______ _____ _____    ______ ____
ROOT
ATOM      1  C   UNL     1       4.114   5.143  18.844  0.00  0.00    +0.000 C 
ATOM      2  C   UNL     1       4.322   5.928  17.767  0.00  0.00    +0.000 C 
ATOM      3  C   UNL     1       3.648   7.252  17.619  0.00  0.00    +0.000 C 
ATOM      4  O   UNL     1       3.893   8.009  16.688  0.00  0.00    +0.000 OA
ATOM      5  C   UNL     1       2.658   7.646  18.639  0.00  0.00    +0.000 A 
ATOM      6  C   UNL     1       1.942   8.844  18.491  0.00  0.00    +0.000 A 
ATOM      7  C   UNL     1       1.001   9.225  19.450  0.00  0.00    +0.000 A 
ATOM      8  C   UNL     1       0.775   8.419  20.563  0.00  0.00    +0.000 A 
ATOM      9  C   UNL     1       1.487   7.228  20.714  0.00  0.00    +0.000 A 
ATOM     10  C   UNL     1       2.425   6.841  19.746  0.00  0.00    +0.000 A 
ATOM     11  C   UNL     1       3.154   5.577  19.915  0.00  0.00    +0.000 C 
ATOM     12  O   UNL     1       2.977   4.886  20.917  0.00  0.00    +0.000 OA
ENDROOT
BRANCH   2  13
ATOM     13  C   UNL     1       5.197   5.445  16.677  0.00  0.00    +0.000 A 
ATOM     14  C   UNL     1       4.655   4.662  15.647  0.00  0.00    +0.000 A 
ATOM     15  C   UNL     1       5.486   4.106  14.674  0.00  0.00    +0.000 A 
ATOM     16  C   UNL     1       6.860   4.331  14.718  0.00  0.00    +0.000 A 
ATOM     17  C   UNL     1       7.402   5.136  15.721  0.00  0.00    +0.000 A 
ATOM     18  C   UNL     1       6.573   5.698  16.693  0.00  0.00    +0.000 A 
ENDBRANCH   2  13
BRANCH   1  19
ATOM     19  N   UNL     1       4.714   3.892  19.072  0.00  0.00    +0.000 N 
ATOM     20  H   UNL     1       5.389   3.708  18.317  0.00  0.00    +0.000 HD
BRANCH  19  21
ATOM     21  C   UNL     1       3.864   2.691  19.171  0.00  0.00    +0.000 C 
BRANCH  21  22
ATOM     22  C   UNL     1       3.083   2.444  17.854  0.00  0.00    +0.000 C 
BRANCH  22  24
ATOM     23  C   UNL     1       1.139   2.386  19.320  0.00  0.00    +0.000 C 
ATOM     24  N   UNL     1       1.616   2.620  17.955  0.00  0.00    +0.000 NA
ATOM     25  C   UNL     1       1.242   3.973  17.529  0.00  0.00    +0.000 C 
ENDBRANCH  22  24
ENDBRANCH  21  22
ENDBRANCH  19  21
ENDBRANCH   1  19
TORSDOF 5
ENDMDL
MODEL 9
REMARK VINA RESULT:      -6.6      2.242      6.380
REMARK  Name = 
REMARK  7 active torsions:
REMARK  status: ('A' for Active; 'I' for Inactive)
REMARK    1  A    between atoms: C_1  and  N_2
REMARK    2  A    between atoms: N_2  and  C_3
REMARK    3  A    between atoms: N_2  and  C_4
REMARK    4  A    between atoms: C_4  and  C_5
REMARK    5  A    between atoms: C_5  and  N_6
REMARK    6  A    between atoms: N_6  and  C_7
REMARK    7  A    between atoms: C_8  and  C_9
REMARK                            x       y       z     vdW  Elec       q    Type
REMARK                         _______ _______ _______ _____ _____    ______ ____
ROOT
ATOM      1  C   UNL     1       3.984   5.745  18.461  0.00  0.00    +0.000 C 
ATOM      2  C   UNL     1       3.695   4.428  18.474  0.00  0.00    +0.000 C 
ATOM      3  C   UNL     1       4.241   3.494  17.446  0.00  0.00    +0.000 C 
ATOM      4  O   UNL     1       4.053   2.284  17.496  0.00  0.00    +0.000 OA
ATOM      5  C   UNL     1       5.033   4.063  16.340  0.00  0.00    +0.000 A 
ATOM      6  C   UNL     1       5.494   3.229  15.309  0.00  0.00    +0.000 A 
ATOM      7  C   UNL     1       6.243   3.759  14.257  0.00  0.00    +0.000 A 
ATOM      8  C   UNL     1       6.543   5.119  14.230  0.00  0.00    +0.000 A 
ATOM      9  C   UNL     1       6.089   5.950  15.255  0.00  0.00    +0.000 A 
ATOM     10  C   UNL     1       5.329   5.419  16.307  0.00  0.00    +0.000 A 
ATOM     11  C   UNL     1       4.847   6.313  17.369  0.00  0.00    +0.000 C 
ATOM     12  O   UNL     1       5.145   7.506  17.361  0.00  0.00    +0.000 OA
ENDROOT
BRANCH   2  13
ATOM     13  C   UNL     1       2.768   3.901  19.500  0.00  0.00    +0.000 A 
ATOM     14  C   UNL     1       3.273   3.469  20.735  0.00  0.00    +0.000 A 
ATOM     15  C   UNL     1       2.430   2.866  21.669  0.00  0.00    +0.000 A 
ATOM     16  C   UNL     1       1.077   2.696  21.380  0.00  0.00    +0.000 A 
ATOM     17  C   UNL     1       0.561   3.154  20.167  0.00  0.00    +0.000 A 
ATOM     18  C   UNL     1       1.402   3.762  19.232  0.00  0.00    +0.000 A 
ENDBRANCH   2  13
BRANCH   1  19
ATOM     19  N   UNL     1       3.526   6.693  19.393  0.00  0.00    +0.000 N 
ATOM     20  H   UNL     1       3.609   6.292  20.338  0.00  0.00    +0.000 HD
BRANCH  19  21
ATOM     21  C   UNL     1       2.150   7.210  19.280  0.00  0.00    +0.000 C 
BRANCH  21  22
ATOM     22  C   UNL     1       2.109   8.530  18.468  0.00  0.00    +0.000 C 
BRANCH  22  24
ATOM     23  C   UNL     1       0.156   9.969  18.255  0.00  0.00    +0.000 C 
ATOM     24  N   UNL     1       1.312   9.617  19.082  0.00  0.00    +0.000 NA
ATOM     25  C   UNL     1       0.857   9.213  20.417  0.00  0.00    +0.000 C 
ENDBRANCH  22  24
ENDBRANCH  21  22
ENDBRANCH  19  21
ENDBRANCH   1  19
TORSDOF 5
ENDMDL
