MODEL 1
REMARK VINA RESULT:      -8.6      0.000      0.000
REMARK  Name = 
REMARK  9 active torsions:
REMARK  status: ('A' for Active; 'I' for Inactive)
REMARK    1  A    between atoms: C_2  and  O_27
REMARK    2  A    between atoms: N_3  and  C_4
REMARK    3  A    between atoms: C_4  and  C_5
REMARK    4  A    between atoms: C_4  and  C_12
REMARK    5  A    between atoms: C_5  and  C_6
REMARK    6  A    between atoms: N_14  and  C_15
REMARK    7  A    between atoms: C_25  and  O_26
REMARK    8  A    between atoms: O_27  and  C_28
REMARK    9  A    between atoms: C_28  and  C_29
REMARK                            x       y       z     vdW  Elec       q    Type
REMARK                         _______ _______ _______ _____ _____    ______ ____
ROOT
ATOM      1  C   UNL     1       0.130  10.685  18.933  0.00  0.00    +0.000 C 
ENDROOT
BRANCH   1   4
ATOM      2  O   UNL     1       0.904  13.025  20.401  0.00  0.00    +0.000 OA
ATOM      3  C   UNL     1       1.148  12.936  19.208  0.00  0.00    +0.000 C 
ATOM      4  N   UNL     1       0.938  11.817  18.449  0.00  0.00    +0.000 N 
ATOM      5  H   UNL     1       1.047  11.963  17.456  0.00  0.00    +0.000 HD
BRANCH   3   6
ATOM      6  O   UNL     1       1.616  13.935  18.422  0.00  0.00    +0.000 OA
BRANCH   6   7
ATOM      7  C   UNL     1       1.949  15.167  19.085  0.00  0.00    +0.000 C 
BRANCH   7   8
ATOM      8  C   UNL     1       1.218  16.310  18.426  0.00  0.00    +0.000 A 
ATOM      9  C   UNL     1      -0.169  16.459  18.570  0.00  0.00    +0.000 A 
ATOM     10  C   UNL     1      -0.839  17.505  17.930  0.00  0.00    +0.000 A 
ATOM     11  C   UNL     1      -0.131  18.409  17.140  0.00  0.00    +0.000 A 
ATOM     12  C   UNL     1       1.248  18.273  16.994  0.00  0.00    +0.000 A 
ATOM     13  C   UNL     1       1.920  17.228  17.632  0.00  0.00    +0.000 A 
ENDBRANCH   7   8
ENDBRANCH   6   7
ENDBRANCH   3   6
ENDBRANCH   1   4
BRANCH   1  14
ATOM     14  C   UNL     1       0.919   9.616  19.755  0.00  0.00    +0.000 C 
ATOM     15  O   UNL     1       1.140   9.717  20.959  0.00  0.00    +0.000 OA
ATOM     16  N   UNL     1       1.425   8.570  19.009  0.00  0.00    +0.000 N 
ATOM     17  H   UNL     1       1.725   8.872  18.085  0.00  0.00    +0.000 HD
BRANCH  16  18
ATOM     18  C   UNL     1       2.323   7.554  19.616  0.00  0.00    +0.000 C 
ATOM     19  C   UNL     1       1.608   6.571  20.578  0.00  0.00    +0.000 C 
ATOM     20  C   UNL     1       1.905   5.117  20.298  0.00  0.00    +0.000 A 
ATOM     21  C   UNL     1       1.703   4.120  21.265  0.00  0.00    +0.000 A 
ATOM     22  C   UNL     1       1.948   2.780  20.955  0.00  0.00    +0.000 A 
ATOM     23  F   UNL     1       1.753   1.839  21.885  0.00  0.00    +0.000 F 
ATOM     24  C   UNL     1       2.382   2.403  19.688  0.00  0.00    +0.000 A 
ATOM     25  C   UNL     1       2.560   3.381  18.711  0.00  0.00    +0.000 A 
ATOM     26  C   UNL     1       2.330   4.721  19.026  0.00  0.00    +0.000 A 
ATOM     27  O   UNL     1       2.496   5.635  18.024  0.00  0.00    +0.000 OA
ATOM     28  C   UNL     1       3.117   6.818  18.509  0.00  0.00    +0.000 C 
BRANCH  28  29
ATOM     29  O   UNL     1       3.259   7.689  17.383  0.00  0.00    +0.000 OA
ATOM     30  H   UNL     1       2.490   7.448  16.833  0.00  0.00    +0.000 HD
ENDBRANCH  28  29
ENDBRANCH  16  18
ENDBRANCH   1  14
BRANCH   1  31
ATOM     31  C   UNL     1      -0.639   9.967  17.800  0.00  0.00    +0.000 C 
BRANCH  31  32
ATOM     32  C   UNL     1      -1.992  10.530  17.404  0.00  0.00    +0.000 A 
ATOM     33  C   UNL     1      -2.563  10.395  16.123  0.00  0.00    +0.000 A 
ATOM     34  C   UNL     1      -3.840  10.850  15.847  0.00  0.00    +0.000 A 
ATOM     35  C   UNL     1      -4.585  11.470  16.839  0.00  0.00    +0.000 A 
ATOM     36  C   UNL     1      -4.035  11.649  18.107  0.00  0.00    +0.000 A 
ATOM     37  C   UNL     1      -2.747  11.185  18.388  0.00  0.00    +0.000 A 
ENDBRANCH  31  32
ENDBRANCH   1  31
TORSDOF 9
ENDMDL
MODEL 2
REMARK VINA RESULT:      -8.4      4.052      7.223
REMARK  Name = 
REMARK  9 active torsions:
REMARK  status: ('A' for Active; 'I' for Inactive)
REMARK    1  A    between atoms: C_2  and  O_27
REMARK    2  A    between atoms: N_3  and  C_4
REMARK    3  A    between atoms: C_4  and  C_5
REMARK    4  A    between atoms: C_4  and  C_12
REMARK    5  A    between atoms: C_5  and  C_6
REMARK    6  A    between atoms: N_14  and  C_15
REMARK    7  A    between atoms: C_25  and  O_26
REMARK    8  A    between atoms: O_27  and  C_28
REMARK    9  A    between atoms: C_28  and  C_29
REMARK                            x       y       z     vdW  Elec       q    Type
REMARK                         _______ _______ _______ _____ _____    ______ ____
ROOT
ATOM      1  C   UNL     1       3.350   7.185  18.564  0.00  0.00    +0.000 C 
ENDROOT
BRANCH   1   4
ATOM      2  O   UNL     1       2.603   9.918  18.117  0.00  0.00    +0.000 OA
ATOM      3  C   UNL     1       1.803   9.019  17.915  0.00  0.00    +0.000 C 
ATOM      4  N   UNL     1       2.097   7.684  17.973  0.00  0.00    +0.000 N 
ATOM      5  H   UNL     1       1.289   7.079  17.934  0.00  0.00    +0.000 HD
BRANCH   3   6
ATOM      6  O   UNL     1       0.484   9.181  17.652  0.00  0.00    +0.000 OA
BRANCH   6   7
ATOM      7  C   UNL     1      -0.204  10.176  18.429  0.00  0.00    +0.000 C 
BRANCH   7   8
ATOM      8  C   UNL     1      -1.569  10.425  17.836  0.00  0.00    +0.000 A 
ATOM      9  C   UNL     1      -1.954   9.820  16.631  0.00  0.00    +0.000 A 
ATOM     10  C   UNL     1      -3.210  10.081  16.077  0.00  0.00    +0.000 A 
ATOM     11  C   UNL     1      -4.092  10.948  16.719  0.00  0.00    +0.000 A 
ATOM     12  C   UNL     1      -3.721  11.551  17.921  0.00  0.00    +0.000 A 
ATOM     13  C   UNL     1      -2.466  11.292  18.476  0.00  0.00    +0.000 A 
ENDBRANCH   7   8
ENDBRANCH   6   7
ENDBRANCH   3   6
ENDBRANCH   1   4
BRANCH   1  14
ATOM     14  C   UNL     1       4.290   6.427  17.572  0.00  0.00    +0.000 C 
ATOM     15  O   UNL     1       4.289   6.619  16.359  0.00  0.00    +0.000 OA
ATOM     16  N   UNL     1       5.082   5.457  18.153  0.00  0.00    +0.000 N 
ATOM     17  H   UNL     1       4.605   4.983  18.916  0.00  0.00    +0.000 HD
BRANCH  16  18
ATOM     18  C   UNL     1       5.918   4.548  17.327  0.00  0.00    +0.000 C 
ATOM     19  C   UNL     1       5.204   4.003  16.064  0.00  0.00    +0.000 C 
ATOM     20  C   UNL     1       6.003   4.163  14.792  0.00  0.00    +0.000 A 
ATOM     21  C   UNL     1       5.735   3.397  13.648  0.00  0.00    +0.000 A 
ATOM     22  C   UNL     1       6.468   3.602  12.477  0.00  0.00    +0.000 A 
ATOM     23  F   UNL     1       6.205   2.864  11.392  0.00  0.00    +0.000 F 
ATOM     24  C   UNL     1       7.464   4.572  12.412  0.00  0.00    +0.000 A 
ATOM     25  C   UNL     1       7.720   5.358  13.534  0.00  0.00    +0.000 A 
ATOM     26  C   UNL     1       6.999   5.142  14.709  0.00  0.00    +0.000 A 
ATOM     27  O   UNL     1       7.273   5.957  15.770  0.00  0.00    +0.000 OA
ATOM     28  C   UNL     1       7.268   5.227  16.989  0.00  0.00    +0.000 C 
BRANCH  28  29
ATOM     29  O   UNL     1       7.584   6.167  18.022  0.00  0.00    +0.000 OA
ATOM     30  H   UNL     1       8.066   6.861  17.534  0.00  0.00    +0.000 HD
ENDBRANCH  28  29
ENDBRANCH  16  18
ENDBRANCH   1  14
BRANCH   1  31
ATOM     31  C   UNL     1       3.116   6.290  19.803  0.00  0.00    +0.000 C 
BRANCH  31  32
ATOM     32  C   UNL     1       2.283   5.036  19.615  0.00  0.00    +0.000 A 
ATOM     33  C   UNL     1       1.680   4.320  20.669  0.00  0.00    +0.000 A 
ATOM     34  C   UNL     1       0.855   3.234  20.429  0.00  0.00    +0.000 A 
ATOM     35  C   UNL     1       0.619   2.818  19.127  0.00  0.00    +0.000 A 
ATOM     36  C   UNL     1       1.228   3.485  18.066  0.00  0.00    +0.000 A 
ATOM     37  C   UNL     1       2.057   4.584  18.307  0.00  0.00    +0.000 A 
ENDBRANCH  31  32
ENDBRANCH   1  31
TORSDOF 9
ENDMDL
MODEL 3
REMARK VINA RESULT:      -8.3      3.811      6.906
REMARK  Name = 
REMARK  9 active torsions:
REMARK  status: ('A' for Active; 'I' for Inactive)
REMARK    1  A    between atoms: C_2  and  O_27
REMARK    2  A    between atoms: N_3  and  C_4
REMARK    3  A    between atoms: C_4  and  C_5
REMARK    4  A    between atoms: C_4  and  C_12
REMARK    5  A    between atoms: C_5  and  C_6
REMARK    6  A    between atoms: N_14  and  C_15
REMARK    7  A    between atoms: C_25  and  O_26
REMARK    8  A    between atoms: O_27  and  C_28
REMARK    9  A    between atoms: C_28  and  C_29
REMARK                            x       y       z     vdW  Elec       q    Type
REMARK                         _______ _______ _______ _____ _____    ______ ____
ROOT
ATOM      1  C   UNL     1       2.399   7.026  19.919  0.00  0.00    +0.000 C 
ENDROOT
BRANCH   1   4
ATOM      2  O   UNL     1       0.984   9.043  21.389  0.00  0.00    +0.000 OA
ATOM      3  C   UNL     1       1.142   9.153  20.184  0.00  0.00    +0.000 C 
ATOM      4  N   UNL     1       1.907   8.319  19.415  0.00  0.00    +0.000 N 
ATOM      5  H   UNL     1       1.804   8.460  18.420  0.00  0.00    +0.000 HD
BRANCH   3   6
ATOM      6  O   UNL     1       0.552  10.082  19.393  0.00  0.00    +0.000 OA
BRANCH   6   7
ATOM      7  C   UNL     1      -0.726  10.575  19.832  0.00  0.00    +0.000 C 
BRANCH   7   8
ATOM      8  C   UNL     1      -1.674  10.636  18.660  0.00  0.00    +0.000 A 
ATOM      9  C   UNL     1      -1.438   9.884  17.500  0.00  0.00    +0.000 A 
ATOM     10  C   UNL     1      -2.307   9.972  16.410  0.00  0.00    +0.000 A 
ATOM     11  C   UNL     1      -3.419  10.810  16.468  0.00  0.00    +0.000 A 
ATOM     12  C   UNL     1      -3.667  11.557  17.618  0.00  0.00    +0.000 A 
ATOM     13  C   UNL     1      -2.799  11.472  18.709  0.00  0.00    +0.000 A 
ENDBRANCH   7   8
ENDBRANCH   6   7
ENDBRANCH   3   6
ENDBRANCH   1   4
BRANCH   1  14
ATOM     14  C   UNL     1       3.231   6.192  18.892  0.00  0.00    +0.000 C 
ATOM     15  O   UNL     1       3.017   6.200  17.683  0.00  0.00    +0.000 OA
ATOM     16  N   UNL     1       4.190   5.373  19.454  0.00  0.00    +0.000 N 
ATOM     17  H   UNL     1       3.887   4.988  20.346  0.00  0.00    +0.000 HD
BRANCH  16  18
ATOM     18  C   UNL     1       4.960   4.408  18.628  0.00  0.00    +0.000 C 
ATOM     19  C   UNL     1       4.368   4.171  17.215  0.00  0.00    +0.000 C 
ATOM     20  C   UNL     1       5.378   4.302  16.099  0.00  0.00    +0.000 A 
ATOM     21  C   UNL     1       5.156   3.742  14.831  0.00  0.00    +0.000 A 
ATOM     22  C   UNL     1       6.094   3.920  13.811  0.00  0.00    +0.000 A 
ATOM     23  F   UNL     1       5.874   3.381  12.607  0.00  0.00    +0.000 F 
ATOM     24  C   UNL     1       7.253   4.660  14.021  0.00  0.00    +0.000 A 
ATOM     25  C   UNL     1       7.470   5.243  15.268  0.00  0.00    +0.000 A 
ATOM     26  C   UNL     1       6.541   5.053  16.291  0.00  0.00    +0.000 A 
ATOM     27  O   UNL     1       6.791   5.668  17.485  0.00  0.00    +0.000 OA
ATOM     28  C   UNL     1       6.451   4.823  18.576  0.00  0.00    +0.000 C 
BRANCH  28  29
ATOM     29  O   UNL     1       6.770   5.553  19.765  0.00  0.00    +0.000 OA
ATOM     30  H   UNL     1       6.161   5.164  20.420  0.00  0.00    +0.000 HD
ENDBRANCH  28  29
ENDBRANCH  16  18
ENDBRANCH   1  14
BRANCH   1  31
ATOM     31  C   UNL     1       1.271   6.131  20.482  0.00  0.00    +0.000 C 
BRANCH  31  32
ATOM     32  C   UNL     1       1.455   4.628  20.390  0.00  0.00    +0.000 A 
ATOM     33  C   UNL     1       1.055   3.846  19.288  0.00  0.00    +0.000 A 
ATOM     34  C   UNL     1       1.333   2.492  19.221  0.00  0.00    +0.000 A 
ATOM     35  C   UNL     1       2.006   1.870  20.262  0.00  0.00    +0.000 A 
ATOM     36  C   UNL     1       2.384   2.609  21.380  0.00  0.00    +0.000 A 
ATOM     37  C   UNL     1       2.110   3.978  21.447  0.00  0.00    +0.000 A 
ENDBRANCH  31  32
ENDBRANCH   1  31
TORSDOF 9
ENDMDL
MODEL 4
REMARK VINA RESULT:      -8.3      4.164      9.457
REMARK  Name = 
REMARK  9 active torsions:
REMARK  status: ('A' for Active; 'I' for Inactive)
REMARK    1  A    between atoms: C_2  and  O_27
REMARK    2  A    between atoms: N_3  and  C_4
REMARK    3  A    between atoms: C_4  and  C_5
REMARK    4  A    between atoms: C_4  and  C_12
REMARK    5  A    between atoms: C_5  and  C_6
REMARK    6  A    between atoms: N_14  and  C_15
REMARK    7  A    between atoms: C_25  and  O_26
REMARK    8  A    between atoms: O_27  and  C_28
REMARK    9  A    between atoms: C_28  and  C_29
REMARK                            x       y       z     vdW  Elec       q    Type
REMARK                         _______ _______ _______ _____ _____    ______ ____
ROOT
ATOM      1  C   UNL     1       0.127  10.493  18.750  0.00  0.00    +0.000 C 
ENDROOT
BRANCH   1   4
ATOM      2  O   UNL     1       2.204   9.170  17.279  0.00  0.00    +0.000 OA
ATOM      3  C   UNL     1       1.968   8.854  18.434  0.00  0.00    +0.000 C 
ATOM      4  N   UNL     1       1.093   9.504  19.260  0.00  0.00    +0.000 N 
ATOM      5  H   UNL     1       0.901   9.021  20.126  0.00  0.00    +0.000 HD
BRANCH   3   6
ATOM      6  O   UNL     1       2.488   7.782  19.079  0.00  0.00    +0.000 OA
BRANCH   6   7
ATOM      7  C   UNL     1       2.859   6.660  18.259  0.00  0.00    +0.000 C 
BRANCH   7   8
ATOM      8  C   UNL     1       2.211   5.407  18.794  0.00  0.00    +0.000 A 
ATOM      9  C   UNL     1       1.861   4.353  17.937  0.00  0.00    +0.000 A 
ATOM     10  C   UNL     1       1.235   3.210  18.440  0.00  0.00    +0.000 A 
ATOM     11  C   UNL     1       0.950   3.109  19.801  0.00  0.00    +0.000 A 
ATOM     12  C   UNL     1       1.298   4.149  20.662  0.00  0.00    +0.000 A 
ATOM     13  C   UNL     1       1.924   5.293  20.162  0.00  0.00    +0.000 A 
ENDBRANCH   7   8
ENDBRANCH   6   7
ENDBRANCH   3   6
ENDBRANCH   1   4
BRANCH   1  14
ATOM     14  C   UNL     1       0.200  11.897  19.431  0.00  0.00    +0.000 C 
ATOM     15  O   UNL     1       1.080  12.719  19.192  0.00  0.00    +0.000 OA
ATOM     16  N   UNL     1      -0.766  12.125  20.392  0.00  0.00    +0.000 N 
ATOM     17  H   UNL     1      -0.990  11.281  20.914  0.00  0.00    +0.000 HD
BRANCH  16  18
ATOM     18  C   UNL     1      -0.741  13.348  21.234  0.00  0.00    +0.000 C 
ATOM     19  C   UNL     1      -1.739  14.446  20.785  0.00  0.00    +0.000 C 
ATOM     20  C   UNL     1      -2.604  14.981  21.903  0.00  0.00    +0.000 A 
ATOM     21  C   UNL     1      -3.257  16.219  21.806  0.00  0.00    +0.000 A 
ATOM     22  C   UNL     1      -4.082  16.661  22.843  0.00  0.00    +0.000 A 
ATOM     23  F   UNL     1      -4.698  17.844  22.741  0.00  0.00    +0.000 F 
ATOM     24  C   UNL     1      -4.286  15.886  23.980  0.00  0.00    +0.000 A 
ATOM     25  C   UNL     1      -3.664  14.642  24.075  0.00  0.00    +0.000 A 
ATOM     26  C   UNL     1      -2.827  14.208  23.046  0.00  0.00    +0.000 A 
ATOM     27  O   UNL     1      -2.264  12.970  23.180  0.00  0.00    +0.000 OA
ATOM     28  C   UNL     1      -0.917  12.971  22.726  0.00  0.00    +0.000 C 
BRANCH  28  29
ATOM     29  O   UNL     1      -0.424  11.642  22.928  0.00  0.00    +0.000 OA
ATOM     30  H   UNL     1       0.521  11.733  22.704  0.00  0.00    +0.000 HD
ENDBRANCH  28  29
ENDBRANCH  16  18
ENDBRANCH   1  14
BRANCH   1  31
ATOM     31  C   UNL     1      -1.335   9.990  18.810  0.00  0.00    +0.000 C 
BRANCH  31  32
ATOM     32  C   UNL     1      -2.242  10.334  17.642  0.00  0.00    +0.000 A 
ATOM     33  C   UNL     1      -2.103   9.798  16.346  0.00  0.00    +0.000 A 
ATOM     34  C   UNL     1      -3.017  10.077  15.345  0.00  0.00    +0.000 A 
ATOM     35  C   UNL     1      -4.092  10.915  15.602  0.00  0.00    +0.000 A 
ATOM     36  C   UNL     1      -4.238  11.487  16.863  0.00  0.00    +0.000 A 
ATOM     37  C   UNL     1      -3.319  11.201  17.877  0.00  0.00    +0.000 A 
ENDBRANCH  31  32
ENDBRANCH   1  31
TORSDOF 9
ENDMDL
MODEL 5
REMARK VINA RESULT:      -8.2      2.495      3.295
REMARK  Name = 
REMARK  9 active torsions:
REMARK  status: ('A' for Active; 'I' for Inactive)
REMARK    1  A    between atoms: C_2  and  O_27
REMARK    2  A    between atoms: N_3  and  C_4
REMARK    3  A    between atoms: C_4  and  C_5
REMARK    4  A    between atoms: C_4  and  C_12
REMARK    5  A    between atoms: C_5  and  C_6
REMARK    6  A    between atoms: N_14  and  C_15
REMARK    7  A    between atoms: C_25  and  O_26
REMARK    8  A    between atoms: O_27  and  C_28
REMARK    9  A    between atoms: C_28  and  C_29
REMARK                            x       y       z     vdW  Elec       q    Type
REMARK                         _______ _______ _______ _____ _____    ______ ____
ROOT
ATOM      1  C   UNL     1       1.279  10.259  19.373  0.00  0.00    +0.000 C 
ENDROOT
BRANCH   1   4
ATOM      2  O   UNL     1       1.711  12.672  20.863  0.00  0.00    +0.000 OA
ATOM      3  C   UNL     1       1.498  12.717  19.662  0.00  0.00    +0.000 C 
ATOM      4  N   UNL     1       1.408  11.626  18.842  0.00  0.00    +0.000 N 
ATOM      5  H   UNL     1       1.075  11.832  17.911  0.00  0.00    +0.000 HD
BRANCH   3   6
ATOM      6  O   UNL     1       1.264  13.843  18.945  0.00  0.00    +0.000 OA
BRANCH   6   7
ATOM      7  C   UNL     1       1.092  15.055  19.698  0.00  0.00    +0.000 C 
BRANCH   7   8
ATOM      8  C   UNL     1       0.850  16.207  18.754  0.00  0.00    +0.000 A 
ATOM      9  C   UNL     1      -0.447  16.684  18.514  0.00  0.00    +0.000 A 
ATOM     10  C   UNL     1      -0.661  17.732  17.614  0.00  0.00    +0.000 A 
ATOM     11  C   UNL     1       0.416  18.311  16.946  0.00  0.00    +0.000 A 
ATOM     12  C   UNL     1       1.710  17.848  17.181  0.00  0.00    +0.000 A 
ATOM     13  C   UNL     1       1.927  16.800  18.079  0.00  0.00    +0.000 A 
ENDBRANCH   7   8
ENDBRANCH   6   7
ENDBRANCH   3   6
ENDBRANCH   1   4
BRANCH   1  14
ATOM     14  C   UNL     1       1.855   9.136  18.452  0.00  0.00    +0.000 C 
ATOM     15  O   UNL     1       1.930   9.237  17.230  0.00  0.00    +0.000 OA
ATOM     16  N   UNL     1       2.209   7.974  19.108  0.00  0.00    +0.000 N 
ATOM     17  H   UNL     1       1.584   7.770  19.884  0.00  0.00    +0.000 HD
BRANCH  16  18
ATOM     18  C   UNL     1       2.631   6.764  18.358  0.00  0.00    +0.000 C 
ATOM     19  C   UNL     1       3.644   7.045  17.219  0.00  0.00    +0.000 C 
ATOM     20  C   UNL     1       4.862   6.151  17.249  0.00  0.00    +0.000 A 
ATOM     21  C   UNL     1       5.670   5.963  16.117  0.00  0.00    +0.000 A 
ATOM     22  C   UNL     1       6.812   5.162  16.194  0.00  0.00    +0.000 A 
ATOM     23  F   UNL     1       7.574   4.988  15.109  0.00  0.00    +0.000 F 
ATOM     24  C   UNL     1       7.180   4.547  17.387  0.00  0.00    +0.000 A 
ATOM     25  C   UNL     1       6.399   4.749  18.524  0.00  0.00    +0.000 A 
ATOM     26  C   UNL     1       5.250   5.536  18.443  0.00  0.00    +0.000 A 
ATOM     27  O   UNL     1       4.537   5.721  19.593  0.00  0.00    +0.000 OA
ATOM     28  C   UNL     1       3.139   5.679  19.340  0.00  0.00    +0.000 C 
BRANCH  28  29
ATOM     29  O   UNL     1       2.495   5.862  20.605  0.00  0.00    +0.000 OA
ATOM     30  H   UNL     1       3.200   5.624  21.235  0.00  0.00    +0.000 HD
ENDBRANCH  28  29
ENDBRANCH  16  18
ENDBRANCH   1  14
BRANCH   1  31
ATOM     31  C   UNL     1      -0.178   9.893  19.745  0.00  0.00    +0.000 C 
BRANCH  31  32
ATOM     32  C   UNL     1      -1.277  10.353  18.805  0.00  0.00    +0.000 A 
ATOM     33  C   UNL     1      -2.176  11.401  19.089  0.00  0.00    +0.000 A 
ATOM     34  C   UNL     1      -3.099  11.837  18.155  0.00  0.00    +0.000 A 
ATOM     35  C   UNL     1      -3.167  11.228  16.911  0.00  0.00    +0.000 A 
ATOM     36  C   UNL     1      -2.316  10.167  16.613  0.00  0.00    +0.000 A 
ATOM     37  C   UNL     1      -1.378   9.729  17.553  0.00  0.00    +0.000 A 
ENDBRANCH  31  32
ENDBRANCH   1  31
TORSDOF 9
ENDMDL
MODEL 6
REMARK VINA RESULT:      -8.2      2.936      4.630
REMARK  Name = 
REMARK  9 active torsions:
REMARK  status: ('A' for Active; 'I' for Inactive)
REMARK    1  A    between atoms: C_2  and  O_27
REMARK    2  A    between atoms: N_3  and  C_4
REMARK    3  A    between atoms: C_4  and  C_5
REMARK    4  A    between atoms: C_4  and  C_12
REMARK    5  A    between atoms: C_5  and  C_6
REMARK    6  A    between atoms: N_14  and  C_15
REMARK    7  A    between atoms: C_25  and  O_26
REMARK    8  A    between atoms: O_27  and  C_28
REMARK    9  A    between atoms: C_28  and  C_29
REMARK                            x       y       z     vdW  Elec       q    Type
REMARK                         _______ _______ _______ _____ _____    ______ ____
ROOT
ATOM      1  C   UNL     1       0.173  10.566  21.281  0.00  0.00    +0.000 C 
ENDROOT
BRANCH   1   4
ATOM      2  O   UNL     1       0.871  12.190  19.021  0.00  0.00    +0.000 OA
ATOM      3  C   UNL     1      -0.184  11.576  19.038  0.00  0.00    +0.000 C 
ATOM      4  N   UNL     1      -0.551  10.678  20.003  0.00  0.00    +0.000 N 
ATOM      5  H   UNL     1      -1.514  10.380  19.949  0.00  0.00    +0.000 HD
BRANCH   3   6
ATOM      6  O   UNL     1      -1.190  11.712  18.141  0.00  0.00    +0.000 OA
BRANCH   6   7
ATOM      7  C   UNL     1      -2.278  10.779  18.256  0.00  0.00    +0.000 C 
BRANCH   7   8
ATOM      8  C   UNL     1      -3.568  11.531  18.469  0.00  0.00    +0.000 A 
ATOM      9  C   UNL     1      -4.572  11.536  17.490  0.00  0.00    +0.000 A 
ATOM     10  C   UNL     1      -5.750  12.261  17.687  0.00  0.00    +0.000 A 
ATOM     11  C   UNL     1      -5.936  12.988  18.861  0.00  0.00    +0.000 A 
ATOM     12  C   UNL     1      -4.947  12.986  19.843  0.00  0.00    +0.000 A 
ATOM     13  C   UNL     1      -3.768  12.263  19.649  0.00  0.00    +0.000 A 
ENDBRANCH   7   8
ENDBRANCH   6   7
ENDBRANCH   3   6
ENDBRANCH   1   4
BRANCH   1  14
ATOM     14  C   UNL     1       1.083   9.303  21.414  0.00  0.00    +0.000 C 
ATOM     15  O   UNL     1       1.698   9.018  22.438  0.00  0.00    +0.000 OA
ATOM     16  N   UNL     1       1.211   8.557  20.259  0.00  0.00    +0.000 N 
ATOM     17  H   UNL     1       1.215   9.143  19.427  0.00  0.00    +0.000 HD
BRANCH  16  18
ATOM     18  C   UNL     1       2.156   7.415  20.179  0.00  0.00    +0.000 C 
ATOM     19  C   UNL     1       1.573   6.073  20.691  0.00  0.00    +0.000 C 
ATOM     20  C   UNL     1       1.763   4.919  19.734  0.00  0.00    +0.000 A 
ATOM     21  C   UNL     1       1.684   3.584  20.160  0.00  0.00    +0.000 A 
ATOM     22  C   UNL     1       1.823   2.544  19.238  0.00  0.00    +0.000 A 
ATOM     23  F   UNL     1       1.749   1.275  19.655  0.00  0.00    +0.000 F 
ATOM     24  C   UNL     1       2.028   2.803  17.886  0.00  0.00    +0.000 A 
ATOM     25  C   UNL     1       2.081   4.125  17.449  0.00  0.00    +0.000 A 
ATOM     26  C   UNL     1       1.957   5.164  18.371  0.00  0.00    +0.000 A 
ATOM     27  O   UNL     1       1.990   6.440  17.884  0.00  0.00    +0.000 OA
ATOM     28  C   UNL     1       2.729   7.296  18.745  0.00  0.00    +0.000 C 
BRANCH  28  29
ATOM     29  O   UNL     1       2.716   8.590  18.134  0.00  0.00    +0.000 OA
ATOM     30  H   UNL     1       2.634   8.374  17.186  0.00  0.00    +0.000 HD
ENDBRANCH  28  29
ENDBRANCH  16  18
ENDBRANCH   1  14
BRANCH   1  31
ATOM     31  C   UNL     1      -0.763  10.632  22.510  0.00  0.00    +0.000 C 
BRANCH  31  32
ATOM     32  C   UNL     1      -1.499  11.935  22.762  0.00  0.00    +0.000 A 
ATOM     33  C   UNL     1      -2.808  12.020  23.276  0.00  0.00    +0.000 A 
ATOM     34  C   UNL     1      -3.394  13.239  23.572  0.00  0.00    +0.000 A 
ATOM     35  C   UNL     1      -2.694  14.416  23.349  0.00  0.00    +0.000 A 
ATOM     36  C   UNL     1      -1.411  14.366  22.811  0.00  0.00    +0.000 A 
ATOM     37  C   UNL     1      -0.816  13.136  22.517  0.00  0.00    +0.000 A 
ENDBRANCH  31  32
ENDBRANCH   1  31
TORSDOF 9
ENDMDL
MODEL 7
REMARK VINA RESULT:      -8.2      2.990      4.614
REMARK  Name = 
REMARK  9 active torsions:
REMARK  status: ('A' for Active; 'I' for Inactive)
REMARK    1  A    between atoms: C_2  and  O_27
REMARK    2  A    between atoms: N_3  and  C_4
REMARK    3  A    between atoms: C_4  and  C_5
REMARK    4  A    between atoms: C_4  and  C_12
REMARK    5  A    between atoms: C_5  and  C_6
REMARK    6  A    between atoms: N_14  and  C_15
REMARK    7  A    between atoms: C_25  and  O_26
REMARK    8  A    between atoms: O_27  and  C_28
REMARK    9  A    between atoms: C_28  and  C_29
REMARK                            x       y       z     vdW  Elec       q    Type
REMARK                         _______ _______ _______ _____ _____    ______ ____
ROOT
ATOM      1  C   UNL     1       0.150  10.549  21.262  0.00  0.00    +0.000 C 
ENDROOT
BRANCH   1   4
ATOM      2  O   UNL     1       0.974  11.618  18.730  0.00  0.00    +0.000 OA
ATOM      3  C   UNL     1      -0.179  11.259  18.903  0.00  0.00    +0.000 C 
ATOM      4  N   UNL     1      -0.641  10.621  20.021  0.00  0.00    +0.000 N 
ATOM      5  H   UNL     1      -1.646  10.535  20.066  0.00  0.00    +0.000 HD
BRANCH   3   6
ATOM      6  O   UNL     1      -1.208  11.472  18.047  0.00  0.00    +0.000 OA
BRANCH   6   7
ATOM      7  C   UNL     1      -2.358  10.624  18.208  0.00  0.00    +0.000 C 
BRANCH   7   8
ATOM      8  C   UNL     1      -3.585  11.472  18.432  0.00  0.00    +0.000 A 
ATOM      9  C   UNL     1      -3.745  12.213  19.612  0.00  0.00    +0.000 A 
ATOM     10  C   UNL     1      -4.899  12.972  19.821  0.00  0.00    +0.000 A 
ATOM     11  C   UNL     1      -5.904  12.997  18.856  0.00  0.00    +0.000 A 
ATOM     12  C   UNL     1      -5.753  12.269  17.678  0.00  0.00    +0.000 A 
ATOM     13  C   UNL     1      -4.601  11.508  17.466  0.00  0.00    +0.000 A 
ENDBRANCH   7   8
ENDBRANCH   6   7
ENDBRANCH   3   6
ENDBRANCH   1   4
BRANCH   1  14
ATOM     14  C   UNL     1       1.049   9.278  21.398  0.00  0.00    +0.000 C 
ATOM     15  O   UNL     1       1.618   8.962  22.439  0.00  0.00    +0.000 OA
ATOM     16  N   UNL     1       1.224   8.566  20.228  0.00  0.00    +0.000 N 
ATOM     17  H   UNL     1       1.266   9.174  19.414  0.00  0.00    +0.000 HD
BRANCH  16  18
ATOM     18  C   UNL     1       2.168   7.421  20.157  0.00  0.00    +0.000 C 
ATOM     19  C   UNL     1       1.581   6.082  20.673  0.00  0.00    +0.000 C 
ATOM     20  C   UNL     1       1.772   4.924  19.722  0.00  0.00    +0.000 A 
ATOM     21  C   UNL     1       1.690   3.591  20.153  0.00  0.00    +0.000 A 
ATOM     22  C   UNL     1       1.831   2.547  19.236  0.00  0.00    +0.000 A 
ATOM     23  F   UNL     1       1.753   1.280  19.658  0.00  0.00    +0.000 F 
ATOM     24  C   UNL     1       2.040   2.800  17.884  0.00  0.00    +0.000 A 
ATOM     25  C   UNL     1       2.096   4.120  17.440  0.00  0.00    +0.000 A 
ATOM     26  C   UNL     1       1.971   5.163  18.358  0.00  0.00    +0.000 A 
ATOM     27  O   UNL     1       2.008   6.436  17.866  0.00  0.00    +0.000 OA
ATOM     28  C   UNL     1       2.745   7.296  18.726  0.00  0.00    +0.000 C 
BRANCH  28  29
ATOM     29  O   UNL     1       2.736   8.587  18.108  0.00  0.00    +0.000 OA
ATOM     30  H   UNL     1       3.564   8.983  18.438  0.00  0.00    +0.000 HD
ENDBRANCH  28  29
ENDBRANCH  16  18
ENDBRANCH   1  14
BRANCH   1  31
ATOM     31  C   UNL     1      -0.716  10.680  22.536  0.00  0.00    +0.000 C 
BRANCH  31  32
ATOM     32  C   UNL     1      -1.422  12.002  22.772  0.00  0.00    +0.000 A 
ATOM     33  C   UNL     1      -0.863  13.263  22.479  0.00  0.00    +0.000 A 
ATOM     34  C   UNL     1      -1.590  14.431  22.629  0.00  0.00    +0.000 A 
ATOM     35  C   UNL     1      -2.896  14.379  23.094  0.00  0.00    +0.000 A 
ATOM     36  C   UNL     1      -3.465  13.152  23.424  0.00  0.00    +0.000 A 
ATOM     37  C   UNL     1      -2.734  11.971  23.267  0.00  0.00    +0.000 A 
ENDBRANCH  31  32
ENDBRANCH   1  31
TORSDOF 9
ENDMDL
MODEL 8
REMARK VINA RESULT:      -8.2      4.164      7.016
REMARK  Name = 
REMARK  9 active torsions:
REMARK  status: ('A' for Active; 'I' for Inactive)
REMARK    1  A    between atoms: C_2  and  O_27
REMARK    2  A    between atoms: N_3  and  C_4
REMARK    3  A    between atoms: C_4  and  C_5
REMARK    4  A    between atoms: C_4  and  C_12
REMARK    5  A    between atoms: C_5  and  C_6
REMARK    6  A    between atoms: N_14  and  C_15
REMARK    7  A    between atoms: C_25  and  O_26
REMARK    8  A    between atoms: O_27  and  C_28
REMARK    9  A    between atoms: C_28  and  C_29
REMARK                            x       y       z     vdW  Elec       q    Type
REMARK                         _______ _______ _______ _____ _____    ______ ____
ROOT
ATOM      1  C   UNL     1       3.141   6.743  18.287  0.00  0.00    +0.000 C 
ENDROOT
BRANCH   1   4
ATOM      2  O   UNL     1       1.499   8.467  19.887  0.00  0.00    +0.000 OA
ATOM      3  C   UNL     1       1.934   8.851  18.813  0.00  0.00    +0.000 C 
ATOM      4  N   UNL     1       2.825   8.160  18.038  0.00  0.00    +0.000 N 
ATOM      5  H   UNL     1       2.960   8.546  17.115  0.00  0.00    +0.000 HD
BRANCH   3   6
ATOM      6  O   UNL     1       1.576   9.994  18.180  0.00  0.00    +0.000 OA
BRANCH   6   7
ATOM      7  C   UNL     1       0.823  10.943  18.954  0.00  0.00    +0.000 C 
BRANCH   7   8
ATOM      8  C   UNL     1       1.652  12.183  19.179  0.00  0.00    +0.000 A 
ATOM      9  C   UNL     1       2.428  12.730  18.147  0.00  0.00    +0.000 A 
ATOM     10  C   UNL     1       3.215  13.862  18.377  0.00  0.00    +0.000 A 
ATOM     11  C   UNL     1       3.236  14.456  19.637  0.00  0.00    +0.000 A 
ATOM     12  C   UNL     1       2.465  13.923  20.669  0.00  0.00    +0.000 A 
ATOM     13  C   UNL     1       1.677  12.792  20.443  0.00  0.00    +0.000 A 
ENDBRANCH   7   8
ENDBRANCH   6   7
ENDBRANCH   3   6
ENDBRANCH   1   4
BRANCH   1  14
ATOM     14  C   UNL     1       4.240   6.139  17.354  0.00  0.00    +0.000 C 
ATOM     15  O   UNL     1       4.420   6.507  16.196  0.00  0.00    +0.000 OA
ATOM     16  N   UNL     1       4.956   5.095  17.905  0.00  0.00    +0.000 N 
ATOM     17  H   UNL     1       4.379   4.514  18.508  0.00  0.00    +0.000 HD
BRANCH  16  18
ATOM     18  C   UNL     1       5.930   4.318  17.096  0.00  0.00    +0.000 C 
ATOM     19  C   UNL     1       5.355   3.775  15.762  0.00  0.00    +0.000 C 
ATOM     20  C   UNL     1       6.214   4.080  14.557  0.00  0.00    +0.000 A 
ATOM     21  C   UNL     1       6.097   3.354  13.362  0.00  0.00    +0.000 A 
ATOM     22  C   UNL     1       6.878   3.693  12.255  0.00  0.00    +0.000 A 
ATOM     23  F   UNL     1       6.760   2.992  11.121  0.00  0.00    +0.000 F 
ATOM     24  C   UNL     1       7.774   4.757  12.305  0.00  0.00    +0.000 A 
ATOM     25  C   UNL     1       7.878   5.502  13.478  0.00  0.00    +0.000 A 
ATOM     26  C   UNL     1       7.109   5.154  14.589  0.00  0.00    +0.000 A 
ATOM     27  O   UNL     1       7.232   5.934  15.703  0.00  0.00    +0.000 OA
ATOM     28  C   UNL     1       7.223   5.142  16.884  0.00  0.00    +0.000 C 
BRANCH  28  29
ATOM     29  O   UNL     1       7.377   6.051  17.979  0.00  0.00    +0.000 OA
ATOM     30  H   UNL     1       7.347   6.920  17.536  0.00  0.00    +0.000 HD
ENDBRANCH  28  29
ENDBRANCH  16  18
ENDBRANCH   1  14
BRANCH   1  31
ATOM     31  C   UNL     1       1.893   5.831  18.235  0.00  0.00    +0.000 C 
BRANCH  31  32
ATOM     32  C   UNL     1       1.814   4.693  19.236  0.00  0.00    +0.000 A 
ATOM     33  C   UNL     1       1.495   3.362  18.899  0.00  0.00    +0.000 A 
ATOM     34  C   UNL     1       1.527   2.348  19.841  0.00  0.00    +0.000 A 
ATOM     35  C   UNL     1       1.865   2.635  21.156  0.00  0.00    +0.000 A 
ATOM     36  C   UNL     1       2.152   3.946  21.527  0.00  0.00    +0.000 A 
ATOM     37  C   UNL     1       2.125   4.970  20.575  0.00  0.00    +0.000 A 
ENDBRANCH  31  32
ENDBRANCH   1  31
TORSDOF 9
ENDMDL
MODEL 9
REMARK VINA RESULT:      -8.2      1.946      2.616
REMARK  Name = 
REMARK  9 active torsions:
REMARK  status: ('A' for Active; 'I' for Inactive)
REMARK    1  A    between atoms: C_2  and  O_27
REMARK    2  A    between atoms: N_3  and  C_4
REMARK    3  A    between atoms: C_4  and  C_5
REMARK    4  A    between atoms: C_4  and  C_12
REMARK    5  A    between atoms: C_5  and  C_6
REMARK    6  A    between atoms: N_14  and  C_15
REMARK    7  A    between atoms: C_25  and  O_26
REMARK    8  A    between atoms: O_27  and  C_28
REMARK    9  A    between atoms: C_28  and  C_29
REMARK                            x       y       z     vdW  Elec       q    Type
REMARK                         _______ _______ _______ _____ _____    ______ ____
ROOT
ATOM      1  C   UNL     1       0.006  10.415  21.011  0.00  0.00    +0.000 C 
ENDROOT
BRANCH   1   4
ATOM      2  O   UNL     1      -1.976  11.706  22.634  0.00  0.00    +0.000 OA
ATOM      3  C   UNL     1      -0.829  12.122  22.613  0.00  0.00    +0.000 C 
ATOM      4  N   UNL     1       0.215  11.506  21.978  0.00  0.00    +0.000 N 
ATOM      5  H   UNL     1       1.057  12.060  21.928  0.00  0.00    +0.000 HD
BRANCH   3   6
ATOM      6  O   UNL     1      -0.400  13.282  23.165  0.00  0.00    +0.000 OA
BRANCH   6   7
ATOM      7  C   UNL     1      -0.867  14.494  22.548  0.00  0.00    +0.000 C 
BRANCH   7   8
ATOM      8  C   UNL     1      -0.119  14.726  21.259  0.00  0.00    +0.000 A 
ATOM      9  C   UNL     1       1.260  14.981  21.260  0.00  0.00    +0.000 A 
ATOM     10  C   UNL     1       1.937  15.223  20.062  0.00  0.00    +0.000 A 
ATOM     11  C   UNL     1       1.244  15.213  18.853  0.00  0.00    +0.000 A 
ATOM     12  C   UNL     1      -0.125  14.955  18.839  0.00  0.00    +0.000 A 
ATOM     13  C   UNL     1      -0.805  14.714  20.036  0.00  0.00    +0.000 A 
ENDBRANCH   7   8
ENDBRANCH   6   7
ENDBRANCH   3   6
ENDBRANCH   1   4
BRANCH   1  14
ATOM     14  C   UNL     1       0.925   9.167  21.215  0.00  0.00    +0.000 C 
ATOM     15  O   UNL     1       1.446   8.881  22.289  0.00  0.00    +0.000 OA
ATOM     16  N   UNL     1       1.175   8.439  20.069  0.00  0.00    +0.000 N 
ATOM     17  H   UNL     1       1.246   9.035  19.247  0.00  0.00    +0.000 HD
BRANCH  16  18
ATOM     18  C   UNL     1       2.147   7.316  20.067  0.00  0.00    +0.000 C 
ATOM     19  C   UNL     1       1.559   5.969  20.558  0.00  0.00    +0.000 C 
ATOM     20  C   UNL     1       1.834   4.807  19.632  0.00  0.00    +0.000 A 
ATOM     21  C   UNL     1       1.756   3.476  20.070  0.00  0.00    +0.000 A 
ATOM     22  C   UNL     1       1.975   2.428  19.174  0.00  0.00    +0.000 A 
ATOM     23  F   UNL     1       1.900   1.163  19.603  0.00  0.00    +0.000 F 
ATOM     24  C   UNL     1       2.261   2.674  17.835  0.00  0.00    +0.000 A 
ATOM     25  C   UNL     1       2.315   3.991  17.383  0.00  0.00    +0.000 A 
ATOM     26  C   UNL     1       2.111   5.039  18.281  0.00  0.00    +0.000 A 
ATOM     27  O   UNL     1       2.150   6.309  17.779  0.00  0.00    +0.000 OA
ATOM     28  C   UNL     1       2.813   7.192  18.674  0.00  0.00    +0.000 C 
BRANCH  28  29
ATOM     29  O   UNL     1       2.813   8.477  18.045  0.00  0.00    +0.000 OA
ATOM     30  H   UNL     1       3.025   9.074  18.787  0.00  0.00    +0.000 HD
ENDBRANCH  28  29
ENDBRANCH  16  18
ENDBRANCH   1  14
BRANCH   1  31
ATOM     31  C   UNL     1       0.128  10.882  19.541  0.00  0.00    +0.000 C 
BRANCH  31  32
ATOM     32  C   UNL     1      -1.122  10.829  18.682  0.00  0.00    +0.000 A 
ATOM     33  C   UNL     1      -1.278   9.991  17.560  0.00  0.00    +0.000 A 
ATOM     34  C   UNL     1      -2.475   9.919  16.870  0.00  0.00    +0.000 A 
ATOM     35  C   UNL     1      -3.553  10.696  17.268  0.00  0.00    +0.000 A 
ATOM     36  C   UNL     1      -3.419  11.560  18.353  0.00  0.00    +0.000 A 
ATOM     37  C   UNL     1      -2.212  11.629  19.054  0.00  0.00    +0.000 A 
ENDBRANCH  31  32
ENDBRANCH   1  31
TORSDOF 9
ENDMDL
