MODEL 1
REMARK VINA RESULT:      -7.9      0.000      0.000
REMARK  Name = 
REMARK  10 active torsions:
REMARK  status: ('A' for Active; 'I' for Inactive)
REMARK    1  A    between atoms: C_1  and  C_2
REMARK    2  A    between atoms: C_2  and  C_3
REMARK    3  A    between atoms: C_3  and  C_4
REMARK    4  A    between atoms: C_3  and  C_5
REMARK    5  A    between atoms: C_5  and  N_6
REMARK    6  A    between atoms: C_5  and  C_22
REMARK    7  A    between atoms: N_6  and  S_7
REMARK    8  A    between atoms: S_7  and  C_10
REMARK    9  A    between atoms: C_13  and  C_14
REMARK   10  A    between atoms: N_24  and  O_25
REMARK                            x       y       z     vdW  Elec       q    Type
REMARK                         _______ _______ _______ _____ _____    ______ ____
ROOT
ATOM      1  S   UNL     1       3.294   5.839  18.642  0.00  0.00    +0.000 S 
ATOM      2  O   UNL     1       2.511   5.059  17.712  0.00  0.00    +0.000 OA
ATOM      3  O   UNL     1       3.754   5.306  19.905  0.00  0.00    +0.000 OA
ENDROOT
BRANCH   1   4
ATOM      4  C   UNL     1       2.488   7.382  18.969  0.00  0.00    +0.000 A 
ATOM      5  C   UNL     1       1.959   7.618  20.231  0.00  0.00    +0.000 A 
ATOM      6  C   UNL     1       1.050   8.661  20.397  0.00  0.00    +0.000 A 
ATOM      7  C   UNL     1       0.688   9.516  19.335  0.00  0.00    +0.000 A 
ATOM      8  C   UNL     1       1.352   9.332  18.108  0.00  0.00    +0.000 A 
ATOM      9  C   UNL     1       2.245   8.269  17.917  0.00  0.00    +0.000 A 
BRANCH   7  10
ATOM     10  C   UNL     1      -0.395  10.516  19.513  0.00  0.00    +0.000 A 
ATOM     11  C   UNL     1      -1.383  10.698  18.526  0.00  0.00    +0.000 A 
ATOM     12  C   UNL     1      -2.374  11.675  18.645  0.00  0.00    +0.000 A 
ATOM     13  C   UNL     1      -2.417  12.488  19.770  0.00  0.00    +0.000 A 
ATOM     14  C   UNL     1      -1.460  12.331  20.768  0.00  0.00    +0.000 A 
ATOM     15  C   UNL     1      -0.456  11.362  20.637  0.00  0.00    +0.000 A 
ENDBRANCH   7  10
ENDBRANCH   1   4
BRANCH   1  16
ATOM     16  N   UNL     1       4.683   6.381  17.845  0.00  0.00    +0.000 NA
ATOM     17  H   UNL     1       4.990   7.238  18.317  0.00  0.00    +0.000 HD
BRANCH  16  18
ATOM     18  C   UNL     1       5.802   5.427  17.526  0.00  0.00    +0.000 C 
BRANCH  18  19
ATOM     19  C   UNL     1       6.971   5.815  18.454  0.00  0.00    +0.000 C 
ATOM     20  O   UNL     1       7.821   6.659  18.165  0.00  0.00    +0.000 OA
ATOM     21  N   UNL     1       6.988   5.166  19.664  0.00  0.00    +0.000 N 
ATOM     22  H   UNL     1       6.342   4.423  19.913  0.00  0.00    +0.000 HD
BRANCH  21  23
ATOM     23  O   UNL     1       8.046   5.461  20.546  0.00  0.00    +0.000 OA
ATOM     24  H   UNL     1       8.204   4.596  20.985  0.00  0.00    +0.000 HD
ENDBRANCH  21  23
ENDBRANCH  18  19
BRANCH  18  25
ATOM     25  C   UNL     1       6.242   5.395  16.036  0.00  0.00    +0.000 C 
ATOM     26  C   UNL     1       5.322   6.282  15.179  0.00  0.00    +0.000 C 
BRANCH  25  28
ATOM     27  C   UNL     1       6.088   3.944  13.922  0.00  0.00    +0.000 C 
ATOM     28  C   UNL     1       6.362   3.979  15.428  0.00  0.00    +0.000 C 
ENDBRANCH  25  28
ENDBRANCH  18  25
ENDBRANCH  16  18
ENDBRANCH   1  16
TORSDOF 8
ENDMDL
MODEL 2
REMARK VINA RESULT:      -7.9      4.184      7.346
REMARK  Name = 
REMARK  10 active torsions:
REMARK  status: ('A' for Active; 'I' for Inactive)
REMARK    1  A    between atoms: C_1  and  C_2
REMARK    2  A    between atoms: C_2  and  C_3
REMARK    3  A    between atoms: C_3  and  C_4
REMARK    4  A    between atoms: C_3  and  C_5
REMARK    5  A    between atoms: C_5  and  N_6
REMARK    6  A    between atoms: C_5  and  C_22
REMARK    7  A    between atoms: N_6  and  S_7
REMARK    8  A    between atoms: S_7  and  C_10
REMARK    9  A    between atoms: C_13  and  C_14
REMARK   10  A    between atoms: N_24  and  O_25
REMARK                            x       y       z     vdW  Elec       q    Type
REMARK                         _______ _______ _______ _____ _____    ______ ____
ROOT
ATOM      1  S   UNL     1       7.037   5.277  16.848  0.00  0.00    +0.000 S 
ATOM      2  O   UNL     1       7.533   4.167  17.627  0.00  0.00    +0.000 OA
ATOM      3  O   UNL     1       7.340   5.433  15.442  0.00  0.00    +0.000 OA
ENDROOT
BRANCH   1   4
ATOM      4  C   UNL     1       7.424   6.806  17.656  0.00  0.00    +0.000 A 
ATOM      5  C   UNL     1       7.086   8.003  17.040  0.00  0.00    +0.000 A 
ATOM      6  C   UNL     1       7.673   9.184  17.494  0.00  0.00    +0.000 A 
ATOM      7  C   UNL     1       8.560   9.207  18.590  0.00  0.00    +0.000 A 
ATOM      8  C   UNL     1       8.765   7.994  19.275  0.00  0.00    +0.000 A 
ATOM      9  C   UNL     1       8.208   6.795  18.812  0.00  0.00    +0.000 A 
BRANCH   7  10
ATOM     10  C   UNL     1       9.280  10.454  18.947  0.00  0.00    +0.000 A 
ATOM     11  C   UNL     1       9.646  11.388  17.959  0.00  0.00    +0.000 A 
ATOM     12  C   UNL     1      10.378  12.538  18.266  0.00  0.00    +0.000 A 
ATOM     13  C   UNL     1      10.747  12.798  19.578  0.00  0.00    +0.000 A 
ATOM     14  C   UNL     1      10.397  11.900  20.581  0.00  0.00    +0.000 A 
ATOM     15  C   UNL     1       9.679  10.737  20.269  0.00  0.00    +0.000 A 
ENDBRANCH   7  10
ENDBRANCH   1   4
BRANCH   1  16
ATOM     16  N   UNL     1       5.351   5.292  16.954  0.00  0.00    +0.000 NA
ATOM     17  H   UNL     1       4.994   4.671  16.219  0.00  0.00    +0.000 HD
BRANCH  16  18
ATOM     18  C   UNL     1       4.667   5.120  18.283  0.00  0.00    +0.000 C 
BRANCH  18  19
ATOM     19  C   UNL     1       4.485   3.600  18.476  0.00  0.00    +0.000 C 
ATOM     20  O   UNL     1       3.758   2.904  17.766  0.00  0.00    +0.000 OA
ATOM     21  N   UNL     1       5.228   3.055  19.495  0.00  0.00    +0.000 N 
ATOM     22  H   UNL     1       5.790   3.603  20.138  0.00  0.00    +0.000 HD
BRANCH  21  23
ATOM     23  O   UNL     1       5.086   1.674  19.735  0.00  0.00    +0.000 OA
ATOM     24  H   UNL     1       5.976   1.326  19.505  0.00  0.00    +0.000 HD
ENDBRANCH  21  23
ENDBRANCH  18  19
BRANCH  18  25
ATOM     25  C   UNL     1       3.322   5.880  18.441  0.00  0.00    +0.000 C 
ATOM     26  C   UNL     1       3.387   7.250  17.744  0.00  0.00    +0.000 C 
BRANCH  25  28
ATOM     27  C   UNL     1       1.719   5.041  20.265  0.00  0.00    +0.000 C 
ATOM     28  C   UNL     1       2.830   6.029  19.898  0.00  0.00    +0.000 C 
ENDBRANCH  25  28
ENDBRANCH  18  25
ENDBRANCH  16  18
ENDBRANCH   1  16
TORSDOF 8
ENDMDL
MODEL 3
REMARK VINA RESULT:      -7.8      2.935      4.181
REMARK  Name = 
REMARK  10 active torsions:
REMARK  status: ('A' for Active; 'I' for Inactive)
REMARK    1  A    between atoms: C_1  and  C_2
REMARK    2  A    between atoms: C_2  and  C_3
REMARK    3  A    between atoms: C_3  and  C_4
REMARK    4  A    between atoms: C_3  and  C_5
REMARK    5  A    between atoms: C_5  and  N_6
REMARK    6  A    between atoms: C_5  and  C_22
REMARK    7  A    between atoms: N_6  and  S_7
REMARK    8  A    between atoms: S_7  and  C_10
REMARK    9  A    between atoms: C_13  and  C_14
REMARK   10  A    between atoms: N_24  and  O_25
REMARK                            x       y       z     vdW  Elec       q    Type
REMARK                         _______ _______ _______ _____ _____    ______ ____
ROOT
ATOM      1  S   UNL     1       5.750   4.862  18.638  0.00  0.00    +0.000 S 
ATOM      2  O   UNL     1       6.537   5.145  19.815  0.00  0.00    +0.000 OA
ATOM      3  O   UNL     1       6.296   4.953  17.301  0.00  0.00    +0.000 OA
ENDROOT
BRANCH   1   4
ATOM      4  C   UNL     1       4.248   5.800  18.672  0.00  0.00    +0.000 A 
ATOM      5  C   UNL     1       3.956   6.654  17.617  0.00  0.00    +0.000 A 
ATOM      6  C   UNL     1       2.970   7.625  17.788  0.00  0.00    +0.000 A 
ATOM      7  C   UNL     1       2.226   7.735  18.981  0.00  0.00    +0.000 A 
ATOM      8  C   UNL     1       2.453   6.761  19.972  0.00  0.00    +0.000 A 
ATOM      9  C   UNL     1       3.462   5.800  19.827  0.00  0.00    +0.000 A 
BRANCH   7  10
ATOM     10  C   UNL     1       1.294   8.873  19.182  0.00  0.00    +0.000 A 
ATOM     11  C   UNL     1       0.815   9.620  18.089  0.00  0.00    +0.000 A 
ATOM     12  C   UNL     1      -0.013  10.732  18.261  0.00  0.00    +0.000 A 
ATOM     13  C   UNL     1      -0.404  11.117  19.536  0.00  0.00    +0.000 A 
ATOM     14  C   UNL     1       0.046  10.398  20.639  0.00  0.00    +0.000 A 
ATOM     15  C   UNL     1       0.891   9.294  20.465  0.00  0.00    +0.000 A 
ENDBRANCH   7  10
ENDBRANCH   1   4
BRANCH   1  16
ATOM     16  N   UNL     1       5.136   3.293  18.771  0.00  0.00    +0.000 NA
ATOM     17  H   UNL     1       5.903   2.691  19.091  0.00  0.00    +0.000 HD
BRANCH  16  18
ATOM     18  C   UNL     1       3.830   3.041  19.474  0.00  0.00    +0.000 C 
BRANCH  18  19
ATOM     19  C   UNL     1       4.177   2.236  20.744  0.00  0.00    +0.000 C 
ATOM     20  O   UNL     1       3.448   2.180  21.736  0.00  0.00    +0.000 OA
ATOM     21  N   UNL     1       5.363   1.546  20.684  0.00  0.00    +0.000 N 
ATOM     22  H   UNL     1       6.017   1.616  19.911  0.00  0.00    +0.000 HD
BRANCH  21  23
ATOM     23  O   UNL     1       5.745   0.810  21.824  0.00  0.00    +0.000 OA
ATOM     24  H   UNL     1       6.117  -0.010  21.432  0.00  0.00    +0.000 HD
ENDBRANCH  21  23
ENDBRANCH  18  19
BRANCH  18  25
ATOM     25  C   UNL     1       2.745   2.326  18.624  0.00  0.00    +0.000 C 
ATOM     26  C   UNL     1       3.287   1.987  17.224  0.00  0.00    +0.000 C 
BRANCH  25  28
ATOM     27  C   UNL     1       0.688   3.229  19.870  0.00  0.00    +0.000 C 
ATOM     28  C   UNL     1       1.400   3.081  18.523  0.00  0.00    +0.000 C 
ENDBRANCH  25  28
ENDBRANCH  18  25
ENDBRANCH  16  18
ENDBRANCH   1  16
TORSDOF 8
ENDMDL
MODEL 4
REMARK VINA RESULT:      -7.7      2.933      4.115
REMARK  Name = 
REMARK  10 active torsions:
REMARK  status: ('A' for Active; 'I' for Inactive)
REMARK    1  A    between atoms: C_1  and  C_2
REMARK    2  A    between atoms: C_2  and  C_3
REMARK    3  A    between atoms: C_3  and  C_4
REMARK    4  A    between atoms: C_3  and  C_5
REMARK    5  A    between atoms: C_5  and  N_6
REMARK    6  A    between atoms: C_5  and  C_22
REMARK    7  A    between atoms: N_6  and  S_7
REMARK    8  A    between atoms: S_7  and  C_10
REMARK    9  A    between atoms: C_13  and  C_14
REMARK   10  A    between atoms: N_24  and  O_25
REMARK                            x       y       z     vdW  Elec       q    Type
REMARK                         _______ _______ _______ _____ _____    ______ ____
ROOT
ATOM      1  S   UNL     1       4.718   4.947  17.694  0.00  0.00    +0.000 S 
ATOM      2  O   UNL     1       5.755   4.610  18.640  0.00  0.00    +0.000 OA
ATOM      3  O   UNL     1       4.982   5.113  16.281  0.00  0.00    +0.000 OA
ENDROOT
BRANCH   1   4
ATOM      4  C   UNL     1       3.834   6.379  18.248  0.00  0.00    +0.000 A 
ATOM      5  C   UNL     1       3.152   6.330  19.457  0.00  0.00    +0.000 A 
ATOM      6  C   UNL     1       2.200   7.310  19.734  0.00  0.00    +0.000 A 
ATOM      7  C   UNL     1       1.942   8.376  18.848  0.00  0.00    +0.000 A 
ATOM      8  C   UNL     1       2.753   8.468  17.701  0.00  0.00    +0.000 A 
ATOM      9  C   UNL     1       3.692   7.475  17.394  0.00  0.00    +0.000 A 
BRANCH   7  10
ATOM     10  C   UNL     1       0.818   9.311  19.105  0.00  0.00    +0.000 A 
ATOM     11  C   UNL     1       0.030   9.805  18.048  0.00  0.00    +0.000 A 
ATOM     12  C   UNL     1      -0.993  10.732  18.262  0.00  0.00    +0.000 A 
ATOM     13  C   UNL     1      -1.272  11.177  19.547  0.00  0.00    +0.000 A 
ATOM     14  C   UNL     1      -0.517  10.704  20.616  0.00  0.00    +0.000 A 
ATOM     15  C   UNL     1       0.521   9.788  20.397  0.00  0.00    +0.000 A 
ENDBRANCH   7  10
ENDBRANCH   1   4
BRANCH   1  16
ATOM     16  N   UNL     1       3.503   3.777  17.795  0.00  0.00    +0.000 NA
ATOM     17  H   UNL     1       3.672   3.096  17.047  0.00  0.00    +0.000 HD
BRANCH  16  18
ATOM     18  C   UNL     1       3.149   3.154  19.117  0.00  0.00    +0.000 C 
BRANCH  18  19
ATOM     19  C   UNL     1       3.944   1.835  19.194  0.00  0.00    +0.000 C 
ATOM     20  O   UNL     1       3.755   0.880  18.438  0.00  0.00    +0.000 OA
ATOM     21  N   UNL     1       4.918   1.803  20.161  0.00  0.00    +0.000 N 
ATOM     22  H   UNL     1       5.063   2.544  20.840  0.00  0.00    +0.000 HD
BRANCH  21  23
ATOM     23  O   UNL     1       5.663   0.614  20.295  0.00  0.00    +0.000 OA
ATOM     24  H   UNL     1       4.996  -0.079  20.089  0.00  0.00    +0.000 HD
ENDBRANCH  21  23
ENDBRANCH  18  19
BRANCH  18  25
ATOM     25  C   UNL     1       1.632   2.922  19.358  0.00  0.00    +0.000 C 
ATOM     26  C   UNL     1       0.807   3.447  18.170  0.00  0.00    +0.000 C 
BRANCH  25  28
ATOM     27  C   UNL     1       2.073   3.321  21.857  0.00  0.00    +0.000 C 
ATOM     28  C   UNL     1       1.095   3.488  20.692  0.00  0.00    +0.000 C 
ENDBRANCH  25  28
ENDBRANCH  18  25
ENDBRANCH  16  18
ENDBRANCH   1  16
TORSDOF 8
ENDMDL
MODEL 5
REMARK VINA RESULT:      -7.7      2.211      2.569
REMARK  Name = 
REMARK  10 active torsions:
REMARK  status: ('A' for Active; 'I' for Inactive)
REMARK    1  A    between atoms: C_1  and  C_2
REMARK    2  A    between atoms: C_2  and  C_3
REMARK    3  A    between atoms: C_3  and  C_4
REMARK    4  A    between atoms: C_3  and  C_5
REMARK    5  A    between atoms: C_5  and  N_6
REMARK    6  A    between atoms: C_5  and  C_22
REMARK    7  A    between atoms: N_6  and  S_7
REMARK    8  A    between atoms: S_7  and  C_10
REMARK    9  A    between atoms: C_13  and  C_14
REMARK   10  A    between atoms: N_24  and  O_25
REMARK                            x       y       z     vdW  Elec       q    Type
REMARK                         _______ _______ _______ _____ _____    ______ ____
ROOT
ATOM      1  S   UNL     1       2.315   5.235  19.837  0.00  0.00    +0.000 S 
ATOM      2  O   UNL     1       1.404   4.540  18.958  0.00  0.00    +0.000 OA
ATOM      3  O   UNL     1       2.387   4.958  21.255  0.00  0.00    +0.000 OA
ENDROOT
BRANCH   1   4
ATOM      4  C   UNL     1       2.130   6.987  19.640  0.00  0.00    +0.000 A 
ATOM      5  C   UNL     1       1.540   7.726  20.657  0.00  0.00    +0.000 A 
ATOM      6  C   UNL     1       1.094   9.017  20.380  0.00  0.00    +0.000 A 
ATOM      7  C   UNL     1       1.266   9.614  19.113  0.00  0.00    +0.000 A 
ATOM      8  C   UNL     1       1.994   8.885  18.154  0.00  0.00    +0.000 A 
ATOM      9  C   UNL     1       2.421   7.576  18.407  0.00  0.00    +0.000 A 
BRANCH   7  10
ATOM     10  C   UNL     1       0.644  10.928  18.812  0.00  0.00    +0.000 A 
ATOM     11  C   UNL     1       1.416  12.104  18.774  0.00  0.00    +0.000 A 
ATOM     12  C   UNL     1       0.840  13.358  18.553  0.00  0.00    +0.000 A 
ATOM     13  C   UNL     1      -0.527  13.468  18.342  0.00  0.00    +0.000 A 
ATOM     14  C   UNL     1      -1.320  12.325  18.366  0.00  0.00    +0.000 A 
ATOM     15  C   UNL     1      -0.743  11.070  18.607  0.00  0.00    +0.000 A 
ENDBRANCH   7  10
ENDBRANCH   1   4
BRANCH   1  16
ATOM     16  N   UNL     1       3.886   5.025  19.251  0.00  0.00    +0.000 NA
ATOM     17  H   UNL     1       4.474   4.752  20.047  0.00  0.00    +0.000 HD
BRANCH  16  18
ATOM     18  C   UNL     1       4.136   4.220  18.005  0.00  0.00    +0.000 C 
BRANCH  18  19
ATOM     19  C   UNL     1       4.247   2.751  18.461  0.00  0.00    +0.000 C 
ATOM     20  O   UNL     1       3.659   1.819  17.908  0.00  0.00    +0.000 OA
ATOM     21  N   UNL     1       5.086   2.538  19.526  0.00  0.00    +0.000 N 
ATOM     22  H   UNL     1       5.539   3.284  20.044  0.00  0.00    +0.000 HD
BRANCH  21  23
ATOM     23  O   UNL     1       5.211   1.218  20.002  0.00  0.00    +0.000 OA
ATOM     24  H   UNL     1       5.838   0.818  19.360  0.00  0.00    +0.000 HD
ENDBRANCH  21  23
ENDBRANCH  18  19
BRANCH  18  25
ATOM     25  C   UNL     1       5.372   4.654  17.171  0.00  0.00    +0.000 C 
ATOM     26  C   UNL     1       5.274   6.142  16.788  0.00  0.00    +0.000 C 
BRANCH  25  28
ATOM     27  C   UNL     1       6.616   4.439  14.934  0.00  0.00    +0.000 C 
ATOM     28  C   UNL     1       5.649   3.784  15.924  0.00  0.00    +0.000 C 
ENDBRANCH  25  28
ENDBRANCH  18  25
ENDBRANCH  16  18
ENDBRANCH   1  16
TORSDOF 8
ENDMDL
MODEL 6
REMARK VINA RESULT:      -7.6      3.975      7.343
REMARK  Name = 
REMARK  10 active torsions:
REMARK  status: ('A' for Active; 'I' for Inactive)
REMARK    1  A    between atoms: C_1  and  C_2
REMARK    2  A    between atoms: C_2  and  C_3
REMARK    3  A    between atoms: C_3  and  C_4
REMARK    4  A    between atoms: C_3  and  C_5
REMARK    5  A    between atoms: C_5  and  N_6
REMARK    6  A    between atoms: C_5  and  C_22
REMARK    7  A    between atoms: N_6  and  S_7
REMARK    8  A    between atoms: S_7  and  C_10
REMARK    9  A    between atoms: C_13  and  C_14
REMARK   10  A    between atoms: N_24  and  O_25
REMARK                            x       y       z     vdW  Elec       q    Type
REMARK                         _______ _______ _______ _____ _____    ______ ____
ROOT
ATOM      1  S   UNL     1       6.618   5.465  16.537  0.00  0.00    +0.000 S 
ATOM      2  O   UNL     1       7.345   4.294  16.969  0.00  0.00    +0.000 OA
ATOM      3  O   UNL     1       6.527   5.850  15.146  0.00  0.00    +0.000 OA
ENDROOT
BRANCH   1   4
ATOM      4  C   UNL     1       7.151   6.883  17.456  0.00  0.00    +0.000 A 
ATOM      5  C   UNL     1       6.819   8.151  17.000  0.00  0.00    +0.000 A 
ATOM      6  C   UNL     1       7.502   9.253  17.514  0.00  0.00    +0.000 A 
ATOM      7  C   UNL     1       8.484   9.123  18.519  0.00  0.00    +0.000 A 
ATOM      8  C   UNL     1       8.689   7.838  19.054  0.00  0.00    +0.000 A 
ATOM      9  C   UNL     1       8.034   6.718  18.526  0.00  0.00    +0.000 A 
BRANCH   7  10
ATOM     10  C   UNL     1       9.295  10.296  18.931  0.00  0.00    +0.000 A 
ATOM     11  C   UNL     1       9.977  11.077  17.979  0.00  0.00    +0.000 A 
ATOM     12  C   UNL     1      10.794  12.148  18.351  0.00  0.00    +0.000 A 
ATOM     13  C   UNL     1      10.935  12.481  19.691  0.00  0.00    +0.000 A 
ATOM     14  C   UNL     1      10.270  11.735  20.659  0.00  0.00    +0.000 A 
ATOM     15  C   UNL     1       9.466  10.650  20.284  0.00  0.00    +0.000 A 
ENDBRANCH   7  10
ENDBRANCH   1   4
BRANCH   1  16
ATOM     16  N   UNL     1       5.022   5.331  17.076  0.00  0.00    +0.000 NA
ATOM     17  H   UNL     1       4.536   4.695  16.435  0.00  0.00    +0.000 HD
BRANCH  16  18
ATOM     18  C   UNL     1       4.725   5.077  18.529  0.00  0.00    +0.000 C 
BRANCH  18  19
ATOM     19  C   UNL     1       4.448   3.564  18.650  0.00  0.00    +0.000 C 
ATOM     20  O   UNL     1       3.595   2.972  17.986  0.00  0.00    +0.000 OA
ATOM     21  N   UNL     1       5.251   2.899  19.543  0.00  0.00    +0.000 N 
ATOM     22  H   UNL     1       5.921   3.361  20.150  0.00  0.00    +0.000 HD
BRANCH  21  23
ATOM     23  O   UNL     1       5.029   1.518  19.714  0.00  0.00    +0.000 OA
ATOM     24  H   UNL     1       5.200   1.393  20.674  0.00  0.00    +0.000 HD
ENDBRANCH  21  23
ENDBRANCH  18  19
BRANCH  18  25
ATOM     25  C   UNL     1       3.566   5.920  19.127  0.00  0.00    +0.000 C 
ATOM     26  C   UNL     1       2.817   5.122  20.210  0.00  0.00    +0.000 C 
BRANCH  25  28
ATOM     27  C   UNL     1       2.774   7.989  17.828  0.00  0.00    +0.000 C 
ATOM     28  C   UNL     1       2.578   6.493  18.086  0.00  0.00    +0.000 C 
ENDBRANCH  25  28
ENDBRANCH  18  25
ENDBRANCH  16  18
ENDBRANCH   1  16
TORSDOF 8
ENDMDL
MODEL 7
REMARK VINA RESULT:      -7.6      2.022      2.429
REMARK  Name = 
REMARK  10 active torsions:
REMARK  status: ('A' for Active; 'I' for Inactive)
REMARK    1  A    between atoms: C_1  and  C_2
REMARK    2  A    between atoms: C_2  and  C_3
REMARK    3  A    between atoms: C_3  and  C_4
REMARK    4  A    between atoms: C_3  and  C_5
REMARK    5  A    between atoms: C_5  and  N_6
REMARK    6  A    between atoms: C_5  and  C_22
REMARK    7  A    between atoms: N_6  and  S_7
REMARK    8  A    between atoms: S_7  and  C_10
REMARK    9  A    between atoms: C_13  and  C_14
REMARK   10  A    between atoms: N_24  and  O_25
REMARK                            x       y       z     vdW  Elec       q    Type
REMARK                         _______ _______ _______ _____ _____    ______ ____
ROOT
ATOM      1  S   UNL     1       2.551   5.254  19.159  0.00  0.00    +0.000 S 
ATOM      2  O   UNL     1       1.500   4.631  18.389  0.00  0.00    +0.000 OA
ATOM      3  O   UNL     1       2.871   4.842  20.508  0.00  0.00    +0.000 OA
ENDROOT
BRANCH   1   4
ATOM      4  C   UNL     1       2.333   7.013  19.171  0.00  0.00    +0.000 A 
ATOM      5  C   UNL     1       1.693   7.610  20.249  0.00  0.00    +0.000 A 
ATOM      6  C   UNL     1       1.227   8.918  20.116  0.00  0.00    +0.000 A 
ATOM      7  C   UNL     1       1.428   9.669  18.939  0.00  0.00    +0.000 A 
ATOM      8  C   UNL     1       2.204   9.077  17.924  0.00  0.00    +0.000 A 
ATOM      9  C   UNL     1       2.652   7.754  18.031  0.00  0.00    +0.000 A 
BRANCH   7  10
ATOM     10  C   UNL     1       0.787  10.998  18.778  0.00  0.00    +0.000 A 
ATOM     11  C   UNL     1      -0.606  11.115  18.612  0.00  0.00    +0.000 A 
ATOM     12  C   UNL     1      -1.222  12.351  18.398  0.00  0.00    +0.000 A 
ATOM     13  C   UNL     1      -0.461  13.511  18.365  0.00  0.00    +0.000 A 
ATOM     14  C   UNL     1       0.918  13.433  18.533  0.00  0.00    +0.000 A 
ATOM     15  C   UNL     1       1.536  12.190  18.729  0.00  0.00    +0.000 A 
ENDBRANCH   7  10
ENDBRANCH   1   4
BRANCH   1  16
ATOM     16  N   UNL     1       3.995   5.129  18.291  0.00  0.00    +0.000 NA
ATOM     17  H   UNL     1       4.763   5.269  18.956  0.00  0.00    +0.000 HD
BRANCH  16  18
ATOM     18  C   UNL     1       4.216   3.989  17.335  0.00  0.00    +0.000 C 
BRANCH  18  19
ATOM     19  C   UNL     1       4.253   2.711  18.197  0.00  0.00    +0.000 C 
ATOM     20  O   UNL     1       3.664   1.670  17.900  0.00  0.00    +0.000 OA
ATOM     21  N   UNL     1       5.029   2.798  19.327  0.00  0.00    +0.000 N 
ATOM     22  H   UNL     1       5.479   3.654  19.636  0.00  0.00    +0.000 HD
BRANCH  21  23
ATOM     23  O   UNL     1       5.084   1.668  20.167  0.00  0.00    +0.000 OA
ATOM     24  H   UNL     1       6.003   1.349  20.033  0.00  0.00    +0.000 HD
ENDBRANCH  21  23
ENDBRANCH  18  19
BRANCH  18  25
ATOM     25  C   UNL     1       5.477   4.110  16.437  0.00  0.00    +0.000 C 
ATOM     26  C   UNL     1       6.446   5.166  16.999  0.00  0.00    +0.000 C 
BRANCH  25  28
ATOM     27  C   UNL     1       6.344   3.978  14.023  0.00  0.00    +0.000 C 
ATOM     28  C   UNL     1       5.186   4.373  14.943  0.00  0.00    +0.000 C 
ENDBRANCH  25  28
ENDBRANCH  18  25
ENDBRANCH  16  18
ENDBRANCH   1  16
TORSDOF 8
ENDMDL
MODEL 8
REMARK VINA RESULT:      -7.6      1.336      1.870
REMARK  Name = 
REMARK  10 active torsions:
REMARK  status: ('A' for Active; 'I' for Inactive)
REMARK    1  A    between atoms: C_1  and  C_2
REMARK    2  A    between atoms: C_2  and  C_3
REMARK    3  A    between atoms: C_3  and  C_4
REMARK    4  A    between atoms: C_3  and  C_5
REMARK    5  A    between atoms: C_5  and  N_6
REMARK    6  A    between atoms: C_5  and  C_22
REMARK    7  A    between atoms: N_6  and  S_7
REMARK    8  A    between atoms: S_7  and  C_10
REMARK    9  A    between atoms: C_13  and  C_14
REMARK   10  A    between atoms: N_24  and  O_25
REMARK                            x       y       z     vdW  Elec       q    Type
REMARK                         _______ _______ _______ _____ _____    ______ ____
ROOT
ATOM      1  S   UNL     1       3.294   5.146  18.880  0.00  0.00    +0.000 S 
ATOM      2  O   UNL     1       2.781   4.271  17.852  0.00  0.00    +0.000 OA
ATOM      3  O   UNL     1       3.458   4.718  20.251  0.00  0.00    +0.000 OA
ENDROOT
BRANCH   1   4
ATOM      4  C   UNL     1       2.379   6.664  18.895  0.00  0.00    +0.000 A 
ATOM      5  C   UNL     1       2.296   7.418  17.732  0.00  0.00    +0.000 A 
ATOM      6  C   UNL     1       1.876   8.745  17.818  0.00  0.00    +0.000 A 
ATOM      7  C   UNL     1       1.485   9.330  19.041  0.00  0.00    +0.000 A 
ATOM      8  C   UNL     1       1.448   8.491  20.170  0.00  0.00    +0.000 A 
ATOM      9  C   UNL     1       1.897   7.165  20.106  0.00  0.00    +0.000 A 
BRANCH   7  10
ATOM     10  C   UNL     1       1.191  10.783  19.118  0.00  0.00    +0.000 A 
ATOM     11  C   UNL     1       0.094  11.262  19.857  0.00  0.00    +0.000 A 
ATOM     12  C   UNL     1      -0.236  12.619  19.893  0.00  0.00    +0.000 A 
ATOM     13  C   UNL     1       0.539  13.541  19.203  0.00  0.00    +0.000 A 
ATOM     14  C   UNL     1       1.636  13.103  18.467  0.00  0.00    +0.000 A 
ATOM     15  C   UNL     1       1.953  11.739  18.418  0.00  0.00    +0.000 A 
ENDBRANCH   7  10
ENDBRANCH   1   4
BRANCH   1  16
ATOM     16  N   UNL     1       4.812   5.708  18.394  0.00  0.00    +0.000 NA
ATOM     17  H   UNL     1       5.247   6.154  19.208  0.00  0.00    +0.000 HD
BRANCH  16  18
ATOM     18  C   UNL     1       5.743   4.818  17.616  0.00  0.00    +0.000 C 
BRANCH  18  19
ATOM     19  C   UNL     1       7.080   4.824  18.384  0.00  0.00    +0.000 C 
ATOM     20  O   UNL     1       8.139   4.403  17.914  0.00  0.00    +0.000 OA
ATOM     21  N   UNL     1       7.021   5.369  19.643  0.00  0.00    +0.000 N 
ATOM     22  H   UNL     1       6.159   5.670  20.087  0.00  0.00    +0.000 HD
BRANCH  21  23
ATOM     23  O   UNL     1       8.208   5.381  20.403  0.00  0.00    +0.000 OA
ATOM     24  H   UNL     1       7.901   5.064  21.281  0.00  0.00    +0.000 HD
ENDBRANCH  21  23
ENDBRANCH  18  19
BRANCH  18  25
ATOM     25  C   UNL     1       5.939   5.204  16.124  0.00  0.00    +0.000 C 
ATOM     26  C   UNL     1       5.192   6.509  15.798  0.00  0.00    +0.000 C 
BRANCH  25  28
ATOM     27  C   UNL     1       6.409   4.140  13.834  0.00  0.00    +0.000 C 
ATOM     28  C   UNL     1       5.571   4.094  15.115  0.00  0.00    +0.000 C 
ENDBRANCH  25  28
ENDBRANCH  18  25
ENDBRANCH  16  18
ENDBRANCH   1  16
TORSDOF 8
ENDMDL
MODEL 9
REMARK VINA RESULT:      -7.6      1.681      2.443
REMARK  Name = 
REMARK  10 active torsions:
REMARK  status: ('A' for Active; 'I' for Inactive)
REMARK    1  A    between atoms: C_1  and  C_2
REMARK    2  A    between atoms: C_2  and  C_3
REMARK    3  A    between atoms: C_3  and  C_4
REMARK    4  A    between atoms: C_3  and  C_5
REMARK    5  A    between atoms: C_5  and  N_6
REMARK    6  A    between atoms: C_5  and  C_22
REMARK    7  A    between atoms: N_6  and  S_7
REMARK    8  A    between atoms: S_7  and  C_10
REMARK    9  A    between atoms: C_13  and  C_14
REMARK   10  A    between atoms: N_24  and  O_25
REMARK                            x       y       z     vdW  Elec       q    Type
REMARK                         _______ _______ _______ _____ _____    ______ ____
ROOT
ATOM      1  S   UNL     1       3.226   5.407  19.562  0.00  0.00    +0.000 S 
ATOM      2  O   UNL     1       2.533   4.524  20.469  0.00  0.00    +0.000 OA
ATOM      3  O   UNL     1       4.661   5.587  19.600  0.00  0.00    +0.000 OA
ENDROOT
BRANCH   1   4
ATOM      4  C   UNL     1       2.481   7.015  19.592  0.00  0.00    +0.000 A 
ATOM      5  C   UNL     1       1.831   7.440  20.743  0.00  0.00    +0.000 A 
ATOM      6  C   UNL     1       0.972   8.535  20.667  0.00  0.00    +0.000 A 
ATOM      7  C   UNL     1       0.781   9.255  19.469  0.00  0.00    +0.000 A 
ATOM      8  C   UNL     1       1.565   8.880  18.362  0.00  0.00    +0.000 A 
ATOM      9  C   UNL     1       2.409   7.763  18.415  0.00  0.00    +0.000 A 
BRANCH   7  10
ATOM     10  C   UNL     1      -0.254  10.317  19.388  0.00  0.00    +0.000 A 
ATOM     11  C   UNL     1      -0.386  11.279  20.408  0.00  0.00    +0.000 A 
ATOM     12  C   UNL     1      -1.391  12.249  20.381  0.00  0.00    +0.000 A 
ATOM     13  C   UNL     1      -2.284  12.296  19.319  0.00  0.00    +0.000 A 
ATOM     14  C   UNL     1      -2.178  11.365  18.291  0.00  0.00    +0.000 A 
ATOM     15  C   UNL     1      -1.180  10.382  18.329  0.00  0.00    +0.000 A 
ENDBRANCH   7  10
ENDBRANCH   1   4
BRANCH   1  16
ATOM     16  N   UNL     1       2.870   4.933  17.979  0.00  0.00    +0.000 NA
ATOM     17  H   UNL     1       2.688   5.786  17.439  0.00  0.00    +0.000 HD
BRANCH  16  18
ATOM     18  C   UNL     1       3.740   3.935  17.266  0.00  0.00    +0.000 C 
BRANCH  18  19
ATOM     19  C   UNL     1       3.921   2.753  18.242  0.00  0.00    +0.000 C 
ATOM     20  O   UNL     1       3.179   1.769  18.266  0.00  0.00    +0.000 OA
ATOM     21  N   UNL     1       5.004   2.856  19.079  0.00  0.00    +0.000 N 
ATOM     22  H   UNL     1       5.601   3.676  19.130  0.00  0.00    +0.000 HD
BRANCH  21  23
ATOM     23  O   UNL     1       5.208   1.817  20.009  0.00  0.00    +0.000 OA
ATOM     24  H   UNL     1       5.476   1.067  19.433  0.00  0.00    +0.000 HD
ENDBRANCH  21  23
ENDBRANCH  18  19
BRANCH  18  25
ATOM     25  C   UNL     1       5.107   4.479  16.770  0.00  0.00    +0.000 C 
ATOM     26  C   UNL     1       4.979   5.948  16.329  0.00  0.00    +0.000 C 
BRANCH  25  28
ATOM     27  C   UNL     1       6.709   4.445  14.762  0.00  0.00    +0.000 C 
ATOM     28  C   UNL     1       5.779   3.632  15.666  0.00  0.00    +0.000 C 
ENDBRANCH  25  28
ENDBRANCH  18  25
ENDBRANCH  16  18
ENDBRANCH   1  16
TORSDOF 8
ENDMDL
