MODEL 1
REMARK VINA RESULT:      -7.3      0.000      0.000
REMARK  Name = 
REMARK  10 active torsions:
REMARK  status: ('A' for Active; 'I' for Inactive)
REMARK    1  A    between atoms: C_1  and  C_2
REMARK    2  A    between atoms: C_2  and  N_3
REMARK    3  A    between atoms: N_3  and  C_4
REMARK    4  A    between atoms: N_3  and  C_19
REMARK    5  A    between atoms: C_4  and  C_5
REMARK    6  A    between atoms: C_5  and  C_6
REMARK    7  A    between atoms: C_6  and  N_7
REMARK    8  A    between atoms: C_8  and  C_10
REMARK    9  A    between atoms: C_11  and  C_12
REMARK   10  A    between atoms: C_17  and  C_18
REMARK                            x       y       z     vdW  Elec       q    Type
REMARK                         _______ _______ _______ _____ _____    ______ ____
ROOT
ATOM      1  N   UNL     1       5.129   3.136  19.087  0.00  0.00    +0.000 N 
ATOM      2  C   UNL     1       5.475   4.453  18.899  0.00  0.00    +0.000 C 
ATOM      3  O   UNL     1       5.403   5.284  19.800  0.00  0.00    +0.000 OA
ATOM      4  H   UNL     1       5.362   2.461  18.376  0.00  0.00    +0.000 HD
ENDROOT
BRANCH   2   5
ATOM      5  C   UNL     1       6.004   4.825  17.519  0.00  0.00    +0.000 A 
ATOM      6  C   UNL     1       5.416   4.225  16.316  0.00  0.00    +0.000 A 
ATOM      7  C   UNL     1       4.152   3.401  16.356  0.00  0.00    +0.000 C 
ATOM      8  C   UNL     1       5.984   4.428  15.115  0.00  0.00    +0.000 A 
ATOM      9  C   UNL     1       7.166   5.280  14.941  0.00  0.00    +0.000 A 
ATOM     10  O   UNL     1       7.681   5.428  13.835  0.00  0.00    +0.000 OA
ATOM     11  O   UNL     1       7.609   5.906  16.058  0.00  0.00    +0.000 OA
ATOM     12  C   UNL     1       7.066   5.648  17.353  0.00  0.00    +0.000 A 
ATOM     13  C   UNL     1       7.874   6.347  18.409  0.00  0.00    +0.000 C 
ENDBRANCH   2   5
BRANCH   1  14
ATOM     14  C   UNL     1       4.748   2.592  20.380  0.00  0.00    +0.000 C 
BRANCH  14  15
ATOM     15  C   UNL     1       3.249   2.329  20.380  0.00  0.00    +0.000 C 
BRANCH  15  16
ATOM     16  C   UNL     1       2.431   3.553  20.788  0.00  0.00    +0.000 C 
BRANCH  16  17
ATOM     17  N   UNL     1       1.872   4.217  19.600  0.00  0.00    +0.000 N 
BRANCH  17  18
ATOM     18  C   UNL     1       1.910   5.618  19.477  0.00  0.00    +0.000 A 
ATOM     19  C   UNL     1       2.301   6.251  18.279  0.00  0.00    +0.000 A 
ATOM     20  C   UNL     1       2.384   7.645  18.151  0.00  0.00    +0.000 A 
ATOM     21  C   UNL     1       2.058   8.462  19.222  0.00  0.00    +0.000 A 
ATOM     22  C   UNL     1       1.642   7.881  20.411  0.00  0.00    +0.000 A 
ATOM     23  C   UNL     1       1.568   6.485  20.530  0.00  0.00    +0.000 A 
ENDBRANCH  17  18
BRANCH  17  25
ATOM     24  C   UNL     1       0.433   2.292  18.725  0.00  0.00    +0.000 C 
ATOM     25  C   UNL     1       1.399   3.430  18.445  0.00  0.00    +0.000 C 
ENDBRANCH  17  25
ENDBRANCH  16  17
ENDBRANCH  15  16
ENDBRANCH  14  15
ENDBRANCH   1  14
TORSDOF 7
ENDMDL
MODEL 2
REMARK VINA RESULT:      -7.2      3.320      5.515
REMARK  Name = 
REMARK  10 active torsions:
REMARK  status: ('A' for Active; 'I' for Inactive)
REMARK    1  A    between atoms: C_1  and  C_2
REMARK    2  A    between atoms: C_2  and  N_3
REMARK    3  A    between atoms: N_3  and  C_4
REMARK    4  A    between atoms: N_3  and  C_19
REMARK    5  A    between atoms: C_4  and  C_5
REMARK    6  A    between atoms: C_5  and  C_6
REMARK    7  A    between atoms: C_6  and  N_7
REMARK    8  A    between atoms: C_8  and  C_10
REMARK    9  A    between atoms: C_11  and  C_12
REMARK   10  A    between atoms: C_17  and  C_18
REMARK                            x       y       z     vdW  Elec       q    Type
REMARK                         _______ _______ _______ _____ _____    ______ ____
ROOT
ATOM      1  N   UNL     1       3.157   7.359  18.111  0.00  0.00    +0.000 N 
ATOM      2  C   UNL     1       3.983   6.470  17.466  0.00  0.00    +0.000 C 
ATOM      3  O   UNL     1       4.522   6.735  16.394  0.00  0.00    +0.000 OA
ATOM      4  H   UNL     1       2.876   7.167  19.060  0.00  0.00    +0.000 HD
ENDROOT
BRANCH   2   5
ATOM      5  C   UNL     1       4.241   5.145  18.175  0.00  0.00    +0.000 A 
ATOM      6  C   UNL     1       3.147   4.185  18.368  0.00  0.00    +0.000 A 
ATOM      7  C   UNL     1       1.800   4.348  17.707  0.00  0.00    +0.000 C 
ATOM      8  C   UNL     1       3.335   3.094  19.129  0.00  0.00    +0.000 A 
ATOM      9  C   UNL     1       4.627   2.787  19.754  0.00  0.00    +0.000 A 
ATOM     10  O   UNL     1       4.764   1.795  20.467  0.00  0.00    +0.000 OA
ATOM     11  O   UNL     1       5.640   3.636  19.458  0.00  0.00    +0.000 OA
ATOM     12  C   UNL     1       5.445   4.838  18.712  0.00  0.00    +0.000 A 
ATOM     13  C   UNL     1       6.704   5.658  18.701  0.00  0.00    +0.000 C 
ENDBRANCH   2   5
BRANCH   1  14
ATOM     14  C   UNL     1       2.929   8.715  17.642  0.00  0.00    +0.000 C 
BRANCH  14  15
ATOM     15  C   UNL     1       1.461   9.063  17.841  0.00  0.00    +0.000 C 
BRANCH  15  16
ATOM     16  C   UNL     1       1.100   9.300  19.306  0.00  0.00    +0.000 C 
BRANCH  16  17
ATOM     17  N   UNL     1      -0.127  10.105  19.411  0.00  0.00    +0.000 N 
BRANCH  17  18
ATOM     18  C   UNL     1      -0.594  10.543  20.663  0.00  0.00    +0.000 A 
ATOM     19  C   UNL     1      -1.302  11.753  20.814  0.00  0.00    +0.000 A 
ATOM     20  C   UNL     1      -1.739  12.225  22.060  0.00  0.00    +0.000 A 
ATOM     21  C   UNL     1      -1.497  11.486  23.207  0.00  0.00    +0.000 A 
ATOM     22  C   UNL     1      -0.827  10.276  23.100  0.00  0.00    +0.000 A 
ATOM     23  C   UNL     1      -0.389   9.816  21.849  0.00  0.00    +0.000 A 
ENDBRANCH  17  18
BRANCH  17  25
ATOM     24  C   UNL     1      -2.108   9.917  17.803  0.00  0.00    +0.000 C 
ATOM     25  C   UNL     1      -0.812  10.601  18.201  0.00  0.00    +0.000 C 
ENDBRANCH  17  25
ENDBRANCH  16  17
ENDBRANCH  15  16
ENDBRANCH  14  15
ENDBRANCH   1  14
TORSDOF 7
ENDMDL
MODEL 3
REMARK VINA RESULT:      -7.1      4.664      8.683
REMARK  Name = 
REMARK  10 active torsions:
REMARK  status: ('A' for Active; 'I' for Inactive)
REMARK    1  A    between atoms: C_1  and  C_2
REMARK    2  A    between atoms: C_2  and  N_3
REMARK    3  A    between atoms: N_3  and  C_4
REMARK    4  A    between atoms: N_3  and  C_19
REMARK    5  A    between atoms: C_4  and  C_5
REMARK    6  A    between atoms: C_5  and  C_6
REMARK    7  A    between atoms: C_6  and  N_7
REMARK    8  A    between atoms: C_8  and  C_10
REMARK    9  A    between atoms: C_11  and  C_12
REMARK   10  A    between atoms: C_17  and  C_18
REMARK                            x       y       z     vdW  Elec       q    Type
REMARK                         _______ _______ _______ _____ _____    ______ ____
ROOT
ATOM      1  N   UNL     1       0.676   9.963  19.096  0.00  0.00    +0.000 N 
ATOM      2  C   UNL     1       0.774  11.052  19.928  0.00  0.00    +0.000 C 
ATOM      3  O   UNL     1       1.693  11.862  19.842  0.00  0.00    +0.000 OA
ATOM      4  H   UNL     1      -0.176   9.424  19.090  0.00  0.00    +0.000 HD
ENDROOT
BRANCH   2   5
ATOM      5  C   UNL     1      -0.351  11.237  20.939  0.00  0.00    +0.000 A 
ATOM      6  C   UNL     1      -1.393  12.245  20.708  0.00  0.00    +0.000 A 
ATOM      7  C   UNL     1      -1.533  12.981  19.398  0.00  0.00    +0.000 C 
ATOM      8  C   UNL     1      -2.291  12.518  21.670  0.00  0.00    +0.000 A 
ATOM      9  C   UNL     1      -2.307  11.807  22.953  0.00  0.00    +0.000 A 
ATOM     10  O   UNL     1      -3.122  12.095  23.826  0.00  0.00    +0.000 OA
ATOM     11  O   UNL     1      -1.401  10.807  23.082  0.00  0.00    +0.000 OA
ATOM     12  C   UNL     1      -0.394  10.548  22.104  0.00  0.00    +0.000 A 
ATOM     13  C   UNL     1       0.567   9.508  22.603  0.00  0.00    +0.000 C 
ENDBRANCH   2   5
BRANCH   1  14
ATOM     14  C   UNL     1       1.585   9.726  17.986  0.00  0.00    +0.000 C 
BRANCH  14  15
ATOM     15  C   UNL     1       1.838   8.230  17.869  0.00  0.00    +0.000 C 
BRANCH  15  16
ATOM     16  C   UNL     1       2.532   7.647  19.098  0.00  0.00    +0.000 C 
BRANCH  16  17
ATOM     17  N   UNL     1       3.064   6.308  18.801  0.00  0.00    +0.000 N 
BRANCH  17  18
ATOM     18  C   UNL     1       2.299   5.158  19.065  0.00  0.00    +0.000 A 
ATOM     19  C   UNL     1       1.903   4.807  20.372  0.00  0.00    +0.000 A 
ATOM     20  C   UNL     1       1.175   3.643  20.658  0.00  0.00    +0.000 A 
ATOM     21  C   UNL     1       0.799   2.790  19.633  0.00  0.00    +0.000 A 
ATOM     22  C   UNL     1       1.144   3.110  18.328  0.00  0.00    +0.000 A 
ATOM     23  C   UNL     1       1.878   4.275  18.054  0.00  0.00    +0.000 A 
ENDBRANCH  17  18
BRANCH  17  25
ATOM     24  C   UNL     1       5.467   5.431  18.815  0.00  0.00    +0.000 C 
ATOM     25  C   UNL     1       4.342   6.142  18.083  0.00  0.00    +0.000 C 
ENDBRANCH  17  25
ENDBRANCH  16  17
ENDBRANCH  15  16
ENDBRANCH  14  15
ENDBRANCH   1  14
TORSDOF 7
ENDMDL
MODEL 4
REMARK VINA RESULT:      -7.1      3.576      6.104
REMARK  Name = 
REMARK  10 active torsions:
REMARK  status: ('A' for Active; 'I' for Inactive)
REMARK    1  A    between atoms: C_1  and  C_2
REMARK    2  A    between atoms: C_2  and  N_3
REMARK    3  A    between atoms: N_3  and  C_4
REMARK    4  A    between atoms: N_3  and  C_19
REMARK    5  A    between atoms: C_4  and  C_5
REMARK    6  A    between atoms: C_5  and  C_6
REMARK    7  A    between atoms: C_6  and  N_7
REMARK    8  A    between atoms: C_8  and  C_10
REMARK    9  A    between atoms: C_11  and  C_12
REMARK   10  A    between atoms: C_17  and  C_18
REMARK                            x       y       z     vdW  Elec       q    Type
REMARK                         _______ _______ _______ _____ _____    ______ ____
ROOT
ATOM      1  N   UNL     1       2.824   6.716  18.698  0.00  0.00    +0.000 N 
ATOM      2  C   UNL     1       2.424   5.453  18.336  0.00  0.00    +0.000 C 
ATOM      3  O   UNL     1       1.580   5.257  17.464  0.00  0.00    +0.000 OA
ATOM      4  H   UNL     1       3.632   6.824  19.291  0.00  0.00    +0.000 HD
ENDROOT
BRANCH   2   5
ATOM      5  C   UNL     1       3.119   4.293  19.038  0.00  0.00    +0.000 A 
ATOM      6  C   UNL     1       2.469   3.617  20.168  0.00  0.00    +0.000 A 
ATOM      7  C   UNL     1       1.032   3.875  20.549  0.00  0.00    +0.000 C 
ATOM      8  C   UNL     1       3.146   2.704  20.886  0.00  0.00    +0.000 A 
ATOM      9  C   UNL     1       4.520   2.309  20.557  0.00  0.00    +0.000 A 
ATOM     10  O   UNL     1       5.125   1.491  21.247  0.00  0.00    +0.000 OA
ATOM     11  O   UNL     1       5.043   2.872  19.441  0.00  0.00    +0.000 OA
ATOM     12  C   UNL     1       4.370   3.895  18.706  0.00  0.00    +0.000 A 
ATOM     13  C   UNL     1       5.266   4.447  17.634  0.00  0.00    +0.000 C 
ENDBRANCH   2   5
BRANCH   1  14
ATOM     14  C   UNL     1       2.366   7.919  18.022  0.00  0.00    +0.000 C 
BRANCH  14  15
ATOM     15  C   UNL     1       1.566   8.761  19.006  0.00  0.00    +0.000 C 
BRANCH  15  16
ATOM     16  C   UNL     1       1.321  10.184  18.508  0.00  0.00    +0.000 C 
BRANCH  16  17
ATOM     17  N   UNL     1       0.157  10.773  19.188  0.00  0.00    +0.000 N 
BRANCH  17  18
ATOM     18  C   UNL     1      -1.110  10.767  18.578  0.00  0.00    +0.000 A 
ATOM     19  C   UNL     1      -2.153  11.609  19.017  0.00  0.00    +0.000 A 
ATOM     20  C   UNL     1      -3.434  11.587  18.447  0.00  0.00    +0.000 A 
ATOM     21  C   UNL     1      -3.714  10.727  17.397  0.00  0.00    +0.000 A 
ATOM     22  C   UNL     1      -2.708   9.900  16.917  0.00  0.00    +0.000 A 
ATOM     23  C   UNL     1      -1.431   9.927  17.498  0.00  0.00    +0.000 A 
ENDBRANCH  17  18
BRANCH  17  25
ATOM     24  C   UNL     1      -0.106  10.260  21.681  0.00  0.00    +0.000 C 
ATOM     25  C   UNL     1       0.255  11.246  20.583  0.00  0.00    +0.000 C 
ENDBRANCH  17  25
ENDBRANCH  16  17
ENDBRANCH  15  16
ENDBRANCH  14  15
ENDBRANCH   1  14
TORSDOF 7
ENDMDL
MODEL 5
REMARK VINA RESULT:      -7.0      3.144      5.772
REMARK  Name = 
REMARK  10 active torsions:
REMARK  status: ('A' for Active; 'I' for Inactive)
REMARK    1  A    between atoms: C_1  and  C_2
REMARK    2  A    between atoms: C_2  and  N_3
REMARK    3  A    between atoms: N_3  and  C_4
REMARK    4  A    between atoms: N_3  and  C_19
REMARK    5  A    between atoms: C_4  and  C_5
REMARK    6  A    between atoms: C_5  and  C_6
REMARK    7  A    between atoms: C_6  and  N_7
REMARK    8  A    between atoms: C_8  and  C_10
REMARK    9  A    between atoms: C_11  and  C_12
REMARK   10  A    between atoms: C_17  and  C_18
REMARK                            x       y       z     vdW  Elec       q    Type
REMARK                         _______ _______ _______ _____ _____    ______ ____
ROOT
ATOM      1  N   UNL     1       2.565   6.248  18.347  0.00  0.00    +0.000 N 
ATOM      2  C   UNL     1       2.202   4.935  18.165  0.00  0.00    +0.000 C 
ATOM      3  O   UNL     1       1.316   4.603  17.381  0.00  0.00    +0.000 OA
ATOM      4  H   UNL     1       3.403   6.458  18.866  0.00  0.00    +0.000 HD
ENDROOT
BRANCH   2   5
ATOM      5  C   UNL     1       2.993   3.897  18.951  0.00  0.00    +0.000 A 
ATOM      6  C   UNL     1       2.454   3.351  20.203  0.00  0.00    +0.000 A 
ATOM      7  C   UNL     1       1.039   3.610  20.658  0.00  0.00    +0.000 C 
ATOM      8  C   UNL     1       3.217   2.559  20.975  0.00  0.00    +0.000 A 
ATOM      9  C   UNL     1       4.579   2.169  20.595  0.00  0.00    +0.000 A 
ATOM     10  O   UNL     1       5.265   1.465  21.333  0.00  0.00    +0.000 OA
ATOM     11  O   UNL     1       4.997   2.600  19.380  0.00  0.00    +0.000 OA
ATOM     12  C   UNL     1       4.232   3.499  18.577  0.00  0.00    +0.000 A 
ATOM     13  C   UNL     1       5.026   3.938  17.379  0.00  0.00    +0.000 C 
ENDBRANCH   2   5
BRANCH   1  14
ATOM     14  C   UNL     1       2.011   7.341  17.565  0.00  0.00    +0.000 C 
BRANCH  14  15
ATOM     15  C   UNL     1       2.236   8.645  18.316  0.00  0.00    +0.000 C 
BRANCH  15  16
ATOM     16  C   UNL     1       1.470   8.710  19.636  0.00  0.00    +0.000 C 
BRANCH  16  17
ATOM     17  N   UNL     1       0.435   9.755  19.578  0.00  0.00    +0.000 N 
BRANCH  17  18
ATOM     18  C   UNL     1      -0.071  10.329  20.758  0.00  0.00    +0.000 A 
ATOM     19  C   UNL     1      -0.348   9.557  21.905  0.00  0.00    +0.000 A 
ATOM     20  C   UNL     1      -0.890  10.107  23.076  0.00  0.00    +0.000 A 
ATOM     21  C   UNL     1      -1.160  11.464  23.146  0.00  0.00    +0.000 A 
ATOM     22  C   UNL     1      -0.878  12.265  22.049  0.00  0.00    +0.000 A 
ATOM     23  C   UNL     1      -0.341  11.704  20.881  0.00  0.00    +0.000 A 
ENDBRANCH  17  18
BRANCH  17  25
ATOM     24  C   UNL     1      -1.431  10.123  17.868  0.00  0.00    +0.000 C 
ATOM     25  C   UNL     1       0.013  10.333  18.288  0.00  0.00    +0.000 C 
ENDBRANCH  17  25
ENDBRANCH  16  17
ENDBRANCH  15  16
ENDBRANCH  14  15
ENDBRANCH   1  14
TORSDOF 7
ENDMDL
MODEL 6
REMARK VINA RESULT:      -7.0      2.984      7.211
REMARK  Name = 
REMARK  10 active torsions:
REMARK  status: ('A' for Active; 'I' for Inactive)
REMARK    1  A    between atoms: C_1  and  C_2
REMARK    2  A    between atoms: C_2  and  N_3
REMARK    3  A    between atoms: N_3  and  C_4
REMARK    4  A    between atoms: N_3  and  C_19
REMARK    5  A    between atoms: C_4  and  C_5
REMARK    6  A    between atoms: C_5  and  C_6
REMARK    7  A    between atoms: C_6  and  N_7
REMARK    8  A    between atoms: C_8  and  C_10
REMARK    9  A    between atoms: C_11  and  C_12
REMARK   10  A    between atoms: C_17  and  C_18
REMARK                            x       y       z     vdW  Elec       q    Type
REMARK                         _______ _______ _______ _____ _____    ______ ____
ROOT
ATOM      1  N   UNL     1       5.935   4.101  17.684  0.00  0.00    +0.000 N 
ATOM      2  C   UNL     1       5.261   4.517  18.806  0.00  0.00    +0.000 C 
ATOM      3  O   UNL     1       5.761   5.287  19.623  0.00  0.00    +0.000 OA
ATOM      4  H   UNL     1       5.430   3.610  16.962  0.00  0.00    +0.000 HD
ENDROOT
BRANCH   2   5
ATOM      5  C   UNL     1       3.831   4.014  18.966  0.00  0.00    +0.000 A 
ATOM      6  C   UNL     1       3.574   2.696  19.558  0.00  0.00    +0.000 A 
ATOM      7  C   UNL     1       4.656   1.880  20.222  0.00  0.00    +0.000 C 
ATOM      8  C   UNL     1       2.331   2.186  19.553  0.00  0.00    +0.000 A 
ATOM      9  C   UNL     1       1.183   2.923  19.011  0.00  0.00    +0.000 A 
ATOM     10  O   UNL     1       0.061   2.423  18.995  0.00  0.00    +0.000 OA
ATOM     11  O   UNL     1       1.443   4.181  18.579  0.00  0.00    +0.000 OA
ATOM     12  C   UNL     1       2.766   4.714  18.509  0.00  0.00    +0.000 A 
ATOM     13  C   UNL     1       2.757   6.051  17.825  0.00  0.00    +0.000 C 
ENDBRANCH   2   5
BRANCH   1  14
ATOM     14  C   UNL     1       7.247   4.605  17.311  0.00  0.00    +0.000 C 
BRANCH  14  15
ATOM     15  C   UNL     1       7.130   5.343  15.985  0.00  0.00    +0.000 C 
BRANCH  15  16
ATOM     16  C   UNL     1       6.141   4.686  15.025  0.00  0.00    +0.000 C 
BRANCH  16  17
ATOM     17  N   UNL     1       6.767   4.470  13.711  0.00  0.00    +0.000 N 
BRANCH  17  18
ATOM     18  C   UNL     1       6.147   3.658  12.745  0.00  0.00    +0.000 A 
ATOM     19  C   UNL     1       4.824   3.889  12.313  0.00  0.00    +0.000 A 
ATOM     20  C   UNL     1       4.176   3.065  11.382  0.00  0.00    +0.000 A 
ATOM     21  C   UNL     1       4.841   1.980  10.832  0.00  0.00    +0.000 A 
ATOM     22  C   UNL     1       6.153   1.732  11.209  0.00  0.00    +0.000 A 
ATOM     23  C   UNL     1       6.790   2.560  12.146  0.00  0.00    +0.000 A 
ENDBRANCH  17  18
BRANCH  17  25
ATOM     24  C   UNL     1       7.935   5.965  11.995  0.00  0.00    +0.000 C 
ATOM     25  C   UNL     1       7.977   5.217  13.316  0.00  0.00    +0.000 C 
ENDBRANCH  17  25
ENDBRANCH  16  17
ENDBRANCH  15  16
ENDBRANCH  14  15
ENDBRANCH   1  14
TORSDOF 7
ENDMDL
MODEL 7
REMARK VINA RESULT:      -7.0      4.348      8.075
REMARK  Name = 
REMARK  10 active torsions:
REMARK  status: ('A' for Active; 'I' for Inactive)
REMARK    1  A    between atoms: C_1  and  C_2
REMARK    2  A    between atoms: C_2  and  N_3
REMARK    3  A    between atoms: N_3  and  C_4
REMARK    4  A    between atoms: N_3  and  C_19
REMARK    5  A    between atoms: C_4  and  C_5
REMARK    6  A    between atoms: C_5  and  C_6
REMARK    7  A    between atoms: C_6  and  N_7
REMARK    8  A    between atoms: C_8  and  C_10
REMARK    9  A    between atoms: C_11  and  C_12
REMARK   10  A    between atoms: C_17  and  C_18
REMARK                            x       y       z     vdW  Elec       q    Type
REMARK                         _______ _______ _______ _____ _____    ______ ____
ROOT
ATOM      1  N   UNL     1       1.562   9.569  18.884  0.00  0.00    +0.000 N 
ATOM      2  C   UNL     1       0.304  10.111  18.994  0.00  0.00    +0.000 C 
ATOM      3  O   UNL     1      -0.569   9.916  18.152  0.00  0.00    +0.000 OA
ATOM      4  H   UNL     1       2.187   9.614  19.675  0.00  0.00    +0.000 HD
ENDROOT
BRANCH   2   5
ATOM      5  C   UNL     1       0.026  10.932  20.247  0.00  0.00    +0.000 A 
ATOM      6  C   UNL     1      -0.341  10.264  21.501  0.00  0.00    +0.000 A 
ATOM      7  C   UNL     1      -0.255   8.768  21.679  0.00  0.00    +0.000 C 
ATOM      8  C   UNL     1      -0.741  10.990  22.559  0.00  0.00    +0.000 A 
ATOM      9  C   UNL     1      -0.786  12.456  22.532  0.00  0.00    +0.000 A 
ATOM     10  O   UNL     1      -1.180  13.095  23.505  0.00  0.00    +0.000 OA
ATOM     11  O   UNL     1      -0.330  13.038  21.396  0.00  0.00    +0.000 OA
ATOM     12  C   UNL     1       0.030  12.286  20.237  0.00  0.00    +0.000 A 
ATOM     13  C   UNL     1       0.320  13.206  19.085  0.00  0.00    +0.000 C 
ENDBRANCH   2   5
BRANCH   1  14
ATOM     14  C   UNL     1       1.940   8.644  17.828  0.00  0.00    +0.000 C 
BRANCH  14  15
ATOM     15  C   UNL     1       2.544   7.398  18.460  0.00  0.00    +0.000 C 
BRANCH  15  16
ATOM     16  C   UNL     1       3.641   6.770  17.602  0.00  0.00    +0.000 C 
BRANCH  16  17
ATOM     17  N   UNL     1       3.936   5.404  18.064  0.00  0.00    +0.000 N 
BRANCH  17  18
ATOM     18  C   UNL     1       2.954   4.640  18.719  0.00  0.00    +0.000 A 
ATOM     19  C   UNL     1       1.967   3.925  18.009  0.00  0.00    +0.000 A 
ATOM     20  C   UNL     1       0.956   3.191  18.646  0.00  0.00    +0.000 A 
ATOM     21  C   UNL     1       0.907   3.132  20.030  0.00  0.00    +0.000 A 
ATOM     22  C   UNL     1       1.874   3.799  20.768  0.00  0.00    +0.000 A 
ATOM     23  C   UNL     1       2.878   4.535  20.120  0.00  0.00    +0.000 A 
ENDBRANCH  17  18
BRANCH  17  25
ATOM     24  C   UNL     1       5.295   4.049  16.373  0.00  0.00    +0.000 C 
ATOM     25  C   UNL     1       5.212   4.747  17.719  0.00  0.00    +0.000 C 
ENDBRANCH  17  25
ENDBRANCH  16  17
ENDBRANCH  15  16
ENDBRANCH  14  15
ENDBRANCH   1  14
TORSDOF 7
ENDMDL
MODEL 8
REMARK VINA RESULT:      -7.0      4.289      8.201
REMARK  Name = 
REMARK  10 active torsions:
REMARK  status: ('A' for Active; 'I' for Inactive)
REMARK    1  A    between atoms: C_1  and  C_2
REMARK    2  A    between atoms: C_2  and  N_3
REMARK    3  A    between atoms: N_3  and  C_4
REMARK    4  A    between atoms: N_3  and  C_19
REMARK    5  A    between atoms: C_4  and  C_5
REMARK    6  A    between atoms: C_5  and  C_6
REMARK    7  A    between atoms: C_6  and  N_7
REMARK    8  A    between atoms: C_8  and  C_10
REMARK    9  A    between atoms: C_11  and  C_12
REMARK   10  A    between atoms: C_17  and  C_18
REMARK                            x       y       z     vdW  Elec       q    Type
REMARK                         _______ _______ _______ _____ _____    ______ ____
ROOT
ATOM      1  N   UNL     1       1.636   9.635  18.865  0.00  0.00    +0.000 N 
ATOM      2  C   UNL     1       0.331  10.064  18.829  0.00  0.00    +0.000 C 
ATOM      3  O   UNL     1      -0.417   9.809  17.888  0.00  0.00    +0.000 OA
ATOM      4  H   UNL     1       2.157   9.720  19.724  0.00  0.00    +0.000 HD
ENDROOT
BRANCH   2   5
ATOM      5  C   UNL     1      -0.164  10.835  20.047  0.00  0.00    +0.000 A 
ATOM      6  C   UNL     1      -0.323  12.293  19.984  0.00  0.00    +0.000 A 
ATOM      7  C   UNL     1      -0.219  13.064  18.691  0.00  0.00    +0.000 C 
ATOM      8  C   UNL     1      -0.604  12.988  21.098  0.00  0.00    +0.000 A 
ATOM      9  C   UNL     1      -0.811  12.338  22.398  0.00  0.00    +0.000 A 
ATOM     10  O   UNL     1      -1.042  13.001  23.407  0.00  0.00    +0.000 OA
ATOM     11  O   UNL     1      -0.769  10.984  22.391  0.00  0.00    +0.000 OA
ATOM     12  C   UNL     1      -0.401  10.230  21.235  0.00  0.00    +0.000 A 
ATOM     13  C   UNL     1      -0.267   8.774  21.580  0.00  0.00    +0.000 C 
ENDBRANCH   2   5
BRANCH   1  14
ATOM     14  C   UNL     1       2.216   8.766  17.854  0.00  0.00    +0.000 C 
BRANCH  14  15
ATOM     15  C   UNL     1       2.634   7.459  18.511  0.00  0.00    +0.000 C 
BRANCH  15  16
ATOM     16  C   UNL     1       3.579   6.633  17.641  0.00  0.00    +0.000 C 
BRANCH  16  17
ATOM     17  N   UNL     1       3.907   5.360  18.303  0.00  0.00    +0.000 N 
BRANCH  17  18
ATOM     18  C   UNL     1       2.895   4.564  18.869  0.00  0.00    +0.000 A 
ATOM     19  C   UNL     1       2.724   4.454  20.265  0.00  0.00    +0.000 A 
ATOM     20  C   UNL     1       1.747   3.634  20.846  0.00  0.00    +0.000 A 
ATOM     21  C   UNL     1       0.887   2.900  20.044  0.00  0.00    +0.000 A 
ATOM     22  C   UNL     1       1.004   2.999  18.665  0.00  0.00    +0.000 A 
ATOM     23  C   UNL     1       1.989   3.819  18.093  0.00  0.00    +0.000 A 
ENDBRANCH  17  18
BRANCH  17  25
ATOM     24  C   UNL     1       6.286   5.376  19.245  0.00  0.00    +0.000 C 
ATOM     25  C   UNL     1       5.277   4.814  18.257  0.00  0.00    +0.000 C 
ENDBRANCH  17  25
ENDBRANCH  16  17
ENDBRANCH  15  16
ENDBRANCH  14  15
ENDBRANCH   1  14
TORSDOF 7
ENDMDL
MODEL 9
REMARK VINA RESULT:      -7.0      4.415      8.231
REMARK  Name = 
REMARK  10 active torsions:
REMARK  status: ('A' for Active; 'I' for Inactive)
REMARK    1  A    between atoms: C_1  and  C_2
REMARK    2  A    between atoms: C_2  and  N_3
REMARK    3  A    between atoms: N_3  and  C_4
REMARK    4  A    between atoms: N_3  and  C_19
REMARK    5  A    between atoms: C_4  and  C_5
REMARK    6  A    between atoms: C_5  and  C_6
REMARK    7  A    between atoms: C_6  and  N_7
REMARK    8  A    between atoms: C_8  and  C_10
REMARK    9  A    between atoms: C_11  and  C_12
REMARK   10  A    between atoms: C_17  and  C_18
REMARK                            x       y       z     vdW  Elec       q    Type
REMARK                         _______ _______ _______ _____ _____    ______ ____
ROOT
ATOM      1  N   UNL     1       1.486   9.981  18.639  0.00  0.00    +0.000 N 
ATOM      2  C   UNL     1       0.143  10.245  18.759  0.00  0.00    +0.000 C 
ATOM      3  O   UNL     1      -0.674   9.886  17.914  0.00  0.00    +0.000 OA
ATOM      4  H   UNL     1       2.090  10.143  19.430  0.00  0.00    +0.000 HD
ENDROOT
BRANCH   2   5
ATOM      5  C   UNL     1      -0.297  10.967  20.027  0.00  0.00    +0.000 A 
ATOM      6  C   UNL     1      -0.541  12.415  20.005  0.00  0.00    +0.000 A 
ATOM      7  C   UNL     1      -0.582  13.211  18.724  0.00  0.00    +0.000 C 
ATOM      8  C   UNL     1      -0.772  13.076  21.152  0.00  0.00    +0.000 A 
ATOM      9  C   UNL     1      -0.839  12.395  22.450  0.00  0.00    +0.000 A 
ATOM     10  O   UNL     1      -1.026  13.027  23.487  0.00  0.00    +0.000 OA
ATOM     11  O   UNL     1      -0.723  11.045  22.412  0.00  0.00    +0.000 OA
ATOM     12  C   UNL     1      -0.406  10.332  21.217  0.00  0.00    +0.000 A 
ATOM     13  C   UNL     1      -0.166   8.880  21.521  0.00  0.00    +0.000 C 
ENDBRANCH   2   5
BRANCH   1  14
ATOM     14  C   UNL     1       2.045   9.175  17.566  0.00  0.00    +0.000 C 
BRANCH  14  15
ATOM     15  C   UNL     1       2.372   7.792  18.111  0.00  0.00    +0.000 C 
BRANCH  15  16
ATOM     16  C   UNL     1       3.769   7.315  17.719  0.00  0.00    +0.000 C 
BRANCH  16  17
ATOM     17  N   UNL     1       3.869   5.853  17.853  0.00  0.00    +0.000 N 
BRANCH  17  18
ATOM     18  C   UNL     1       2.939   5.137  18.628  0.00  0.00    +0.000 A 
ATOM     19  C   UNL     1       2.006   4.254  18.047  0.00  0.00    +0.000 A 
ATOM     20  C   UNL     1       1.045   3.564  18.800  0.00  0.00    +0.000 A 
ATOM     21  C   UNL     1       0.996   3.721  20.176  0.00  0.00    +0.000 A 
ATOM     22  C   UNL     1       1.913   4.560  20.792  0.00  0.00    +0.000 A 
ATOM     23  C   UNL     1       2.867   5.251  20.028  0.00  0.00    +0.000 A 
ENDBRANCH  17  18
BRANCH  17  25
ATOM     24  C   UNL     1       5.231   5.639  15.697  0.00  0.00    +0.000 C 
ATOM     25  C   UNL     1       4.849   5.085  17.059  0.00  0.00    +0.000 C 
ENDBRANCH  17  25
ENDBRANCH  16  17
ENDBRANCH  15  16
ENDBRANCH  14  15
ENDBRANCH   1  14
TORSDOF 7
ENDMDL
