MODEL 1
REMARK VINA RESULT:      -7.4      0.000      0.000
REMARK  Name = 
REMARK  6 active torsions:
REMARK  status: ('A' for Active; 'I' for Inactive)
REMARK    1  A    between atoms: C_1  and  N_2
REMARK    2  A    between atoms: C_4  and  C_5
REMARK    3  A    between atoms: N_7  and  C_8
REMARK    4  A    between atoms: C_8  and  C_9
REMARK    5  A    between atoms: N_12  and  S_13
REMARK    6  A    between atoms: S_13  and  C_16
REMARK                            x       y       z     vdW  Elec       q    Type
REMARK                         _______ _______ _______ _____ _____    ______ ____
ROOT
ATOM      1  C   UNL     1       1.942   8.180  18.432  0.00  0.00    +0.000 C 
ATOM      2  C   UNL     1       3.306   8.301  17.738  0.00  0.00    +0.000 C 
ATOM      3  C   UNL     1       3.860   6.899  17.447  0.00  0.00    +0.000 C 
ATOM      4  N   UNL     1       3.942   6.065  18.688  0.00  0.00    +0.000 NA
ATOM      5  C   UNL     1       2.674   6.045  19.476  0.00  0.00    +0.000 C 
ATOM      6  C   UNL     1       2.188   7.458  19.761  0.00  0.00    +0.000 C 
ENDROOT
BRANCH   4   7
ATOM      7  S   UNL     1       4.487   4.452  18.387  0.00  0.00    +0.000 S 
ATOM      8  O   UNL     1       5.479   4.107  19.383  0.00  0.00    +0.000 OA
ATOM      9  O   UNL     1       3.315   3.624  18.183  0.00  0.00    +0.000 OA
BRANCH   7  10
ATOM     10  C   UNL     1       5.348   4.410  16.835  0.00  0.00    +0.000 A 
ATOM     11  C   UNL     1       4.957   4.020  15.569  0.00  0.00    +0.000 A 
ATOM     12  C   UNL     1       6.026   4.082  14.629  0.00  0.00    +0.000 A 
ATOM     13  C   UNL     1       7.188   4.542  15.205  0.00  0.00    +0.000 A 
ATOM     14  S   UNL     1       6.986   4.902  16.866  0.00  0.00    +0.000 S 
ENDBRANCH   7  10
ENDBRANCH   4   7
BRANCH   1  15
ATOM     15  C   UNL     1       1.211   9.505  18.661  0.00  0.00    +0.000 C 
BRANCH  15  18
ATOM     16  C   UNL     1      -1.113  10.248  18.229  0.00  0.00    +0.000 C 
ATOM     17  O   UNL     1      -1.292  10.566  19.398  0.00  0.00    +0.000 OA
ATOM     18  N   UNL     1       0.070   9.684  17.782  0.00  0.00    +0.000 N 
ATOM     19  H   UNL     1       0.157   9.420  16.814  0.00  0.00    +0.000 HD
BRANCH  16  23
ATOM     20  C   UNL     1      -3.996  10.143  14.126  0.00  0.00    +0.000 C 
ATOM     21  N   UNL     1      -3.419  10.423  15.420  0.00  0.00    +0.000 N 
ATOM     22  C   UNL     1      -2.290   9.875  15.965  0.00  0.00    +0.000 A 
ATOM     23  C   UNL     1      -2.136  10.450  17.215  0.00  0.00    +0.000 A 
ATOM     24  C   UNL     1      -3.237  11.340  17.305  0.00  0.00    +0.000 A 
ATOM     25  N   UNL     1      -4.015  11.323  16.222  0.00  0.00    +0.000 NA
ENDBRANCH  16  23
ENDBRANCH  15  18
ENDBRANCH   1  15
TORSDOF 5
ENDMDL
MODEL 2
REMARK VINA RESULT:      -7.2      3.246      8.718
REMARK  Name = 
REMARK  6 active torsions:
REMARK  status: ('A' for Active; 'I' for Inactive)
REMARK    1  A    between atoms: C_1  and  N_2
REMARK    2  A    between atoms: C_4  and  C_5
REMARK    3  A    between atoms: N_7  and  C_8
REMARK    4  A    between atoms: C_8  and  C_9
REMARK    5  A    between atoms: N_12  and  S_13
REMARK    6  A    between atoms: S_13  and  C_16
REMARK                            x       y       z     vdW  Elec       q    Type
REMARK                         _______ _______ _______ _____ _____    ______ ____
ROOT
ATOM      1  C   UNL     1       3.278   6.778  19.169  0.00  0.00    +0.000 C 
ATOM      2  C   UNL     1       2.733   7.323  17.842  0.00  0.00    +0.000 C 
ATOM      3  C   UNL     1       2.170   8.735  18.059  0.00  0.00    +0.000 C 
ATOM      4  N   UNL     1       1.132   8.759  19.137  0.00  0.00    +0.000 NA
ATOM      5  C   UNL     1       1.571   8.100  20.402  0.00  0.00    +0.000 C 
ATOM      6  C   UNL     1       2.090   6.695  20.132  0.00  0.00    +0.000 C 
ENDROOT
BRANCH   4   7
ATOM      7  S   UNL     1       0.532  10.348  19.466  0.00  0.00    +0.000 S 
ATOM      8  O   UNL     1       0.163  10.421  20.864  0.00  0.00    +0.000 OA
ATOM      9  O   UNL     1       1.463  11.297  18.889  0.00  0.00    +0.000 OA
BRANCH   7  10
ATOM     10  C   UNL     1      -0.981  10.594  18.570  0.00  0.00    +0.000 A 
ATOM     11  C   UNL     1      -1.544   9.923  17.501  0.00  0.00    +0.000 A 
ATOM     12  C   UNL     1      -2.750  10.534  17.054  0.00  0.00    +0.000 A 
ATOM     13  C   UNL     1      -3.080  11.634  17.813  0.00  0.00    +0.000 A 
ATOM     14  S   UNL     1      -1.943  11.920  19.060  0.00  0.00    +0.000 S 
ENDBRANCH   7  10
ENDBRANCH   4   7
BRANCH   1  15
ATOM     15  C   UNL     1       3.993   5.428  19.071  0.00  0.00    +0.000 C 
BRANCH  15  18
ATOM     16  C   UNL     1       4.649   4.494  16.872  0.00  0.00    +0.000 C 
ATOM     17  O   UNL     1       3.699   3.720  16.850  0.00  0.00    +0.000 OA
ATOM     18  N   UNL     1       4.895   5.342  17.938  0.00  0.00    +0.000 N 
ATOM     19  H   UNL     1       5.704   5.943  17.914  0.00  0.00    +0.000 HD
BRANCH  16  23
ATOM     20  C   UNL     1       7.067   4.144  12.492  0.00  0.00    +0.000 C 
ATOM     21  N   UNL     1       6.673   4.441  13.850  0.00  0.00    +0.000 N 
ATOM     22  C   UNL     1       5.517   4.071  14.481  0.00  0.00    +0.000 A 
ATOM     23  C   UNL     1       5.589   4.583  15.766  0.00  0.00    +0.000 A 
ATOM     24  C   UNL     1       6.846   5.237  15.789  0.00  0.00    +0.000 A 
ATOM     25  N   UNL     1       7.503   5.155  14.631  0.00  0.00    +0.000 NA
ENDBRANCH  16  23
ENDBRANCH  15  18
ENDBRANCH   1  15
TORSDOF 5
ENDMDL
MODEL 3
REMARK VINA RESULT:      -7.1      3.631      9.143
REMARK  Name = 
REMARK  6 active torsions:
REMARK  status: ('A' for Active; 'I' for Inactive)
REMARK    1  A    between atoms: C_1  and  N_2
REMARK    2  A    between atoms: C_4  and  C_5
REMARK    3  A    between atoms: N_7  and  C_8
REMARK    4  A    between atoms: C_8  and  C_9
REMARK    5  A    between atoms: N_12  and  S_13
REMARK    6  A    between atoms: S_13  and  C_16
REMARK                            x       y       z     vdW  Elec       q    Type
REMARK                         _______ _______ _______ _____ _____    ______ ____
ROOT
ATOM      1  C   UNL     1       2.505   7.185  19.676  0.00  0.00    +0.000 C 
ATOM      2  C   UNL     1       1.975   7.807  18.377  0.00  0.00    +0.000 C 
ATOM      3  C   UNL     1       1.716   9.305  18.593  0.00  0.00    +0.000 C 
ATOM      4  N   UNL     1       0.789   9.548  19.743  0.00  0.00    +0.000 NA
ATOM      5  C   UNL     1       1.188   8.833  20.991  0.00  0.00    +0.000 C 
ATOM      6  C   UNL     1       1.401   7.351  20.725  0.00  0.00    +0.000 C 
ENDROOT
BRANCH   4   7
ATOM      7  S   UNL     1       0.536  11.228  20.068  0.00  0.00    +0.000 S 
ATOM      8  O   UNL     1       0.769  11.465  21.477  0.00  0.00    +0.000 OA
ATOM      9  O   UNL     1       1.250  11.982  19.057  0.00  0.00    +0.000 OA
BRANCH   7  10
ATOM     10  C   UNL     1      -1.175  11.620  19.804  0.00  0.00    +0.000 A 
ATOM     11  C   UNL     1      -2.042  11.329  18.768  0.00  0.00    +0.000 A 
ATOM     12  C   UNL     1      -3.322  11.927  18.950  0.00  0.00    +0.000 A 
ATOM     13  C   UNL     1      -3.395  12.632  20.131  0.00  0.00    +0.000 A 
ATOM     14  S   UNL     1      -1.930  12.564  21.013  0.00  0.00    +0.000 S 
ENDBRANCH   7  10
ENDBRANCH   4   7
BRANCH   1  15
ATOM     15  C   UNL     1       2.934   5.719  19.565  0.00  0.00    +0.000 C 
BRANCH  15  18
ATOM     16  C   UNL     1       5.152   5.256  18.563  0.00  0.00    +0.000 C 
ATOM     17  O   UNL     1       5.724   5.344  19.642  0.00  0.00    +0.000 OA
ATOM     18  N   UNL     1       3.790   5.462  18.422  0.00  0.00    +0.000 N 
ATOM     19  H   UNL     1       3.372   5.399  17.508  0.00  0.00    +0.000 HD
BRANCH  16  23
ATOM     20  C   UNL     1       6.514   4.014  13.899  0.00  0.00    +0.000 C 
ATOM     21  N   UNL     1       6.491   4.369  15.299  0.00  0.00    +0.000 N 
ATOM     22  C   UNL     1       5.393   4.622  16.075  0.00  0.00    +0.000 A 
ATOM     23  C   UNL     1       5.867   4.917  17.343  0.00  0.00    +0.000 A 
ATOM     24  C   UNL     1       7.273   4.799  17.204  0.00  0.00    +0.000 A 
ATOM     25  N   UNL     1       7.652   4.470  15.968  0.00  0.00    +0.000 NA
ENDBRANCH  16  23
ENDBRANCH  15  18
ENDBRANCH   1  15
TORSDOF 5
ENDMDL
MODEL 4
REMARK VINA RESULT:      -7.1      1.872      3.022
REMARK  Name = 
REMARK  6 active torsions:
REMARK  status: ('A' for Active; 'I' for Inactive)
REMARK    1  A    between atoms: C_1  and  N_2
REMARK    2  A    between atoms: C_4  and  C_5
REMARK    3  A    between atoms: N_7  and  C_8
REMARK    4  A    between atoms: C_8  and  C_9
REMARK    5  A    between atoms: N_12  and  S_13
REMARK    6  A    between atoms: S_13  and  C_16
REMARK                            x       y       z     vdW  Elec       q    Type
REMARK                         _______ _______ _______ _____ _____    ______ ____
ROOT
ATOM      1  C   UNL     1       2.221   8.329  18.184  0.00  0.00    +0.000 C 
ATOM      2  C   UNL     1       3.579   8.249  17.473  0.00  0.00    +0.000 C 
ATOM      3  C   UNL     1       3.954   6.778  17.246  0.00  0.00    +0.000 C 
ATOM      4  N   UNL     1       3.951   6.000  18.525  0.00  0.00    +0.000 NA
ATOM      5  C   UNL     1       2.703   6.173  19.324  0.00  0.00    +0.000 C 
ATOM      6  C   UNL     1       2.397   7.646  19.544  0.00  0.00    +0.000 C 
ENDROOT
BRANCH   4   7
ATOM      7  S   UNL     1       4.292   4.320  18.298  0.00  0.00    +0.000 S 
ATOM      8  O   UNL     1       4.489   4.076  16.885  0.00  0.00    +0.000 OA
ATOM      9  O   UNL     1       5.299   3.941  19.268  0.00  0.00    +0.000 OA
BRANCH   7  10
ATOM     10  C   UNL     1       2.857   3.372  18.739  0.00  0.00    +0.000 A 
ATOM     11  C   UNL     1       1.716   3.036  18.035  0.00  0.00    +0.000 A 
ATOM     12  C   UNL     1       0.781   2.317  18.833  0.00  0.00    +0.000 A 
ATOM     13  C   UNL     1       1.250   2.107  20.110  0.00  0.00    +0.000 A 
ATOM     14  S   UNL     1       2.812   2.767  20.338  0.00  0.00    +0.000 S 
ENDBRANCH   7  10
ENDBRANCH   4   7
BRANCH   1  15
ATOM     15  C   UNL     1       1.660   9.743  18.354  0.00  0.00    +0.000 C 
BRANCH  15  18
ATOM     16  C   UNL     1      -0.710  10.444  18.536  0.00  0.00    +0.000 C 
ATOM     17  O   UNL     1      -0.586  10.767  19.711  0.00  0.00    +0.000 OA
ATOM     18  N   UNL     1       0.328   9.897  17.800  0.00  0.00    +0.000 N 
ATOM     19  H   UNL     1       0.166   9.627  16.843  0.00  0.00    +0.000 HD
BRANCH  16  23
ATOM     20  C   UNL     1      -5.290  11.778  16.988  0.00  0.00    +0.000 C 
ATOM     21  N   UNL     1      -3.977  11.191  17.120  0.00  0.00    +0.000 N 
ATOM     22  C   UNL     1      -3.072  11.394  18.126  0.00  0.00    +0.000 A 
ATOM     23  C   UNL     1      -1.964  10.621  17.821  0.00  0.00    +0.000 A 
ATOM     24  C   UNL     1      -2.329   9.990  16.606  0.00  0.00    +0.000 A 
ATOM     25  N   UNL     1      -3.544  10.334  16.179  0.00  0.00    +0.000 NA
ENDBRANCH  16  23
ENDBRANCH  15  18
ENDBRANCH   1  15
TORSDOF 5
ENDMDL
MODEL 5
REMARK VINA RESULT:      -7.0      3.832      4.683
REMARK  Name = 
REMARK  6 active torsions:
REMARK  status: ('A' for Active; 'I' for Inactive)
REMARK    1  A    between atoms: C_1  and  N_2
REMARK    2  A    between atoms: C_4  and  C_5
REMARK    3  A    between atoms: N_7  and  C_8
REMARK    4  A    between atoms: C_8  and  C_9
REMARK    5  A    between atoms: N_12  and  S_13
REMARK    6  A    between atoms: S_13  and  C_16
REMARK                            x       y       z     vdW  Elec       q    Type
REMARK                         _______ _______ _______ _____ _____    ______ ____
ROOT
ATOM      1  C   UNL     1       3.453   5.468  19.183  0.00  0.00    +0.000 C 
ATOM      2  C   UNL     1       4.607   4.581  19.671  0.00  0.00    +0.000 C 
ATOM      3  C   UNL     1       5.865   4.873  18.842  0.00  0.00    +0.000 C 
ATOM      4  N   UNL     1       5.617   4.703  17.376  0.00  0.00    +0.000 NA
ATOM      5  C   UNL     1       4.409   5.431  16.888  0.00  0.00    +0.000 C 
ATOM      6  C   UNL     1       3.187   5.081  17.725  0.00  0.00    +0.000 C 
ENDROOT
BRANCH   4   7
ATOM      7  S   UNL     1       6.991   5.101  16.404  0.00  0.00    +0.000 S 
ATOM      8  O   UNL     1       7.102   6.543  16.331  0.00  0.00    +0.000 OA
ATOM      9  O   UNL     1       8.101   4.289  16.861  0.00  0.00    +0.000 OA
BRANCH   7  10
ATOM     10  C   UNL     1       6.696   4.570  14.736  0.00  0.00    +0.000 A 
ATOM     11  C   UNL     1       5.762   3.711  14.189  0.00  0.00    +0.000 A 
ATOM     12  C   UNL     1       5.957   3.519  12.791  0.00  0.00    +0.000 A 
ATOM     13  C   UNL     1       7.017   4.257  12.315  0.00  0.00    +0.000 A 
ATOM     14  S   UNL     1       7.764   5.180  13.548  0.00  0.00    +0.000 S 
ENDBRANCH   7  10
ENDBRANCH   4   7
BRANCH   1  15
ATOM     15  C   UNL     1       2.169   5.378  20.012  0.00  0.00    +0.000 C 
BRANCH  15  18
ATOM     16  C   UNL     1       1.644   7.799  19.974  0.00  0.00    +0.000 C 
ATOM     17  O   UNL     1       1.812   7.877  18.763  0.00  0.00    +0.000 OA
ATOM     18  N   UNL     1       1.833   6.622  20.679  0.00  0.00    +0.000 N 
ATOM     19  H   UNL     1       1.703   6.618  21.678  0.00  0.00    +0.000 HD
BRANCH  16  23
ATOM     20  C   UNL     1      -0.001  12.240  21.624  0.00  0.00    +0.000 C 
ATOM     21  N   UNL     1       0.502  10.891  21.514  0.00  0.00    +0.000 N 
ATOM     22  C   UNL     1       0.748  10.185  20.368  0.00  0.00    +0.000 A 
ATOM     23  C   UNL     1       1.221   8.944  20.764  0.00  0.00    +0.000 A 
ATOM     24  C   UNL     1       1.221   9.029  22.179  0.00  0.00    +0.000 A 
ATOM     25  N   UNL     1       0.785  10.204  22.635  0.00  0.00    +0.000 NA
ENDBRANCH  16  23
ENDBRANCH  15  18
ENDBRANCH   1  15
TORSDOF 5
ENDMDL
MODEL 6
REMARK VINA RESULT:      -7.0      3.066      3.898
REMARK  Name = 
REMARK  6 active torsions:
REMARK  status: ('A' for Active; 'I' for Inactive)
REMARK    1  A    between atoms: C_1  and  N_2
REMARK    2  A    between atoms: C_4  and  C_5
REMARK    3  A    between atoms: N_7  and  C_8
REMARK    4  A    between atoms: C_8  and  C_9
REMARK    5  A    between atoms: N_12  and  S_13
REMARK    6  A    between atoms: S_13  and  C_16
REMARK                            x       y       z     vdW  Elec       q    Type
REMARK                         _______ _______ _______ _____ _____    ______ ____
ROOT
ATOM      1  C   UNL     1       3.668   6.460  19.118  0.00  0.00    +0.000 C 
ATOM      2  C   UNL     1       4.270   5.064  19.331  0.00  0.00    +0.000 C 
ATOM      3  C   UNL     1       5.654   4.996  18.671  0.00  0.00    +0.000 C 
ATOM      4  N   UNL     1       5.597   5.360  17.220  0.00  0.00    +0.000 NA
ATOM      5  C   UNL     1       4.881   6.643  16.955  0.00  0.00    +0.000 C 
ATOM      6  C   UNL     1       3.506   6.643  17.606  0.00  0.00    +0.000 C 
ENDROOT
BRANCH   4   7
ATOM      7  S   UNL     1       7.150   5.371  16.461  0.00  0.00    +0.000 S 
ATOM      8  O   UNL     1       7.602   6.743  16.356  0.00  0.00    +0.000 OA
ATOM      9  O   UNL     1       7.965   4.365  17.112  0.00  0.00    +0.000 OA
BRANCH   7  10
ATOM     10  C   UNL     1       6.983   4.806  14.786  0.00  0.00    +0.000 A 
ATOM     11  C   UNL     1       7.678   5.111  13.632  0.00  0.00    +0.000 A 
ATOM     12  C   UNL     1       7.132   4.466  12.485  0.00  0.00    +0.000 A 
ATOM     13  C   UNL     1       6.056   3.671  12.808  0.00  0.00    +0.000 A 
ATOM     14  S   UNL     1       5.714   3.699  14.485  0.00  0.00    +0.000 S 
ENDBRANCH   7  10
ENDBRANCH   4   7
BRANCH   1  15
ATOM     15  C   UNL     1       2.343   6.713  19.841  0.00  0.00    +0.000 C 
BRANCH  15  18
ATOM     16  C   UNL     1       1.164   8.764  20.576  0.00  0.00    +0.000 C 
ATOM     17  O   UNL     1       0.965   8.319  21.700  0.00  0.00    +0.000 OA
ATOM     18  N   UNL     1       1.798   8.033  19.586  0.00  0.00    +0.000 N 
ATOM     19  H   UNL     1       1.917   8.439  18.671  0.00  0.00    +0.000 HD
BRANCH  16  23
ATOM     20  C   UNL     1      -0.481  12.879  18.229  0.00  0.00    +0.000 C 
ATOM     21  N   UNL     1       0.035  11.932  19.189  0.00  0.00    +0.000 N 
ATOM     22  C   UNL     1       0.253  10.594  19.004  0.00  0.00    +0.000 A 
ATOM     23  C   UNL     1       0.752  10.108  20.201  0.00  0.00    +0.000 A 
ATOM     24  C   UNL     1       0.796  11.257  21.030  0.00  0.00    +0.000 A 
ATOM     25  N   UNL     1       0.361  12.361  20.421  0.00  0.00    +0.000 NA
ENDBRANCH  16  23
ENDBRANCH  15  18
ENDBRANCH   1  15
TORSDOF 5
ENDMDL
MODEL 7
REMARK VINA RESULT:      -7.0      3.445      8.737
REMARK  Name = 
REMARK  6 active torsions:
REMARK  status: ('A' for Active; 'I' for Inactive)
REMARK    1  A    between atoms: C_1  and  N_2
REMARK    2  A    between atoms: C_4  and  C_5
REMARK    3  A    between atoms: N_7  and  C_8
REMARK    4  A    between atoms: C_8  and  C_9
REMARK    5  A    between atoms: N_12  and  S_13
REMARK    6  A    between atoms: S_13  and  C_16
REMARK                            x       y       z     vdW  Elec       q    Type
REMARK                         _______ _______ _______ _____ _____    ______ ____
ROOT
ATOM      1  C   UNL     1       1.892   7.256  19.154  0.00  0.00    +0.000 C 
ATOM      2  C   UNL     1       1.706   7.909  20.530  0.00  0.00    +0.000 C 
ATOM      3  C   UNL     1       0.807   9.146  20.395  0.00  0.00    +0.000 C 
ATOM      4  N   UNL     1       1.345  10.116  19.389  0.00  0.00    +0.000 NA
ATOM      5  C   UNL     1       1.684   9.488  18.078  0.00  0.00    +0.000 C 
ATOM      6  C   UNL     1       2.600   8.288  18.270  0.00  0.00    +0.000 C 
ENDROOT
BRANCH   4   7
ATOM      7  S   UNL     1       0.317  11.486  19.150  0.00  0.00    +0.000 S 
ATOM      8  O   UNL     1      -0.060  12.011  20.445  0.00  0.00    +0.000 OA
ATOM      9  O   UNL     1       0.941  12.334  18.154  0.00  0.00    +0.000 OA
BRANCH   7  10
ATOM     10  C   UNL     1      -1.201  10.950  18.403  0.00  0.00    +0.000 A 
ATOM     11  C   UNL     1      -1.477   9.974  17.463  0.00  0.00    +0.000 A 
ATOM     12  C   UNL     1      -2.853   9.952  17.096  0.00  0.00    +0.000 A 
ATOM     13  C   UNL     1      -3.584  10.893  17.786  0.00  0.00    +0.000 A 
ATOM     14  S   UNL     1      -2.614  11.790  18.874  0.00  0.00    +0.000 S 
ENDBRANCH   7  10
ENDBRANCH   4   7
BRANCH   1  15
ATOM     15  C   UNL     1       2.660   5.931  19.163  0.00  0.00    +0.000 C 
BRANCH  15  18
ATOM     16  C   UNL     1       4.875   5.483  18.146  0.00  0.00    +0.000 C 
ATOM     17  O   UNL     1       5.428   5.418  19.237  0.00  0.00    +0.000 OA
ATOM     18  N   UNL     1       3.526   5.768  18.011  0.00  0.00    +0.000 N 
ATOM     19  H   UNL     1       3.125   5.832  17.089  0.00  0.00    +0.000 HD
BRANCH  16  23
ATOM     20  C   UNL     1       6.422   4.018  13.606  0.00  0.00    +0.000 C 
ATOM     21  N   UNL     1       6.302   4.623  14.912  0.00  0.00    +0.000 N 
ATOM     22  C   UNL     1       5.263   4.499  15.795  0.00  0.00    +0.000 A 
ATOM     23  C   UNL     1       5.598   5.255  16.906  0.00  0.00    +0.000 A 
ATOM     24  C   UNL     1       6.872   5.782  16.573  0.00  0.00    +0.000 A 
ATOM     25  N   UNL     1       7.298   5.403  15.367  0.00  0.00    +0.000 NA
ENDBRANCH  16  23
ENDBRANCH  15  18
ENDBRANCH   1  15
TORSDOF 5
ENDMDL
MODEL 8
REMARK VINA RESULT:      -7.0      1.488      2.122
REMARK  Name = 
REMARK  6 active torsions:
REMARK  status: ('A' for Active; 'I' for Inactive)
REMARK    1  A    between atoms: C_1  and  N_2
REMARK    2  A    between atoms: C_4  and  C_5
REMARK    3  A    between atoms: N_7  and  C_8
REMARK    4  A    between atoms: C_8  and  C_9
REMARK    5  A    between atoms: N_12  and  S_13
REMARK    6  A    between atoms: S_13  and  C_16
REMARK                            x       y       z     vdW  Elec       q    Type
REMARK                         _______ _______ _______ _____ _____    ______ ____
ROOT
ATOM      1  C   UNL     1       2.151   6.977  20.546  0.00  0.00    +0.000 C 
ATOM      2  C   UNL     1       1.492   5.596  20.663  0.00  0.00    +0.000 C 
ATOM      3  C   UNL     1       2.494   4.512  20.241  0.00  0.00    +0.000 C 
ATOM      4  N   UNL     1       3.030   4.756  18.865  0.00  0.00    +0.000 NA
ATOM      5  C   UNL     1       3.544   6.143  18.663  0.00  0.00    +0.000 C 
ATOM      6  C   UNL     1       2.501   7.174  19.068  0.00  0.00    +0.000 C 
ENDROOT
BRANCH   4   7
ATOM      7  S   UNL     1       4.223   3.599  18.386  0.00  0.00    +0.000 S 
ATOM      8  O   UNL     1       5.189   3.464  19.455  0.00  0.00    +0.000 OA
ATOM      9  O   UNL     1       3.526   2.443  17.860  0.00  0.00    +0.000 OA
BRANCH   7  10
ATOM     10  C   UNL     1       5.137   4.244  17.008  0.00  0.00    +0.000 A 
ATOM     11  C   UNL     1       4.805   4.424  15.679  0.00  0.00    +0.000 A 
ATOM     12  C   UNL     1       5.902   4.906  14.908  0.00  0.00    +0.000 A 
ATOM     13  C   UNL     1       7.025   5.102  15.680  0.00  0.00    +0.000 A 
ATOM     14  S   UNL     1       6.751   4.713  17.324  0.00  0.00    +0.000 S 
ENDBRANCH   7  10
ENDBRANCH   4   7
BRANCH   1  15
ATOM     15  C   UNL     1       1.307   8.145  21.065  0.00  0.00    +0.000 C 
BRANCH  15  18
ATOM     16  C   UNL     1      -0.034  10.020  20.155  0.00  0.00    +0.000 C 
ATOM     17  O   UNL     1       0.159  10.716  21.144  0.00  0.00    +0.000 OA
ATOM     18  N   UNL     1       0.458   8.730  20.044  0.00  0.00    +0.000 N 
ATOM     19  H   UNL     1       0.250   8.192  19.218  0.00  0.00    +0.000 HD
BRANCH  16  23
ATOM     20  C   UNL     1      -2.652  10.538  15.909  0.00  0.00    +0.000 C 
ATOM     21  N   UNL     1      -1.944  10.759  17.149  0.00  0.00    +0.000 N 
ATOM     22  C   UNL     1      -1.336   9.822  17.938  0.00  0.00    +0.000 A 
ATOM     23  C   UNL     1      -0.793  10.505  19.014  0.00  0.00    +0.000 A 
ATOM     24  C   UNL     1      -1.136  11.855  18.752  0.00  0.00    +0.000 A 
ATOM     25  N   UNL     1      -1.834  12.011  17.626  0.00  0.00    +0.000 NA
ENDBRANCH  16  23
ENDBRANCH  15  18
ENDBRANCH   1  15
TORSDOF 5
ENDMDL
MODEL 9
REMARK VINA RESULT:      -7.0      1.427      1.967
REMARK  Name = 
REMARK  6 active torsions:
REMARK  status: ('A' for Active; 'I' for Inactive)
REMARK    1  A    between atoms: C_1  and  N_2
REMARK    2  A    between atoms: C_4  and  C_5
REMARK    3  A    between atoms: N_7  and  C_8
REMARK    4  A    between atoms: C_8  and  C_9
REMARK    5  A    between atoms: N_12  and  S_13
REMARK    6  A    between atoms: S_13  and  C_16
REMARK                            x       y       z     vdW  Elec       q    Type
REMARK                         _______ _______ _______ _____ _____    ______ ____
ROOT
ATOM      1  C   UNL     1       2.013   8.147  19.621  0.00  0.00    +0.000 C 
ATOM      2  C   UNL     1       1.437   6.981  20.436  0.00  0.00    +0.000 C 
ATOM      3  C   UNL     1       2.341   5.750  20.283  0.00  0.00    +0.000 C 
ATOM      4  N   UNL     1       2.535   5.379  18.845  0.00  0.00    +0.000 NA
ATOM      5  C   UNL     1       2.950   6.526  17.985  0.00  0.00    +0.000 C 
ATOM      6  C   UNL     1       2.003   7.704  18.154  0.00  0.00    +0.000 C 
ENDROOT
BRANCH   4   7
ATOM      7  S   UNL     1       3.613   4.045  18.628  0.00  0.00    +0.000 S 
ATOM      8  O   UNL     1       3.662   3.286  19.860  0.00  0.00    +0.000 OA
ATOM      9  O   UNL     1       3.274   3.406  17.372  0.00  0.00    +0.000 OA
BRANCH   7  10
ATOM     10  C   UNL     1       5.261   4.662  18.393  0.00  0.00    +0.000 A 
ATOM     11  C   UNL     1       6.135   5.314  19.242  0.00  0.00    +0.000 A 
ATOM     12  C   UNL     1       7.340   5.699  18.586  0.00  0.00    +0.000 A 
ATOM     13  C   UNL     1       7.354   5.304  17.267  0.00  0.00    +0.000 A 
ATOM     14  S   UNL     1       5.925   4.470  16.829  0.00  0.00    +0.000 S 
ENDBRANCH   7  10
ENDBRANCH   4   7
BRANCH   1  15
ATOM     15  C   UNL     1       1.282   9.481  19.791  0.00  0.00    +0.000 C 
BRANCH  15  18
ATOM     16  C   UNL     1      -0.922  10.403  19.131  0.00  0.00    +0.000 C 
ATOM     17  O   UNL     1      -1.124  10.874  20.243  0.00  0.00    +0.000 OA
ATOM     18  N   UNL     1       0.214   9.671  18.827  0.00  0.00    +0.000 N 
ATOM     19  H   UNL     1       0.321   9.287  17.902  0.00  0.00    +0.000 HD
BRANCH  16  23
ATOM     20  C   UNL     1      -3.423  10.305  14.785  0.00  0.00    +0.000 C 
ATOM     21  N   UNL     1      -2.980  10.563  16.136  0.00  0.00    +0.000 N 
ATOM     22  C   UNL     1      -1.871  10.059  16.758  0.00  0.00    +0.000 A 
ATOM     23  C   UNL     1      -1.863  10.588  18.038  0.00  0.00    +0.000 A 
ATOM     24  C   UNL     1      -3.021  11.406  18.062  0.00  0.00    +0.000 A 
ATOM     25  N   UNL     1      -3.699  11.391  16.914  0.00  0.00    +0.000 NA
ENDBRANCH  16  23
ENDBRANCH  15  18
ENDBRANCH   1  15
TORSDOF 5
ENDMDL
