MODEL 1
REMARK VINA RESULT:      -7.1      0.000      0.000
REMARK  Name = 
REMARK  2 active torsions:
REMARK  status: ('A' for Active; 'I' for Inactive)
REMARK    1  A    between atoms: C_2  and  C_15
REMARK    2  A    between atoms: N_3  and  C_4
REMARK                            x       y       z     vdW  Elec       q    Type
REMARK                         _______ _______ _______ _____ _____    ______ ____
ROOT
ATOM      1  C   UNL     1       3.392   6.009  18.086  0.00  0.00    +0.000 A 
ATOM      2  C   UNL     1       4.546   6.461  17.439  0.00  0.00    +0.000 A 
ATOM      3  C   UNL     1       5.289   5.613  16.621  0.00  0.00    +0.000 A 
ATOM      4  C   UNL     1       4.879   4.297  16.417  0.00  0.00    +0.000 A 
ATOM      5  C   UNL     1       3.766   3.807  17.097  0.00  0.00    +0.000 A 
ATOM      6  C   UNL     1       3.032   4.657  17.936  0.00  0.00    +0.000 A 
ATOM      7 BR   UNL     1       1.515   3.933  18.825  0.00  0.00    +0.000 Br
ATOM      8  O   UNL     1       5.537   3.437  15.574  0.00  0.00    +0.000 OA
ATOM      9  C   UNL     1       6.445   4.142  14.712  0.00  0.00    +0.000 C 
ATOM     10  C   UNL     1       7.260   5.150  15.503  0.00  0.00    +0.000 C 
ATOM     11  O   UNL     1       6.407   6.160  16.045  0.00  0.00    +0.000 OA
ENDROOT
BRANCH   1  14
ATOM     12  O   UNL     1       2.320   8.602  17.385  0.00  0.00    +0.000 OA
ATOM     13  C   UNL     1       2.157   8.138  18.511  0.00  0.00    +0.000 C 
ATOM     14  N   UNL     1       2.605   6.880  18.886  0.00  0.00    +0.000 N 
ATOM     15  H   UNL     1       2.235   6.500  19.752  0.00  0.00    +0.000 HD
BRANCH  13  16
ATOM     16  C   UNL     1       1.425   8.907  19.505  0.00  0.00    +0.000 A 
ATOM     17  C   UNL     1       1.206   8.504  20.813  0.00  0.00    +0.000 A 
ATOM     18  C   UNL     1       0.404   9.417  21.544  0.00  0.00    +0.000 A 
ATOM     19  C   UNL     1       0.039  10.499  20.780  0.00  0.00    +0.000 A 
ATOM     20  S   UNL     1       0.684  10.411  19.192  0.00  0.00    +0.000 S 
ENDBRANCH  13  16
ENDBRANCH   1  14
TORSDOF 2
ENDMDL
MODEL 2
REMARK VINA RESULT:      -6.8      4.077      4.755
REMARK  Name = 
REMARK  2 active torsions:
REMARK  status: ('A' for Active; 'I' for Inactive)
REMARK    1  A    between atoms: C_2  and  C_15
REMARK    2  A    between atoms: N_3  and  C_4
REMARK                            x       y       z     vdW  Elec       q    Type
REMARK                         _______ _______ _______ _____ _____    ______ ____
ROOT
ATOM      1  C   UNL     1       5.440   4.105  16.844  0.00  0.00    +0.000 A 
ATOM      2  C   UNL     1       5.240   3.656  15.536  0.00  0.00    +0.000 A 
ATOM      3  C   UNL     1       6.048   4.101  14.492  0.00  0.00    +0.000 A 
ATOM      4  C   UNL     1       7.090   4.991  14.742  0.00  0.00    +0.000 A 
ATOM      5  C   UNL     1       7.272   5.498  16.027  0.00  0.00    +0.000 A 
ATOM      6  C   UNL     1       6.443   5.065  17.072  0.00  0.00    +0.000 A 
ATOM      7 BR   UNL     1       6.751   5.783  18.805  0.00  0.00    +0.000 Br
ATOM      8  O   UNL     1       7.955   5.414  13.764  0.00  0.00    +0.000 OA
ATOM      9  C   UNL     1       7.862   4.589  12.592  0.00  0.00    +0.000 C 
ATOM     10  C   UNL     1       6.409   4.346  12.221  0.00  0.00    +0.000 C 
ATOM     11  O   UNL     1       5.755   3.601  13.249  0.00  0.00    +0.000 OA
ENDROOT
BRANCH   1  14
ATOM     12  O   UNL     1       2.781   4.936  17.622  0.00  0.00    +0.000 OA
ATOM     13  C   UNL     1       3.394   4.094  18.276  0.00  0.00    +0.000 C 
ATOM     14  N   UNL     1       4.648   3.622  17.921  0.00  0.00    +0.000 N 
ATOM     15  H   UNL     1       4.972   2.781  18.389  0.00  0.00    +0.000 HD
BRANCH  13  16
ATOM     16  C   UNL     1       2.777   3.516  19.460  0.00  0.00    +0.000 A 
ATOM     17  C   UNL     1       1.455   3.701  19.833  0.00  0.00    +0.000 A 
ATOM     18  C   UNL     1       1.138   3.077  21.067  0.00  0.00    +0.000 A 
ATOM     19  C   UNL     1       2.222   2.423  21.600  0.00  0.00    +0.000 A 
ATOM     20  S   UNL     1       3.609   2.553  20.597  0.00  0.00    +0.000 S 
ENDBRANCH  13  16
ENDBRANCH   1  14
TORSDOF 2
ENDMDL
MODEL 3
REMARK VINA RESULT:      -6.8      3.977      7.286
REMARK  Name = 
REMARK  2 active torsions:
REMARK  status: ('A' for Active; 'I' for Inactive)
REMARK    1  A    between atoms: C_2  and  C_15
REMARK    2  A    between atoms: N_3  and  C_4
REMARK                            x       y       z     vdW  Elec       q    Type
REMARK                         _______ _______ _______ _____ _____    ______ ____
ROOT
ATOM      1  C   UNL     1       4.183   4.357  17.344  0.00  0.00    +0.000 A 
ATOM      2  C   UNL     1       3.859   3.225  18.099  0.00  0.00    +0.000 A 
ATOM      3  C   UNL     1       3.312   3.346  19.374  0.00  0.00    +0.000 A 
ATOM      4  C   UNL     1       3.058   4.605  19.913  0.00  0.00    +0.000 A 
ATOM      5  C   UNL     1       3.426   5.747  19.204  0.00  0.00    +0.000 A 
ATOM      6  C   UNL     1       3.997   5.623  17.930  0.00  0.00    +0.000 A 
ATOM      7 BR   UNL     1       4.465   7.218  17.008  0.00  0.00    +0.000 Br
ATOM      8  O   UNL     1       2.463   4.781  21.137  0.00  0.00    +0.000 OA
ATOM      9  C   UNL     1       1.855   3.567  21.603  0.00  0.00    +0.000 C 
ATOM     10  C   UNL     1       2.796   2.390  21.415  0.00  0.00    +0.000 C 
ATOM     11  O   UNL     1       3.041   2.170  20.025  0.00  0.00    +0.000 OA
ENDROOT
BRANCH   1  14
ATOM     12  O   UNL     1       6.951   4.284  16.508  0.00  0.00    +0.000 OA
ATOM     13  C   UNL     1       6.043   4.261  15.680  0.00  0.00    +0.000 C 
ATOM     14  N   UNL     1       4.701   4.243  16.026  0.00  0.00    +0.000 N 
ATOM     15  H   UNL     1       4.041   4.002  15.292  0.00  0.00    +0.000 HD
BRANCH  13  16
ATOM     16  C   UNL     1       6.366   4.206  14.263  0.00  0.00    +0.000 A 
ATOM     17  C   UNL     1       5.701   3.427  13.330  0.00  0.00    +0.000 A 
ATOM     18  C   UNL     1       6.269   3.515  12.033  0.00  0.00    +0.000 A 
ATOM     19  C   UNL     1       7.346   4.366  12.005  0.00  0.00    +0.000 A 
ATOM     20  S   UNL     1       7.652   5.066  13.542  0.00  0.00    +0.000 S 
ENDBRANCH  13  16
ENDBRANCH   1  14
TORSDOF 2
ENDMDL
MODEL 4
REMARK VINA RESULT:      -6.7      4.119      7.330
REMARK  Name = 
REMARK  2 active torsions:
REMARK  status: ('A' for Active; 'I' for Inactive)
REMARK    1  A    between atoms: C_2  and  C_15
REMARK    2  A    between atoms: N_3  and  C_4
REMARK                            x       y       z     vdW  Elec       q    Type
REMARK                         _______ _______ _______ _____ _____    ______ ____
ROOT
ATOM      1  C   UNL     1       4.659   4.091  17.164  0.00  0.00    +0.000 A 
ATOM      2  C   UNL     1       3.312   3.767  17.358  0.00  0.00    +0.000 A 
ATOM      3  C   UNL     1       2.683   4.016  18.575  0.00  0.00    +0.000 A 
ATOM      4  C   UNL     1       3.385   4.615  19.619  0.00  0.00    +0.000 A 
ATOM      5  C   UNL     1       4.742   4.893  19.469  0.00  0.00    +0.000 A 
ATOM      6  C   UNL     1       5.379   4.621  18.249  0.00  0.00    +0.000 A 
ATOM      7 BR   UNL     1       7.229   5.035  18.103  0.00  0.00    +0.000 Br
ATOM      8  O   UNL     1       2.799   4.940  20.817  0.00  0.00    +0.000 OA
ATOM      9  C   UNL     1       1.366   4.902  20.725  0.00  0.00    +0.000 C 
ATOM     10  C   UNL     1       0.908   3.643  20.010  0.00  0.00    +0.000 C 
ATOM     11  O   UNL     1       1.364   3.651  18.656  0.00  0.00    +0.000 OA
ENDROOT
BRANCH   1  14
ATOM     12  O   UNL     1       5.329   6.051  15.145  0.00  0.00    +0.000 OA
ATOM     13  C   UNL     1       5.549   4.856  14.959  0.00  0.00    +0.000 C 
ATOM     14  N   UNL     1       5.295   3.880  15.911  0.00  0.00    +0.000 N 
ATOM     15  H   UNL     1       5.710   2.967  15.754  0.00  0.00    +0.000 HD
BRANCH  13  16
ATOM     16  C   UNL     1       6.145   4.424  13.705  0.00  0.00    +0.000 A 
ATOM     17  C   UNL     1       5.624   3.440  12.879  0.00  0.00    +0.000 A 
ATOM     18  C   UNL     1       6.446   3.173  11.755  0.00  0.00    +0.000 A 
ATOM     19  C   UNL     1       7.568   3.965  11.744  0.00  0.00    +0.000 A 
ATOM     20  S   UNL     1       7.611   5.038  13.082  0.00  0.00    +0.000 S 
ENDBRANCH  13  16
ENDBRANCH   1  14
TORSDOF 2
ENDMDL
MODEL 5
REMARK VINA RESULT:      -6.6      0.952      1.199
REMARK  Name = 
REMARK  2 active torsions:
REMARK  status: ('A' for Active; 'I' for Inactive)
REMARK    1  A    between atoms: C_2  and  C_15
REMARK    2  A    between atoms: N_3  and  C_4
REMARK                            x       y       z     vdW  Elec       q    Type
REMARK                         _______ _______ _______ _____ _____    ______ ____
ROOT
ATOM      1  C   UNL     1       3.160   6.476  18.386  0.00  0.00    +0.000 A 
ATOM      2  C   UNL     1       4.176   6.843  17.498  0.00  0.00    +0.000 A 
ATOM      3  C   UNL     1       4.911   5.881  16.811  0.00  0.00    +0.000 A 
ATOM      4  C   UNL     1       4.629   4.527  16.982  0.00  0.00    +0.000 A 
ATOM      5  C   UNL     1       3.661   4.135  17.905  0.00  0.00    +0.000 A 
ATOM      6  C   UNL     1       2.937   5.106  18.612  0.00  0.00    +0.000 A 
ATOM      7 BR   UNL     1       1.620   4.507  19.846  0.00  0.00    +0.000 Br
ATOM      8  O   UNL     1       5.278   3.540  16.284  0.00  0.00    +0.000 OA
ATOM      9  C   UNL     1       5.998   4.078  15.164  0.00  0.00    +0.000 C 
ATOM     10  C   UNL     1       6.781   5.313  15.575  0.00  0.00    +0.000 C 
ATOM     11  O   UNL     1       5.888   6.354  15.974  0.00  0.00    +0.000 OA
ENDROOT
BRANCH   1  14
ATOM     12  O   UNL     1       1.982   8.882  17.296  0.00  0.00    +0.000 OA
ATOM     13  C   UNL     1       1.876   8.616  18.491  0.00  0.00    +0.000 C 
ATOM     14  N   UNL     1       2.376   7.453  19.057  0.00  0.00    +0.000 N 
ATOM     15  H   UNL     1       2.052   7.220  19.991  0.00  0.00    +0.000 HD
BRANCH  13  16
ATOM     16  C   UNL     1       1.159   9.527  19.369  0.00  0.00    +0.000 A 
ATOM     17  C   UNL     1       0.793  10.822  19.037  0.00  0.00    +0.000 A 
ATOM     18  C   UNL     1       0.163  11.509  20.106  0.00  0.00    +0.000 A 
ATOM     19  C   UNL     1       0.052  10.719  21.224  0.00  0.00    +0.000 A 
ATOM     20  S   UNL     1       0.695   9.148  20.967  0.00  0.00    +0.000 S 
ENDBRANCH  13  16
ENDBRANCH   1  14
TORSDOF 2
ENDMDL
MODEL 6
REMARK VINA RESULT:      -6.6      1.096      1.203
REMARK  Name = 
REMARK  2 active torsions:
REMARK  status: ('A' for Active; 'I' for Inactive)
REMARK    1  A    between atoms: C_2  and  C_15
REMARK    2  A    between atoms: N_3  and  C_4
REMARK                            x       y       z     vdW  Elec       q    Type
REMARK                         _______ _______ _______ _____ _____    ______ ____
ROOT
ATOM      1  C   UNL     1       2.958   6.068  19.181  0.00  0.00    +0.000 A 
ATOM      2  C   UNL     1       4.043   6.513  18.419  0.00  0.00    +0.000 A 
ATOM      3  C   UNL     1       4.723   5.649  17.565  0.00  0.00    +0.000 A 
ATOM      4  C   UNL     1       4.317   4.322  17.439  0.00  0.00    +0.000 A 
ATOM      5  C   UNL     1       3.276   3.841  18.230  0.00  0.00    +0.000 A 
ATOM      6  C   UNL     1       2.607   4.708  19.106  0.00  0.00    +0.000 A 
ATOM      7 BR   UNL     1       1.187   3.993  20.149  0.00  0.00    +0.000 Br
ATOM      8  O   UNL     1       4.910   3.444  16.567  0.00  0.00    +0.000 OA
ATOM      9  C   UNL     1       5.726   4.133  15.606  0.00  0.00    +0.000 C 
ATOM     10  C   UNL     1       6.593   5.176  16.289  0.00  0.00    +0.000 C 
ATOM     11  O   UNL     1       5.776   6.191  16.874  0.00  0.00    +0.000 OA
ENDROOT
BRANCH   1  14
ATOM     12  O   UNL     1       1.700   8.575  18.475  0.00  0.00    +0.000 OA
ATOM     13  C   UNL     1       1.690   8.171  19.636  0.00  0.00    +0.000 C 
ATOM     14  N   UNL     1       2.232   6.954  20.021  0.00  0.00    +0.000 N 
ATOM     15  H   UNL     1       1.983   6.612  20.945  0.00  0.00    +0.000 HD
BRANCH  13  16
ATOM     16  C   UNL     1       1.046   8.968  20.668  0.00  0.00    +0.000 A 
ATOM     17  C   UNL     1       1.127   8.717  22.028  0.00  0.00    +0.000 A 
ATOM     18  C   UNL     1       0.346   9.613  22.802  0.00  0.00    +0.000 A 
ATOM     19  C   UNL     1      -0.303  10.533  22.015  0.00  0.00    +0.000 A 
ATOM     20  S   UNL     1       0.050  10.317  20.349  0.00  0.00    +0.000 S 
ENDBRANCH  13  16
ENDBRANCH   1  14
TORSDOF 2
ENDMDL
MODEL 7
REMARK VINA RESULT:      -6.6      4.217      7.272
REMARK  Name = 
REMARK  2 active torsions:
REMARK  status: ('A' for Active; 'I' for Inactive)
REMARK    1  A    between atoms: C_2  and  C_15
REMARK    2  A    between atoms: N_3  and  C_4
REMARK                            x       y       z     vdW  Elec       q    Type
REMARK                         _______ _______ _______ _____ _____    ______ ____
ROOT
ATOM      1  C   UNL     1       4.712   4.098  17.252  0.00  0.00    +0.000 A 
ATOM      2  C   UNL     1       3.402   3.622  17.364  0.00  0.00    +0.000 A 
ATOM      3  C   UNL     1       2.684   3.770  18.548  0.00  0.00    +0.000 A 
ATOM      4  C   UNL     1       3.256   4.418  19.640  0.00  0.00    +0.000 A 
ATOM      5  C   UNL     1       4.579   4.849  19.572  0.00  0.00    +0.000 A 
ATOM      6  C   UNL     1       5.307   4.680  18.386  0.00  0.00    +0.000 A 
ATOM      7 BR   UNL     1       7.104   5.301  18.351  0.00  0.00    +0.000 Br
ATOM      8  O   UNL     1       2.573   4.646  20.809  0.00  0.00    +0.000 OA
ATOM      9  C   UNL     1       1.161   4.451  20.636  0.00  0.00    +0.000 C 
ATOM     10  C   UNL     1       0.887   3.166  19.873  0.00  0.00    +0.000 C 
ATOM     11  O   UNL     1       1.412   3.257  18.548  0.00  0.00    +0.000 OA
ENDROOT
BRANCH   1  14
ATOM     12  O   UNL     1       5.264   6.169  15.310  0.00  0.00    +0.000 OA
ATOM     13  C   UNL     1       5.628   5.011  15.115  0.00  0.00    +0.000 C 
ATOM     14  N   UNL     1       5.435   3.991  16.034  0.00  0.00    +0.000 N 
ATOM     15  H   UNL     1       5.958   3.133  15.884  0.00  0.00    +0.000 HD
BRANCH  13  16
ATOM     16  C   UNL     1       6.336   4.678  13.889  0.00  0.00    +0.000 A 
ATOM     17  C   UNL     1       7.492   5.303  13.448  0.00  0.00    +0.000 A 
ATOM     18  C   UNL     1       7.930   4.824  12.187  0.00  0.00    +0.000 A 
ATOM     19  C   UNL     1       7.106   3.839  11.701  0.00  0.00    +0.000 A 
ATOM     20  S   UNL     1       5.818   3.488  12.781  0.00  0.00    +0.000 S 
ENDBRANCH  13  16
ENDBRANCH   1  14
TORSDOF 2
ENDMDL
MODEL 8
REMARK VINA RESULT:      -6.6      1.041      1.157
REMARK  Name = 
REMARK  2 active torsions:
REMARK  status: ('A' for Active; 'I' for Inactive)
REMARK    1  A    between atoms: C_2  and  C_15
REMARK    2  A    between atoms: N_3  and  C_4
REMARK                            x       y       z     vdW  Elec       q    Type
REMARK                         _______ _______ _______ _____ _____    ______ ____
ROOT
ATOM      1  C   UNL     1       3.009   6.767  18.535  0.00  0.00    +0.000 A 
ATOM      2  C   UNL     1       3.935   7.068  17.531  0.00  0.00    +0.000 A 
ATOM      3  C   UNL     1       4.643   6.059  16.883  0.00  0.00    +0.000 A 
ATOM      4  C   UNL     1       4.424   4.724  17.212  0.00  0.00    +0.000 A 
ATOM      5  C   UNL     1       3.549   4.402  18.248  0.00  0.00    +0.000 A 
ATOM      6  C   UNL     1       2.853   5.421  18.914  0.00  0.00    +0.000 A 
ATOM      7 BR   UNL     1       1.664   4.917  20.310  0.00  0.00    +0.000 Br
ATOM      8  O   UNL     1       5.047   3.688  16.563  0.00  0.00    +0.000 OA
ATOM      9  C   UNL     1       5.654   4.127  15.337  0.00  0.00    +0.000 C 
ATOM     10  C   UNL     1       6.424   5.418  15.554  0.00  0.00    +0.000 C 
ATOM     11  O   UNL     1       5.532   6.471  15.922  0.00  0.00    +0.000 OA
ENDROOT
BRANCH   1  14
ATOM     12  O   UNL     1       1.776   9.091  17.333  0.00  0.00    +0.000 OA
ATOM     13  C   UNL     1       1.722   8.907  18.547  0.00  0.00    +0.000 C 
ATOM     14  N   UNL     1       2.250   7.787  19.170  0.00  0.00    +0.000 N 
ATOM     15  H   UNL     1       1.965   7.618  20.130  0.00  0.00    +0.000 HD
BRANCH  13  16
ATOM     16  C   UNL     1       1.037   9.876  19.389  0.00  0.00    +0.000 A 
ATOM     17  C   UNL     1       0.212   9.554  20.455  0.00  0.00    +0.000 A 
ATOM     18  C   UNL     1      -0.378  10.694  21.059  0.00  0.00    +0.000 A 
ATOM     19  C   UNL     1       0.019  11.858  20.447  0.00  0.00    +0.000 A 
ATOM     20  S   UNL     1       1.115  11.565  19.159  0.00  0.00    +0.000 S 
ENDBRANCH  13  16
ENDBRANCH   1  14
TORSDOF 2
ENDMDL
MODEL 9
REMARK VINA RESULT:      -6.4      3.284      4.356
REMARK  Name = 
REMARK  2 active torsions:
REMARK  status: ('A' for Active; 'I' for Inactive)
REMARK    1  A    between atoms: C_2  and  C_15
REMARK    2  A    between atoms: N_3  and  C_4
REMARK                            x       y       z     vdW  Elec       q    Type
REMARK                         _______ _______ _______ _____ _____    ______ ____
ROOT
ATOM      1  C   UNL     1       1.758   7.406  20.252  0.00  0.00    +0.000 A 
ATOM      2  C   UNL     1       1.754   6.240  21.023  0.00  0.00    +0.000 A 
ATOM      3  C   UNL     1       2.239   5.039  20.512  0.00  0.00    +0.000 A 
ATOM      4  C   UNL     1       2.760   4.986  19.221  0.00  0.00    +0.000 A 
ATOM      5  C   UNL     1       2.722   6.121  18.413  0.00  0.00    +0.000 A 
ATOM      6  C   UNL     1       2.213   7.323  18.923  0.00  0.00    +0.000 A 
ATOM      7 BR   UNL     1       2.200   8.839  17.776  0.00  0.00    +0.000 Br
ATOM      8  O   UNL     1       3.309   3.846  18.689  0.00  0.00    +0.000 OA
ATOM      9  C   UNL     1       3.576   2.869  19.707  0.00  0.00    +0.000 C 
ATOM     10  C   UNL     1       2.389   2.735  20.645  0.00  0.00    +0.000 C 
ATOM     11  O   UNL     1       2.178   3.958  21.353  0.00  0.00    +0.000 OA
ENDROOT
BRANCH   1  14
ATOM     12  O   UNL     1      -0.766   7.985  21.540  0.00  0.00    +0.000 OA
ATOM     13  C   UNL     1       0.061   8.874  21.348  0.00  0.00    +0.000 C 
ATOM     14  N   UNL     1       1.305   8.644  20.782  0.00  0.00    +0.000 N 
ATOM     15  H   UNL     1       1.993   9.387  20.868  0.00  0.00    +0.000 HD
BRANCH  13  16
ATOM     16  C   UNL     1      -0.240  10.235  21.765  0.00  0.00    +0.000 A 
ATOM     17  C   UNL     1      -0.946  10.574  22.908  0.00  0.00    +0.000 A 
ATOM     18  C   UNL     1      -1.151  11.972  23.035  0.00  0.00    +0.000 A 
ATOM     19  C   UNL     1      -0.588  12.666  21.992  0.00  0.00    +0.000 A 
ATOM     20  S   UNL     1       0.200  11.625  20.878  0.00  0.00    +0.000 S 
ENDBRANCH  13  16
ENDBRANCH   1  14
TORSDOF 2
ENDMDL
