MODEL 1
REMARK VINA RESULT:      -8.7      0.000      0.000
REMARK  Name = 
REMARK  4 active torsions:
REMARK  status: ('A' for Active; 'I' for Inactive)
REMARK    1  A    between atoms: C_2  and  C_16
REMARK    2  A    between atoms: N_3  and  C_4
REMARK    3  A    between atoms: C_9  and  N_10
REMARK    4  A    between atoms: C_19  and  C_20
REMARK                            x       y       z     vdW  Elec       q    Type
REMARK                         _______ _______ _______ _____ _____    ______ ____
ROOT
ATOM      1  O   UNL     1       2.521   6.488  20.180  0.00  0.00    +0.000 OA
ATOM      2  C   UNL     1       2.310   6.888  19.035  0.00  0.00    +0.000 C 
ATOM      3  N   UNL     1       2.414   6.069  17.917  0.00  0.00    +0.000 N 
ATOM      4  H   UNL     1       1.932   6.367  17.082  0.00  0.00    +0.000 HD
ENDROOT
BRANCH   3   5
ATOM      5  C   UNL     1       2.734   4.695  18.072  0.00  0.00    +0.000 A 
ATOM      6  C   UNL     1       1.652   3.807  18.256  0.00  0.00    +0.000 A 
ATOM      7  C   UNL     1       1.843   2.433  18.383  0.00  0.00    +0.000 A 
ATOM      8  C   UNL     1       3.124   1.919  18.296  0.00  0.00    +0.000 A 
ATOM      9  C   UNL     1       4.203   2.791  18.143  0.00  0.00    +0.000 A 
ATOM     10  C   UNL     1       4.054   4.199  18.075  0.00  0.00    +0.000 A 
BRANCH  10  11
ATOM     11  N   UNL     1       5.240   4.934  17.961  0.00  0.00    +0.000 N 
ATOM     12  C   UNL     1       5.512   5.806  16.819  0.00  0.00    +0.000 C 
ATOM     13  C   UNL     1       7.019   6.048  16.701  0.00  0.00    +0.000 C 
ATOM     14  C   UNL     1       7.608   6.563  18.013  0.00  0.00    +0.000 C 
ATOM     15  C   UNL     1       7.255   5.631  19.167  0.00  0.00    +0.000 C 
ATOM     16  C   UNL     1       5.746   5.419  19.256  0.00  0.00    +0.000 C 
ENDBRANCH  10  11
ENDBRANCH   3   5
BRANCH   2  17
ATOM     17  C   UNL     1       1.883   8.262  18.816  0.00  0.00    +0.000 A 
ATOM     18  C   UNL     1       2.397   9.163  17.902  0.00  0.00    +0.000 A 
ATOM     19  C   UNL     1       1.655  10.346  18.032  0.00  0.00    +0.000 A 
ATOM     20  C   UNL     1       0.720  10.124  19.027  0.00  0.00    +0.000 A 
ATOM     21  O   UNL     1       0.854   8.844  19.507  0.00  0.00    +0.000 OA
BRANCH  20  22
ATOM     22  C   UNL     1      -0.365  10.956  19.551  0.00  0.00    +0.000 A 
ATOM     23  C   UNL     1      -0.232  11.451  20.867  0.00  0.00    +0.000 A 
ATOM     24  C   UNL     1      -1.215  12.256  21.443  0.00  0.00    +0.000 A 
ATOM     25 CL   UNL     1      -1.010  12.843  23.047  0.00  0.00    +0.000 Cl
ATOM     26  C   UNL     1      -2.358  12.585  20.727  0.00  0.00    +0.000 A 
ATOM     27  C   UNL     1      -2.522  12.089  19.433  0.00  0.00    +0.000 A 
ATOM     28  C   UNL     1      -1.539  11.275  18.846  0.00  0.00    +0.000 A 
ATOM     29 CL   UNL     1      -1.893  10.658  17.268  0.00  0.00    +0.000 Cl
ENDBRANCH  20  22
ENDBRANCH   2  17
TORSDOF 4
ENDMDL
MODEL 2
REMARK VINA RESULT:      -8.7      1.466      1.625
REMARK  Name = 
REMARK  4 active torsions:
REMARK  status: ('A' for Active; 'I' for Inactive)
REMARK    1  A    between atoms: C_2  and  C_16
REMARK    2  A    between atoms: N_3  and  C_4
REMARK    3  A    between atoms: C_9  and  N_10
REMARK    4  A    between atoms: C_19  and  C_20
REMARK                            x       y       z     vdW  Elec       q    Type
REMARK                         _______ _______ _______ _____ _____    ______ ____
ROOT
ATOM      1  O   UNL     1       2.286   6.422  20.285  0.00  0.00    +0.000 OA
ATOM      2  C   UNL     1       2.190   6.909  19.159  0.00  0.00    +0.000 C 
ATOM      3  N   UNL     1       2.367   6.166  17.997  0.00  0.00    +0.000 N 
ATOM      4  H   UNL     1       1.969   6.540  17.148  0.00  0.00    +0.000 HD
ENDROOT
BRANCH   3   5
ATOM      5  C   UNL     1       2.629   4.774  18.077  0.00  0.00    +0.000 A 
ATOM      6  C   UNL     1       1.512   3.925  18.235  0.00  0.00    +0.000 A 
ATOM      7  C   UNL     1       1.645   2.539  18.290  0.00  0.00    +0.000 A 
ATOM      8  C   UNL     1       2.902   1.976  18.156  0.00  0.00    +0.000 A 
ATOM      9  C   UNL     1       4.015   2.808  18.029  0.00  0.00    +0.000 A 
ATOM     10  C   UNL     1       3.926   4.223  18.034  0.00  0.00    +0.000 A 
BRANCH  10  11
ATOM     11  N   UNL     1       5.142   4.912  17.938  0.00  0.00    +0.000 N 
ATOM     12  C   UNL     1       5.489   5.721  16.770  0.00  0.00    +0.000 C 
ATOM     13  C   UNL     1       7.008   5.906  16.705  0.00  0.00    +0.000 C 
ATOM     14  C   UNL     1       7.561   6.461  18.016  0.00  0.00    +0.000 C 
ATOM     15  C   UNL     1       7.129   5.595  19.195  0.00  0.00    +0.000 C 
ATOM     16  C   UNL     1       5.611   5.438  19.229  0.00  0.00    +0.000 C 
ENDBRANCH  10  11
ENDBRANCH   3   5
BRANCH   2  17
ATOM     17  C   UNL     1       1.827   8.309  19.005  0.00  0.00    +0.000 A 
ATOM     18  C   UNL     1       1.766   9.035  17.829  0.00  0.00    +0.000 A 
ATOM     19  C   UNL     1       1.344  10.328  18.168  0.00  0.00    +0.000 A 
ATOM     20  C   UNL     1       1.168  10.345  19.539  0.00  0.00    +0.000 A 
ATOM     21  O   UNL     1       1.460   9.106  20.056  0.00  0.00    +0.000 OA
BRANCH  20  22
ATOM     22  C   UNL     1       0.678  11.383  20.449  0.00  0.00    +0.000 A 
ATOM     23  C   UNL     1      -0.384  11.043  21.317  0.00  0.00    +0.000 A 
ATOM     24  C   UNL     1      -0.907  11.969  22.220  0.00  0.00    +0.000 A 
ATOM     25 CL   UNL     1      -2.196  11.512  23.263  0.00  0.00    +0.000 Cl
ATOM     26  C   UNL     1      -0.392  13.256  22.280  0.00  0.00    +0.000 A 
ATOM     27  C   UNL     1       0.642  13.622  21.417  0.00  0.00    +0.000 A 
ATOM     28  C   UNL     1       1.173  12.698  20.502  0.00  0.00    +0.000 A 
ATOM     29 CL   UNL     1       2.398  13.292  19.432  0.00  0.00    +0.000 Cl
ENDBRANCH  20  22
ENDBRANCH   2  17
TORSDOF 4
ENDMDL
MODEL 3
REMARK VINA RESULT:      -8.6      1.615      1.716
REMARK  Name = 
REMARK  4 active torsions:
REMARK  status: ('A' for Active; 'I' for Inactive)
REMARK    1  A    between atoms: C_2  and  C_16
REMARK    2  A    between atoms: N_3  and  C_4
REMARK    3  A    between atoms: C_9  and  N_10
REMARK    4  A    between atoms: C_19  and  C_20
REMARK                            x       y       z     vdW  Elec       q    Type
REMARK                         _______ _______ _______ _____ _____    ______ ____
ROOT
ATOM      1  O   UNL     1       2.341   6.263  20.374  0.00  0.00    +0.000 OA
ATOM      2  C   UNL     1       2.227   6.842  19.294  0.00  0.00    +0.000 C 
ATOM      3  N   UNL     1       2.437   6.212  18.073  0.00  0.00    +0.000 N 
ATOM      4  H   UNL     1       2.026   6.642  17.257  0.00  0.00    +0.000 HD
ENDROOT
BRANCH   3   5
ATOM      5  C   UNL     1       2.756   4.830  18.033  0.00  0.00    +0.000 A 
ATOM      6  C   UNL     1       1.675   3.925  18.099  0.00  0.00    +0.000 A 
ATOM      7  C   UNL     1       1.865   2.547  18.032  0.00  0.00    +0.000 A 
ATOM      8  C   UNL     1       3.145   2.049  17.867  0.00  0.00    +0.000 A 
ATOM      9  C   UNL     1       4.225   2.934  17.830  0.00  0.00    +0.000 A 
ATOM     10  C   UNL     1       4.076   4.338  17.960  0.00  0.00    +0.000 A 
BRANCH  10  11
ATOM     11  N   UNL     1       5.262   5.082  17.943  0.00  0.00    +0.000 N 
ATOM     12  C   UNL     1       5.535   6.092  16.922  0.00  0.00    +0.000 C 
ATOM     13  C   UNL     1       7.042   6.347  16.837  0.00  0.00    +0.000 C 
ATOM     14  C   UNL     1       7.629   6.691  18.205  0.00  0.00    +0.000 C 
ATOM     15  C   UNL     1       7.275   5.619  19.230  0.00  0.00    +0.000 C 
ATOM     16  C   UNL     1       5.766   5.397  19.289  0.00  0.00    +0.000 C 
ENDBRANCH  10  11
ENDBRANCH   3   5
BRANCH   2  17
ATOM     17  C   UNL     1       1.806   8.234  19.260  0.00  0.00    +0.000 A 
ATOM     18  C   UNL     1       1.849   9.097  18.180  0.00  0.00    +0.000 A 
ATOM     19  C   UNL     1       1.315  10.320  18.612  0.00  0.00    +0.000 A 
ATOM     20  C   UNL     1       0.973  10.160  19.942  0.00  0.00    +0.000 A 
ATOM     21  O   UNL     1       1.269   8.879  20.342  0.00  0.00    +0.000 OA
BRANCH  20  22
ATOM     22  C   UNL     1       0.317  11.055  20.897  0.00  0.00    +0.000 A 
ATOM     23  C   UNL     1       0.467  12.445  20.700  0.00  0.00    +0.000 A 
ATOM     24  C   UNL     1      -0.130  13.369  21.559  0.00  0.00    +0.000 A 
ATOM     25 CL   UNL     1       0.074  15.054  21.279  0.00  0.00    +0.000 Cl
ATOM     26  C   UNL     1      -0.887  12.933  22.638  0.00  0.00    +0.000 A 
ATOM     27  C   UNL     1      -1.031  11.564  22.866  0.00  0.00    +0.000 A 
ATOM     28  C   UNL     1      -0.431  10.627  22.009  0.00  0.00    +0.000 A 
ATOM     29 CL   UNL     1      -0.616   8.961  22.440  0.00  0.00    +0.000 Cl
ENDBRANCH  20  22
ENDBRANCH   2  17
TORSDOF 4
ENDMDL
MODEL 4
REMARK VINA RESULT:      -8.6      0.690      1.207
REMARK  Name = 
REMARK  4 active torsions:
REMARK  status: ('A' for Active; 'I' for Inactive)
REMARK    1  A    between atoms: C_2  and  C_16
REMARK    2  A    between atoms: N_3  and  C_4
REMARK    3  A    between atoms: C_9  and  N_10
REMARK    4  A    between atoms: C_19  and  C_20
REMARK                            x       y       z     vdW  Elec       q    Type
REMARK                         _______ _______ _______ _____ _____    ______ ____
ROOT
ATOM      1  O   UNL     1       2.870   6.378  20.038  0.00  0.00    +0.000 OA
ATOM      2  C   UNL     1       2.389   6.706  18.954  0.00  0.00    +0.000 C 
ATOM      3  N   UNL     1       2.145   5.798  17.930  0.00  0.00    +0.000 N 
ATOM      4  H   UNL     1       1.478   6.071  17.223  0.00  0.00    +0.000 HD
ENDROOT
BRANCH   3   5
ATOM      5  C   UNL     1       2.410   4.418  18.127  0.00  0.00    +0.000 A 
ATOM      6  C   UNL     1       1.350   3.631  18.627  0.00  0.00    +0.000 A 
ATOM      7  C   UNL     1       1.484   2.259  18.825  0.00  0.00    +0.000 A 
ATOM      8  C   UNL     1       2.678   1.643  18.496  0.00  0.00    +0.000 A 
ATOM      9  C   UNL     1       3.742   2.416  18.029  0.00  0.00    +0.000 A 
ATOM     10  C   UNL     1       3.664   3.824  17.874  0.00  0.00    +0.000 A 
BRANCH  10  11
ATOM     11  N   UNL     1       4.833   4.455  17.433  0.00  0.00    +0.000 N 
ATOM     12  C   UNL     1       5.946   4.752  18.332  0.00  0.00    +0.000 C 
ATOM     13  C   UNL     1       6.813   5.863  17.732  0.00  0.00    +0.000 C 
ATOM     14  C   UNL     1       7.254   5.522  16.310  0.00  0.00    +0.000 C 
ATOM     15  C   UNL     1       6.050   5.184  15.437  0.00  0.00    +0.000 C 
ATOM     16  C   UNL     1       5.216   4.071  16.065  0.00  0.00    +0.000 C 
ENDBRANCH  10  11
ENDBRANCH   3   5
BRANCH   2  17
ATOM     17  C   UNL     1       2.003   8.089  18.723  0.00  0.00    +0.000 A 
ATOM     18  C   UNL     1       2.565   8.977  17.824  0.00  0.00    +0.000 A 
ATOM     19  C   UNL     1       1.849  10.179  17.934  0.00  0.00    +0.000 A 
ATOM     20  C   UNL     1       0.882   9.981  18.901  0.00  0.00    +0.000 A 
ATOM     21  O   UNL     1       0.970   8.698  19.385  0.00  0.00    +0.000 OA
BRANCH  20  22
ATOM     22  C   UNL     1      -0.196  10.840  19.395  0.00  0.00    +0.000 A 
ATOM     23  C   UNL     1      -0.005  11.479  20.640  0.00  0.00    +0.000 A 
ATOM     24  C   UNL     1      -0.978  12.320  21.181  0.00  0.00    +0.000 A 
ATOM     25 CL   UNL     1      -0.701  13.084  22.697  0.00  0.00    +0.000 Cl
ATOM     26  C   UNL     1      -2.168  12.542  20.502  0.00  0.00    +0.000 A 
ATOM     27  C   UNL     1      -2.389  11.903  19.281  0.00  0.00    +0.000 A 
ATOM     28  C   UNL     1      -1.417  11.052  18.730  0.00  0.00    +0.000 A 
ATOM     29 CL   UNL     1      -1.840  10.257  17.251  0.00  0.00    +0.000 Cl
ENDBRANCH  20  22
ENDBRANCH   2  17
TORSDOF 4
ENDMDL
MODEL 5
REMARK VINA RESULT:      -8.4      0.752      1.887
REMARK  Name = 
REMARK  4 active torsions:
REMARK  status: ('A' for Active; 'I' for Inactive)
REMARK    1  A    between atoms: C_2  and  C_16
REMARK    2  A    between atoms: N_3  and  C_4
REMARK    3  A    between atoms: C_9  and  N_10
REMARK    4  A    between atoms: C_19  and  C_20
REMARK                            x       y       z     vdW  Elec       q    Type
REMARK                         _______ _______ _______ _____ _____    ______ ____
ROOT
ATOM      1  O   UNL     1       2.539   6.491  20.089  0.00  0.00    +0.000 OA
ATOM      2  C   UNL     1       2.316   6.861  18.937  0.00  0.00    +0.000 C 
ATOM      3  N   UNL     1       2.401   6.010  17.840  0.00  0.00    +0.000 N 
ATOM      4  H   UNL     1       1.909   6.289  17.004  0.00  0.00    +0.000 HD
ENDROOT
BRANCH   3   5
ATOM      5  C   UNL     1       2.716   4.640  18.028  0.00  0.00    +0.000 A 
ATOM      6  C   UNL     1       1.629   3.757  18.211  0.00  0.00    +0.000 A 
ATOM      7  C   UNL     1       1.816   2.386  18.368  0.00  0.00    +0.000 A 
ATOM      8  C   UNL     1       3.098   1.868  18.315  0.00  0.00    +0.000 A 
ATOM      9  C   UNL     1       4.181   2.736  18.164  0.00  0.00    +0.000 A 
ATOM     10  C   UNL     1       4.035   4.143  18.065  0.00  0.00    +0.000 A 
BRANCH  10  11
ATOM     11  N   UNL     1       5.224   4.874  17.958  0.00  0.00    +0.000 N 
ATOM     12  C   UNL     1       5.515   5.726  16.806  0.00  0.00    +0.000 C 
ATOM     13  C   UNL     1       7.024   5.964  16.708  0.00  0.00    +0.000 C 
ATOM     14  C   UNL     1       7.593   6.500  18.020  0.00  0.00    +0.000 C 
ATOM     15  C   UNL     1       7.220   5.587  19.184  0.00  0.00    +0.000 C 
ATOM     16  C   UNL     1       5.710   5.379  19.252  0.00  0.00    +0.000 C 
ENDBRANCH  10  11
ENDBRANCH   3   5
BRANCH   2  17
ATOM     17  C   UNL     1       1.893   8.230  18.685  0.00  0.00    +0.000 A 
ATOM     18  C   UNL     1       2.552   9.187  17.935  0.00  0.00    +0.000 A 
ATOM     19  C   UNL     1       1.755  10.341  17.952  0.00  0.00    +0.000 A 
ATOM     20  C   UNL     1       0.642  10.047  18.718  0.00  0.00    +0.000 A 
ATOM     21  O   UNL     1       0.721   8.751  19.166  0.00  0.00    +0.000 OA
BRANCH  20  22
ATOM     22  C   UNL     1      -0.559  10.823  19.034  0.00  0.00    +0.000 A 
ATOM     23  C   UNL     1      -1.596  10.842  18.077  0.00  0.00    +0.000 A 
ATOM     24  C   UNL     1      -2.778  11.550  18.300  0.00  0.00    +0.000 A 
ATOM     25 CL   UNL     1      -4.019  11.541  17.109  0.00  0.00    +0.000 Cl
ATOM     26  C   UNL     1      -2.955  12.261  19.479  0.00  0.00    +0.000 A 
ATOM     27  C   UNL     1      -1.934  12.276  20.430  0.00  0.00    +0.000 A 
ATOM     28  C   UNL     1      -0.740  11.569  20.213  0.00  0.00    +0.000 A 
ATOM     29 CL   UNL     1       0.481  11.728  21.430  0.00  0.00    +0.000 Cl
ENDBRANCH  20  22
ENDBRANCH   2  17
TORSDOF 4
ENDMDL
MODEL 6
REMARK VINA RESULT:      -8.4      1.715      2.050
REMARK  Name = 
REMARK  4 active torsions:
REMARK  status: ('A' for Active; 'I' for Inactive)
REMARK    1  A    between atoms: C_2  and  C_16
REMARK    2  A    between atoms: N_3  and  C_4
REMARK    3  A    between atoms: C_9  and  N_10
REMARK    4  A    between atoms: C_19  and  C_20
REMARK                            x       y       z     vdW  Elec       q    Type
REMARK                         _______ _______ _______ _____ _____    ______ ____
ROOT
ATOM      1  O   UNL     1       3.246   6.188  19.995  0.00  0.00    +0.000 OA
ATOM      2  C   UNL     1       2.505   6.532  19.075  0.00  0.00    +0.000 C 
ATOM      3  N   UNL     1       2.034   5.645  18.113  0.00  0.00    +0.000 N 
ATOM      4  H   UNL     1       1.207   5.918  17.602  0.00  0.00    +0.000 HD
ENDROOT
BRANCH   3   5
ATOM      5  C   UNL     1       2.370   4.269  18.191  0.00  0.00    +0.000 A 
ATOM      6  C   UNL     1       1.374   3.398  18.684  0.00  0.00    +0.000 A 
ATOM      7  C   UNL     1       1.578   2.023  18.772  0.00  0.00    +0.000 A 
ATOM      8  C   UNL     1       2.778   1.490  18.337  0.00  0.00    +0.000 A 
ATOM      9  C   UNL     1       3.780   2.345  17.875  0.00  0.00    +0.000 A 
ATOM     10  C   UNL     1       3.633   3.754  17.831  0.00  0.00    +0.000 A 
BRANCH  10  11
ATOM     11  N   UNL     1       4.747   4.471  17.379  0.00  0.00    +0.000 N 
ATOM     12  C   UNL     1       5.921   4.700  18.220  0.00  0.00    +0.000 C 
ATOM     13  C   UNL     1       6.710   5.900  17.690  0.00  0.00    +0.000 C 
ATOM     14  C   UNL     1       7.045   5.740  16.208  0.00  0.00    +0.000 C 
ATOM     15  C   UNL     1       5.784   5.465  15.396  0.00  0.00    +0.000 C 
ATOM     16  C   UNL     1       5.029   4.260  15.950  0.00  0.00    +0.000 C 
ENDBRANCH  10  11
ENDBRANCH   3   5
BRANCH   2  17
ATOM     17  C   UNL     1       2.044   7.909  18.992  0.00  0.00    +0.000 A 
ATOM     18  C   UNL     1       2.013   8.717  17.870  0.00  0.00    +0.000 A 
ATOM     19  C   UNL     1       1.465   9.946  18.266  0.00  0.00    +0.000 A 
ATOM     20  C   UNL     1       1.188   9.844  19.617  0.00  0.00    +0.000 A 
ATOM     21  O   UNL     1       1.538   8.593  20.065  0.00  0.00    +0.000 OA
BRANCH  20  22
ATOM     22  C   UNL     1       0.551  10.769  20.557  0.00  0.00    +0.000 A 
ATOM     23  C   UNL     1       0.802  12.148  20.388  0.00  0.00    +0.000 A 
ATOM     24  C   UNL     1       0.230  13.099  21.235  0.00  0.00    +0.000 A 
ATOM     25 CL   UNL     1       0.556  14.770  20.990  0.00  0.00    +0.000 Cl
ATOM     26  C   UNL     1      -0.602  12.701  22.273  0.00  0.00    +0.000 A 
ATOM     27  C   UNL     1      -0.846  11.341  22.473  0.00  0.00    +0.000 A 
ATOM     28  C   UNL     1      -0.272  10.378  21.628  0.00  0.00    +0.000 A 
ATOM     29 CL   UNL     1      -0.586   8.722  22.025  0.00  0.00    +0.000 Cl
ENDBRANCH  20  22
ENDBRANCH   2  17
TORSDOF 4
ENDMDL
MODEL 7
REMARK VINA RESULT:      -8.3      1.279      2.071
REMARK  Name = 
REMARK  4 active torsions:
REMARK  status: ('A' for Active; 'I' for Inactive)
REMARK    1  A    between atoms: C_2  and  C_16
REMARK    2  A    between atoms: N_3  and  C_4
REMARK    3  A    between atoms: C_9  and  N_10
REMARK    4  A    between atoms: C_19  and  C_20
REMARK                            x       y       z     vdW  Elec       q    Type
REMARK                         _______ _______ _______ _____ _____    ______ ____
ROOT
ATOM      1  O   UNL     1       2.940   6.290  20.239  0.00  0.00    +0.000 OA
ATOM      2  C   UNL     1       2.396   6.737  19.230  0.00  0.00    +0.000 C 
ATOM      3  N   UNL     1       2.232   5.992  18.067  0.00  0.00    +0.000 N 
ATOM      4  H   UNL     1       1.519   6.300  17.421  0.00  0.00    +0.000 HD
ENDROOT
BRANCH   3   5
ATOM      5  C   UNL     1       2.661   4.641  18.023  0.00  0.00    +0.000 A 
ATOM      6  C   UNL     1       1.659   3.652  18.134  0.00  0.00    +0.000 A 
ATOM      7  C   UNL     1       1.959   2.293  18.068  0.00  0.00    +0.000 A 
ATOM      8  C   UNL     1       3.268   1.900  17.858  0.00  0.00    +0.000 A 
ATOM      9  C   UNL     1       4.270   2.868  17.777  0.00  0.00    +0.000 A 
ATOM     10  C   UNL     1       4.013   4.257  17.904  0.00  0.00    +0.000 A 
BRANCH  10  11
ATOM     11  N   UNL     1       5.133   5.094  17.839  0.00  0.00    +0.000 N 
ATOM     12  C   UNL     1       6.426   4.712  18.404  0.00  0.00    +0.000 C 
ATOM     13  C   UNL     1       7.272   5.964  18.652  0.00  0.00    +0.000 C 
ATOM     14  C   UNL     1       7.388   6.820  17.392  0.00  0.00    +0.000 C 
ATOM     15  C   UNL     1       6.007   7.149  16.833  0.00  0.00    +0.000 C 
ATOM     16  C   UNL     1       5.198   5.877  16.594  0.00  0.00    +0.000 C 
ENDBRANCH  10  11
ENDBRANCH   3   5
BRANCH   2  17
ATOM     17  C   UNL     1       1.846   8.084  19.240  0.00  0.00    +0.000 A 
ATOM     18  C   UNL     1       1.977   9.051  18.260  0.00  0.00    +0.000 A 
ATOM     19  C   UNL     1       1.257  10.173  18.694  0.00  0.00    +0.000 A 
ATOM     20  C   UNL     1       0.719   9.851  19.926  0.00  0.00    +0.000 A 
ATOM     21  O   UNL     1       1.074   8.568  20.263  0.00  0.00    +0.000 OA
BRANCH  20  22
ATOM     22  C   UNL     1      -0.175  10.586  20.825  0.00  0.00    +0.000 A 
ATOM     23  C   UNL     1      -1.023  11.558  20.252  0.00  0.00    +0.000 A 
ATOM     24  C   UNL     1      -1.910  12.299  21.034  0.00  0.00    +0.000 A 
ATOM     25 CL   UNL     1      -2.931  13.470  20.295  0.00  0.00    +0.000 Cl
ATOM     26  C   UNL     1      -1.971  12.096  22.406  0.00  0.00    +0.000 A 
ATOM     27  C   UNL     1      -1.126  11.156  22.998  0.00  0.00    +0.000 A 
ATOM     28  C   UNL     1      -0.228  10.408  22.219  0.00  0.00    +0.000 A 
ATOM     29 CL   UNL     1       0.822   9.331  23.076  0.00  0.00    +0.000 Cl
ENDBRANCH  20  22
ENDBRANCH   2  17
TORSDOF 4
ENDMDL
MODEL 8
REMARK VINA RESULT:      -8.3      1.075      2.216
REMARK  Name = 
REMARK  4 active torsions:
REMARK  status: ('A' for Active; 'I' for Inactive)
REMARK    1  A    between atoms: C_2  and  C_16
REMARK    2  A    between atoms: N_3  and  C_4
REMARK    3  A    between atoms: C_9  and  N_10
REMARK    4  A    between atoms: C_19  and  C_20
REMARK                            x       y       z     vdW  Elec       q    Type
REMARK                         _______ _______ _______ _____ _____    ______ ____
ROOT
ATOM      1  O   UNL     1       3.044   6.451  19.862  0.00  0.00    +0.000 OA
ATOM      2  C   UNL     1       2.451   6.740  18.823  0.00  0.00    +0.000 C 
ATOM      3  N   UNL     1       2.090   5.794  17.870  0.00  0.00    +0.000 N 
ATOM      4  H   UNL     1       1.353   6.046  17.229  0.00  0.00    +0.000 HD
ENDROOT
BRANCH   3   5
ATOM      5  C   UNL     1       2.364   4.420  18.096  0.00  0.00    +0.000 A 
ATOM      6  C   UNL     1       1.309   3.638  18.614  0.00  0.00    +0.000 A 
ATOM      7  C   UNL     1       1.452   2.271  18.841  0.00  0.00    +0.000 A 
ATOM      8  C   UNL     1       2.650   1.655  18.524  0.00  0.00    +0.000 A 
ATOM      9  C   UNL     1       3.708   2.425  18.039  0.00  0.00    +0.000 A 
ATOM     10  C   UNL     1       3.622   3.828  17.855  0.00  0.00    +0.000 A 
BRANCH  10  11
ATOM     11  N   UNL     1       4.786   4.458  17.399  0.00  0.00    +0.000 N 
ATOM     12  C   UNL     1       5.961   4.636  18.251  0.00  0.00    +0.000 C 
ATOM     13  C   UNL     1       6.833   5.767  17.698  0.00  0.00    +0.000 C 
ATOM     14  C   UNL     1       7.177   5.539  16.227  0.00  0.00    +0.000 C 
ATOM     15  C   UNL     1       5.912   5.320  15.403  0.00  0.00    +0.000 C 
ATOM     16  C   UNL     1       5.074   4.184  15.982  0.00  0.00    +0.000 C 
ENDBRANCH  10  11
ENDBRANCH   3   5
BRANCH   2  17
ATOM     17  C   UNL     1       2.053   8.118  18.575  0.00  0.00    +0.000 A 
ATOM     18  C   UNL     1       2.719   9.058  17.810  0.00  0.00    +0.000 A 
ATOM     19  C   UNL     1       1.948  10.229  17.839  0.00  0.00    +0.000 A 
ATOM     20  C   UNL     1       0.843   9.961  18.626  0.00  0.00    +0.000 A 
ATOM     21  O   UNL     1       0.902   8.665  19.076  0.00  0.00    +0.000 OA
BRANCH  20  22
ATOM     22  C   UNL     1      -0.335  10.764  18.963  0.00  0.00    +0.000 A 
ATOM     23  C   UNL     1      -1.517  10.531  18.226  0.00  0.00    +0.000 A 
ATOM     24  C   UNL     1      -2.687  11.245  18.486  0.00  0.00    +0.000 A 
ATOM     25 CL   UNL     1      -4.107  10.925  17.569  0.00  0.00    +0.000 Cl
ATOM     26  C   UNL     1      -2.709  12.214  19.480  0.00  0.00    +0.000 A 
ATOM     27  C   UNL     1      -1.546  12.478  20.206  0.00  0.00    +0.000 A 
ATOM     28  C   UNL     1      -0.363  11.765  19.949  0.00  0.00    +0.000 A 
ATOM     29 CL   UNL     1       1.031  12.237  20.860  0.00  0.00    +0.000 Cl
ENDBRANCH  20  22
ENDBRANCH   2  17
TORSDOF 4
ENDMDL
MODEL 9
REMARK VINA RESULT:      -8.2      1.333      1.623
REMARK  Name = 
REMARK  4 active torsions:
REMARK  status: ('A' for Active; 'I' for Inactive)
REMARK    1  A    between atoms: C_2  and  C_16
REMARK    2  A    between atoms: N_3  and  C_4
REMARK    3  A    between atoms: C_9  and  N_10
REMARK    4  A    between atoms: C_19  and  C_20
REMARK                            x       y       z     vdW  Elec       q    Type
REMARK                         _______ _______ _______ _____ _____    ______ ____
ROOT
ATOM      1  O   UNL     1       1.945   5.949  17.835  0.00  0.00    +0.000 OA
ATOM      2  C   UNL     1       2.234   6.728  18.743  0.00  0.00    +0.000 C 
ATOM      3  N   UNL     1       2.857   6.321  19.918  0.00  0.00    +0.000 N 
ATOM      4  H   UNL     1       3.336   7.030  20.453  0.00  0.00    +0.000 HD
ENDROOT
BRANCH   3   5
ATOM      5  C   UNL     1       3.227   4.962  20.091  0.00  0.00    +0.000 A 
ATOM      6  C   UNL     1       2.419   4.186  20.950  0.00  0.00    +0.000 A 
ATOM      7  C   UNL     1       2.666   2.833  21.166  0.00  0.00    +0.000 A 
ATOM      8  C   UNL     1       3.713   2.222  20.500  0.00  0.00    +0.000 A 
ATOM      9  C   UNL     1       4.536   2.987  19.671  0.00  0.00    +0.000 A 
ATOM     10  C   UNL     1       4.355   4.379  19.476  0.00  0.00    +0.000 A 
BRANCH  10  11
ATOM     11  N   UNL     1       5.291   5.006  18.645  0.00  0.00    +0.000 N 
ATOM     12  C   UNL     1       6.647   5.320  19.094  0.00  0.00    +0.000 C 
ATOM     13  C   UNL     1       7.241   6.423  18.214  0.00  0.00    +0.000 C 
ATOM     14  C   UNL     1       7.160   6.060  16.732  0.00  0.00    +0.000 C 
ATOM     15  C   UNL     1       5.730   5.705  16.339  0.00  0.00    +0.000 C 
ATOM     16  C   UNL     1       5.176   4.601  17.235  0.00  0.00    +0.000 C 
ENDBRANCH  10  11
ENDBRANCH   3   5
BRANCH   2  17
ATOM     17  C   UNL     1       1.970   8.150  18.588  0.00  0.00    +0.000 A 
ATOM     18  C   UNL     1       2.639   9.043  17.771  0.00  0.00    +0.000 A 
ATOM     19  C   UNL     1       2.017  10.289  17.932  0.00  0.00    +0.000 A 
ATOM     20  C   UNL     1       0.996  10.112  18.846  0.00  0.00    +0.000 A 
ATOM     21  O   UNL     1       0.960   8.799  19.248  0.00  0.00    +0.000 OA
BRANCH  20  22
ATOM     22  C   UNL     1      -0.031  11.025  19.354  0.00  0.00    +0.000 A 
ATOM     23  C   UNL     1       0.314  11.858  20.441  0.00  0.00    +0.000 A 
ATOM     24  C   UNL     1      -0.601  12.761  20.982  0.00  0.00    +0.000 A 
ATOM     25 CL   UNL     1      -0.137  13.763  22.302  0.00  0.00    +0.000 Cl
ATOM     26  C   UNL     1      -1.884  12.855  20.460  0.00  0.00    +0.000 A 
ATOM     27  C   UNL     1      -2.255  12.025  19.401  0.00  0.00    +0.000 A 
ATOM     28  C   UNL     1      -1.342  11.111  18.852  0.00  0.00    +0.000 A 
ATOM     29 CL   UNL     1      -1.943  10.083  17.595  0.00  0.00    +0.000 Cl
ENDBRANCH  20  22
ENDBRANCH   2  17
TORSDOF 4
ENDMDL
