MODEL 1
REMARK VINA RESULT:      -6.7      0.000      0.000
REMARK  Name = 
REMARK  13 active torsions:
REMARK  status: ('A' for Active; 'I' for Inactive)
REMARK    1  A    between atoms: C_1  and  C_2
REMARK    2  A    between atoms: C_2  and  C_3
REMARK    3  A    between atoms: C_3  and  C_4
REMARK    4  A    between atoms: C_4  and  C_5
REMARK    5  A    between atoms: C_5  and  C_6
REMARK    6  A    between atoms: C_6  and  C_7
REMARK    7  A    between atoms: C_7  and  N_8
REMARK    8  A    between atoms: N_11  and  C_12
REMARK    9  A    between atoms: C_12  and  C_13
REMARK   10  A    between atoms: C_13  and  C_15
REMARK   11  A    between atoms: C_18  and  N_19
REMARK   12  A    between atoms: N_19  and  S_20
REMARK   13  A    between atoms: S_20  and  C_21
REMARK                            x       y       z     vdW  Elec       q    Type
REMARK                         _______ _______ _______ _____ _____    ______ ____
ROOT
ATOM      1  C   UNL     1       2.904   5.263  19.041  0.00  0.00    +0.000 C 
ATOM      2  O   UNL     1       2.101   4.368  18.774  0.00  0.00    +0.000 OA
ENDROOT
BRANCH   1   3
ATOM      3  C   UNL     1       2.419   6.669  19.057  0.00  0.00    +0.000 A 
ATOM      4  C   UNL     1       1.808   7.128  20.232  0.00  0.00    +0.000 A 
ATOM      5  C   UNL     1       1.348   8.442  20.321  0.00  0.00    +0.000 A 
ATOM      6  C   UNL     1       1.494   9.300  19.235  0.00  0.00    +0.000 A 
ATOM      7  C   UNL     1       2.113   8.856  18.064  0.00  0.00    +0.000 A 
ATOM      8  C   UNL     1       2.571   7.536  17.970  0.00  0.00    +0.000 A 
BRANCH   6   9
ATOM      9  N   UNL     1       1.058  10.646  19.373  0.00  0.00    +0.000 N 
ATOM     10  H   UNL     1       1.391  11.151  20.197  0.00  0.00    +0.000 HD
BRANCH   9  11
ATOM     11  S   UNL     1      -0.591  10.957  19.155  0.00  0.00    +0.000 S 
ATOM     12  C   UNL     1      -0.549  12.559  18.378  0.00  0.00    +0.000 C 
ATOM     13  O   UNL     1      -1.152   9.991  18.234  0.00  0.00    +0.000 OA
ATOM     14  O   UNL     1      -1.123  11.120  20.490  0.00  0.00    +0.000 OA
ENDBRANCH   9  11
ENDBRANCH   6   9
ENDBRANCH   1   3
BRANCH   1  15
ATOM     15  C   UNL     1       4.385   5.001  19.291  0.00  0.00    +0.000 C 
BRANCH  15  19
ATOM     16  N   UNL     1       6.091   5.474  16.153  0.00  0.00    +0.000 N 
ATOM     17  C   UNL     1       6.834   6.332  16.934  0.00  0.00    +0.000 A 
ATOM     18  C   UNL     1       6.306   6.275  18.195  0.00  0.00    +0.000 A 
ATOM     19  N   UNL     1       5.250   5.374  18.150  0.00  0.00    +0.000 N 
ATOM     20  C   UNL     1       5.126   4.908  16.896  0.00  0.00    +0.000 A 
BRANCH  16  21
ATOM     21  C   UNL     1       6.289   5.198  14.730  0.00  0.00    +0.000 C 
BRANCH  21  22
ATOM     22  C   UNL     1       6.210   3.703  14.449  0.00  0.00    +0.000 C 
BRANCH  22  23
ATOM     23  C   UNL     1       6.123   3.442  12.954  0.00  0.00    +0.000 C 
BRANCH  23  24
ATOM     24  C   UNL     1       4.682   3.515  12.460  0.00  0.00    +0.000 C 
BRANCH  24  25
ATOM     25  C   UNL     1       4.657   3.544  10.936  0.00  0.00    +0.000 C 
BRANCH  25  27
ATOM     26  C   UNL     1       2.798   4.383   9.490  0.00  0.00    +0.000 C 
ATOM     27  C   UNL     1       3.267   3.250  10.386  0.00  0.00    +0.000 C 
ENDBRANCH  25  27
ENDBRANCH  24  25
ENDBRANCH  23  24
ENDBRANCH  22  23
ENDBRANCH  21  22
ENDBRANCH  16  21
ENDBRANCH  15  19
ENDBRANCH   1  15
TORSDOF 11
ENDMDL
MODEL 2
REMARK VINA RESULT:      -6.5      1.870      2.158
REMARK  Name = 
REMARK  13 active torsions:
REMARK  status: ('A' for Active; 'I' for Inactive)
REMARK    1  A    between atoms: C_1  and  C_2
REMARK    2  A    between atoms: C_2  and  C_3
REMARK    3  A    between atoms: C_3  and  C_4
REMARK    4  A    between atoms: C_4  and  C_5
REMARK    5  A    between atoms: C_5  and  C_6
REMARK    6  A    between atoms: C_6  and  C_7
REMARK    7  A    between atoms: C_7  and  N_8
REMARK    8  A    between atoms: N_11  and  C_12
REMARK    9  A    between atoms: C_12  and  C_13
REMARK   10  A    between atoms: C_13  and  C_15
REMARK   11  A    between atoms: C_18  and  N_19
REMARK   12  A    between atoms: N_19  and  S_20
REMARK   13  A    between atoms: S_20  and  C_21
REMARK                            x       y       z     vdW  Elec       q    Type
REMARK                         _______ _______ _______ _____ _____    ______ ____
ROOT
ATOM      1  C   UNL     1       3.326   7.490  17.767  0.00  0.00    +0.000 C 
ATOM      2  O   UNL     1       3.783   8.047  16.769  0.00  0.00    +0.000 OA
ENDROOT
BRANCH   1   3
ATOM      3  C   UNL     1       2.247   8.173  18.530  0.00  0.00    +0.000 A 
ATOM      4  C   UNL     1       2.008   7.737  19.841  0.00  0.00    +0.000 A 
ATOM      5  C   UNL     1       1.023   8.346  20.618  0.00  0.00    +0.000 A 
ATOM      6  C   UNL     1       0.272   9.391  20.087  0.00  0.00    +0.000 A 
ATOM      7  C   UNL     1       0.512   9.842  18.787  0.00  0.00    +0.000 A 
ATOM      8  C   UNL     1       1.496   9.229  18.002  0.00  0.00    +0.000 A 
BRANCH   6   9
ATOM      9  N   UNL     1      -0.692  10.023  20.919  0.00  0.00    +0.000 N 
ATOM     10  H   UNL     1      -1.447  10.522  20.445  0.00  0.00    +0.000 HD
BRANCH   9  11
ATOM     11  S   UNL     1      -0.115  10.969  22.199  0.00  0.00    +0.000 S 
ATOM     12  C   UNL     1      -1.457  12.121  22.419  0.00  0.00    +0.000 C 
ATOM     13  O   UNL     1       0.017  10.153  23.387  0.00  0.00    +0.000 OA
ATOM     14  O   UNL     1       1.011  11.693  21.654  0.00  0.00    +0.000 OA
ENDBRANCH   9  11
ENDBRANCH   6   9
ENDBRANCH   1   3
BRANCH   1  15
ATOM     15  C   UNL     1       3.861   6.163  18.294  0.00  0.00    +0.000 C 
BRANCH  15  19
ATOM     16  N   UNL     1       6.203   5.087  15.776  0.00  0.00    +0.000 N 
ATOM     17  C   UNL     1       6.838   4.583  16.890  0.00  0.00    +0.000 A 
ATOM     18  C   UNL     1       6.063   4.912  17.968  0.00  0.00    +0.000 A 
ATOM     19  N   UNL     1       4.965   5.608  17.479  0.00  0.00    +0.000 N 
ATOM     20  C   UNL     1       5.076   5.716  16.144  0.00  0.00    +0.000 A 
BRANCH  16  21
ATOM     21  C   UNL     1       6.656   4.975  14.389  0.00  0.00    +0.000 C 
BRANCH  21  22
ATOM     22  C   UNL     1       6.323   3.604  13.815  0.00  0.00    +0.000 C 
BRANCH  22  23
ATOM     23  C   UNL     1       6.279   3.653  12.297  0.00  0.00    +0.000 C 
BRANCH  23  24
ATOM     24  C   UNL     1       5.212   2.717  11.741  0.00  0.00    +0.000 C 
BRANCH  24  25
ATOM     25  C   UNL     1       3.910   3.481  11.528  0.00  0.00    +0.000 C 
BRANCH  25  27
ATOM     26  C   UNL     1       2.845   4.407   9.464  0.00  0.00    +0.000 C 
ATOM     27  C   UNL     1       3.266   3.141  10.189  0.00  0.00    +0.000 C 
ENDBRANCH  25  27
ENDBRANCH  24  25
ENDBRANCH  23  24
ENDBRANCH  22  23
ENDBRANCH  21  22
ENDBRANCH  16  21
ENDBRANCH  15  19
ENDBRANCH   1  15
TORSDOF 11
ENDMDL
MODEL 3
REMARK VINA RESULT:      -6.4      1.995      2.924
REMARK  Name = 
REMARK  13 active torsions:
REMARK  status: ('A' for Active; 'I' for Inactive)
REMARK    1  A    between atoms: C_1  and  C_2
REMARK    2  A    between atoms: C_2  and  C_3
REMARK    3  A    between atoms: C_3  and  C_4
REMARK    4  A    between atoms: C_4  and  C_5
REMARK    5  A    between atoms: C_5  and  C_6
REMARK    6  A    between atoms: C_6  and  C_7
REMARK    7  A    between atoms: C_7  and  N_8
REMARK    8  A    between atoms: N_11  and  C_12
REMARK    9  A    between atoms: C_12  and  C_13
REMARK   10  A    between atoms: C_13  and  C_15
REMARK   11  A    between atoms: C_18  and  N_19
REMARK   12  A    between atoms: N_19  and  S_20
REMARK   13  A    between atoms: S_20  and  C_21
REMARK                            x       y       z     vdW  Elec       q    Type
REMARK                         _______ _______ _______ _____ _____    ______ ____
ROOT
ATOM      1  C   UNL     1       1.397   2.982  18.496  0.00  0.00    +0.000 C 
ATOM      2  O   UNL     1       0.267   2.493  18.484  0.00  0.00    +0.000 OA
ENDROOT
BRANCH   1   3
ATOM      3  C   UNL     1       1.572   4.352  19.048  0.00  0.00    +0.000 A 
ATOM      4  C   UNL     1       1.413   4.515  20.432  0.00  0.00    +0.000 A 
ATOM      5  C   UNL     1       1.582   5.770  21.017  0.00  0.00    +0.000 A 
ATOM      6  C   UNL     1       1.907   6.866  20.222  0.00  0.00    +0.000 A 
ATOM      7  C   UNL     1       2.082   6.710  18.845  0.00  0.00    +0.000 A 
ATOM      8  C   UNL     1       1.907   5.453  18.253  0.00  0.00    +0.000 A 
BRANCH   6   9
ATOM      9  N   UNL     1       2.119   8.121  20.854  0.00  0.00    +0.000 N 
ATOM     10  H   UNL     1       2.715   8.119  21.685  0.00  0.00    +0.000 HD
BRANCH   9  11
ATOM     11  S   UNL     1       0.760   9.087  21.144  0.00  0.00    +0.000 S 
ATOM     12  C   UNL     1       0.586   9.929  19.583  0.00  0.00    +0.000 C 
ATOM     13  O   UNL     1      -0.397   8.246  21.367  0.00  0.00    +0.000 OA
ATOM     14  O   UNL     1       1.189  10.054  22.129  0.00  0.00    +0.000 OA
ENDBRANCH   9  11
ENDBRANCH   6   9
ENDBRANCH   1   3
BRANCH   1  15
ATOM     15  C   UNL     1       2.613   2.271  17.913  0.00  0.00    +0.000 C 
BRANCH  15  19
ATOM     16  N   UNL     1       5.736   4.067  17.849  0.00  0.00    +0.000 N 
ATOM     17  C   UNL     1       5.618   3.889  19.210  0.00  0.00    +0.000 A 
ATOM     18  C   UNL     1       4.451   3.205  19.418  0.00  0.00    +0.000 A 
ATOM     19  N   UNL     1       3.888   2.978  18.169  0.00  0.00    +0.000 N 
ATOM     20  C   UNL     1       4.678   3.523  17.228  0.00  0.00    +0.000 A 
BRANCH  16  21
ATOM     21  C   UNL     1       6.830   4.742  17.150  0.00  0.00    +0.000 C 
BRANCH  21  22
ATOM     22  C   UNL     1       6.349   6.033  16.501  0.00  0.00    +0.000 C 
BRANCH  22  23
ATOM     23  C   UNL     1       5.604   5.739  15.209  0.00  0.00    +0.000 C 
BRANCH  23  24
ATOM     24  C   UNL     1       6.443   4.883  14.267  0.00  0.00    +0.000 C 
BRANCH  24  25
ATOM     25  C   UNL     1       5.594   3.751  13.699  0.00  0.00    +0.000 C 
BRANCH  25  27
ATOM     26  C   UNL     1       4.765   2.980  11.469  0.00  0.00    +0.000 C 
ATOM     27  C   UNL     1       5.985   3.414  12.265  0.00  0.00    +0.000 C 
ENDBRANCH  25  27
ENDBRANCH  24  25
ENDBRANCH  23  24
ENDBRANCH  22  23
ENDBRANCH  21  22
ENDBRANCH  16  21
ENDBRANCH  15  19
ENDBRANCH   1  15
TORSDOF 11
ENDMDL
MODEL 4
REMARK VINA RESULT:      -6.4      1.268      1.326
REMARK  Name = 
REMARK  13 active torsions:
REMARK  status: ('A' for Active; 'I' for Inactive)
REMARK    1  A    between atoms: C_1  and  C_2
REMARK    2  A    between atoms: C_2  and  C_3
REMARK    3  A    between atoms: C_3  and  C_4
REMARK    4  A    between atoms: C_4  and  C_5
REMARK    5  A    between atoms: C_5  and  C_6
REMARK    6  A    between atoms: C_6  and  C_7
REMARK    7  A    between atoms: C_7  and  N_8
REMARK    8  A    between atoms: N_11  and  C_12
REMARK    9  A    between atoms: C_12  and  C_13
REMARK   10  A    between atoms: C_13  and  C_15
REMARK   11  A    between atoms: C_18  and  N_19
REMARK   12  A    between atoms: N_19  and  S_20
REMARK   13  A    between atoms: S_20  and  C_21
REMARK                            x       y       z     vdW  Elec       q    Type
REMARK                         _______ _______ _______ _____ _____    ______ ____
ROOT
ATOM      1  C   UNL     1       2.401   4.812  18.265  0.00  0.00    +0.000 C 
ATOM      2  O   UNL     1       1.563   4.329  17.503  0.00  0.00    +0.000 OA
ENDROOT
BRANCH   1   3
ATOM      3  C   UNL     1       2.110   6.125  18.900  0.00  0.00    +0.000 A 
ATOM      4  C   UNL     1       1.792   6.126  20.265  0.00  0.00    +0.000 A 
ATOM      5  C   UNL     1       1.527   7.325  20.927  0.00  0.00    +0.000 A 
ATOM      6  C   UNL     1       1.576   8.527  20.226  0.00  0.00    +0.000 A 
ATOM      7  C   UNL     1       1.907   8.538  18.869  0.00  0.00    +0.000 A 
ATOM      8  C   UNL     1       2.167   7.336  18.200  0.00  0.00    +0.000 A 
BRANCH   6   9
ATOM      9  N   UNL     1       1.348   9.735  20.938  0.00  0.00    +0.000 N 
ATOM     10  H   UNL     1       1.854   9.848  21.819  0.00  0.00    +0.000 HD
BRANCH   9  11
ATOM     11  S   UNL     1      -0.258  10.223  21.151  0.00  0.00    +0.000 S 
ATOM     12  C   UNL     1      -0.067  11.981  21.370  0.00  0.00    +0.000 C 
ATOM     13  O   UNL     1      -1.009   9.970  19.939  0.00  0.00    +0.000 OA
ATOM     14  O   UNL     1      -0.660   9.655  22.417  0.00  0.00    +0.000 OA
ENDBRANCH   9  11
ENDBRANCH   6   9
ENDBRANCH   1   3
BRANCH   1  15
ATOM     15  C   UNL     1       3.751   4.156  18.535  0.00  0.00    +0.000 C 
BRANCH  15  19
ATOM     16  N   UNL     1       6.332   4.824  16.112  0.00  0.00    +0.000 N 
ATOM     17  C   UNL     1       6.407   5.995  16.835  0.00  0.00    +0.000 A 
ATOM     18  C   UNL     1       5.465   5.908  17.824  0.00  0.00    +0.000 A 
ATOM     19  N   UNL     1       4.841   4.676  17.681  0.00  0.00    +0.000 N 
ATOM     20  C   UNL     1       5.373   4.037  16.624  0.00  0.00    +0.000 A 
BRANCH  16  21
ATOM     21  C   UNL     1       7.153   4.460  14.957  0.00  0.00    +0.000 C 
BRANCH  21  22
ATOM     22  C   UNL     1       6.360   4.586  13.663  0.00  0.00    +0.000 C 
BRANCH  22  23
ATOM     23  C   UNL     1       6.060   3.214  13.081  0.00  0.00    +0.000 C 
BRANCH  23  24
ATOM     24  C   UNL     1       5.508   3.320  11.664  0.00  0.00    +0.000 C 
BRANCH  24  25
ATOM     25  C   UNL     1       3.991   3.472  11.707  0.00  0.00    +0.000 C 
BRANCH  25  27
ATOM     26  C   UNL     1       2.945   4.285   9.587  0.00  0.00    +0.000 C 
ATOM     27  C   UNL     1       3.343   3.059  10.391  0.00  0.00    +0.000 C 
ENDBRANCH  25  27
ENDBRANCH  24  25
ENDBRANCH  23  24
ENDBRANCH  22  23
ENDBRANCH  21  22
ENDBRANCH  16  21
ENDBRANCH  15  19
ENDBRANCH   1  15
TORSDOF 11
ENDMDL
MODEL 5
REMARK VINA RESULT:      -6.3      3.410      8.540
REMARK  Name = 
REMARK  13 active torsions:
REMARK  status: ('A' for Active; 'I' for Inactive)
REMARK    1  A    between atoms: C_1  and  C_2
REMARK    2  A    between atoms: C_2  and  C_3
REMARK    3  A    between atoms: C_3  and  C_4
REMARK    4  A    between atoms: C_4  and  C_5
REMARK    5  A    between atoms: C_5  and  C_6
REMARK    6  A    between atoms: C_6  and  C_7
REMARK    7  A    between atoms: C_7  and  N_8
REMARK    8  A    between atoms: N_11  and  C_12
REMARK    9  A    between atoms: C_12  and  C_13
REMARK   10  A    between atoms: C_13  and  C_15
REMARK   11  A    between atoms: C_18  and  N_19
REMARK   12  A    between atoms: N_19  and  S_20
REMARK   13  A    between atoms: S_20  and  C_21
REMARK                            x       y       z     vdW  Elec       q    Type
REMARK                         _______ _______ _______ _____ _____    ______ ____
ROOT
ATOM      1  C   UNL     1       1.862   5.124  20.117  0.00  0.00    +0.000 C 
ATOM      2  O   UNL     1       0.811   4.495  20.245  0.00  0.00    +0.000 OA
ENDROOT
BRANCH   1   3
ATOM      3  C   UNL     1       2.808   4.713  19.045  0.00  0.00    +0.000 A 
ATOM      4  C   UNL     1       4.167   4.996  19.241  0.00  0.00    +0.000 A 
ATOM      5  C   UNL     1       5.110   4.622  18.283  0.00  0.00    +0.000 A 
ATOM      6  C   UNL     1       4.698   3.966  17.127  0.00  0.00    +0.000 A 
ATOM      7  C   UNL     1       3.347   3.667  16.929  0.00  0.00    +0.000 A 
ATOM      8  C   UNL     1       2.398   4.047  17.885  0.00  0.00    +0.000 A 
BRANCH   6   9
ATOM      9  N   UNL     1       5.687   3.555  16.193  0.00  0.00    +0.000 N 
ATOM     10  H   UNL     1       6.428   2.948  16.550  0.00  0.00    +0.000 HD
BRANCH   9  11
ATOM     11  S   UNL     1       6.370   4.748  15.206  0.00  0.00    +0.000 S 
ATOM     12  C   UNL     1       6.349   3.946  13.615  0.00  0.00    +0.000 C 
ATOM     13  O   UNL     1       5.503   5.907  15.170  0.00  0.00    +0.000 OA
ATOM     14  O   UNL     1       7.746   4.851  15.637  0.00  0.00    +0.000 OA
ENDBRANCH   9  11
ENDBRANCH   6   9
ENDBRANCH   1   3
BRANCH   1  15
ATOM     15  C   UNL     1       2.266   6.262  21.048  0.00  0.00    +0.000 C 
BRANCH  15  19
ATOM     16  N   UNL     1       0.978   9.300  19.602  0.00  0.00    +0.000 N 
ATOM     17  C   UNL     1       0.463   9.431  20.873  0.00  0.00    +0.000 A 
ATOM     18  C   UNL     1       0.866   8.329  21.578  0.00  0.00    +0.000 A 
ATOM     19  N   UNL     1       1.626   7.553  20.713  0.00  0.00    +0.000 N 
ATOM     20  C   UNL     1       1.671   8.154  19.511  0.00  0.00    +0.000 A 
BRANCH  16  21
ATOM     21  C   UNL     1       0.815  10.242  18.495  0.00  0.00    +0.000 C 
BRANCH  21  22
ATOM     22  C   UNL     1      -0.627  10.264  18.005  0.00  0.00    +0.000 C 
BRANCH  22  23
ATOM     23  C   UNL     1      -1.289  11.589  18.345  0.00  0.00    +0.000 C 
BRANCH  23  24
ATOM     24  C   UNL     1      -2.809  11.463  18.360  0.00  0.00    +0.000 C 
BRANCH  24  25
ATOM     25  C   UNL     1      -3.298  10.930  17.017  0.00  0.00    +0.000 C 
BRANCH  25  27
ATOM     26  C   UNL     1      -5.604  11.209  17.943  0.00  0.00    +0.000 C 
ATOM     27  C   UNL     1      -4.723  11.377  16.716  0.00  0.00    +0.000 C 
ENDBRANCH  25  27
ENDBRANCH  24  25
ENDBRANCH  23  24
ENDBRANCH  22  23
ENDBRANCH  21  22
ENDBRANCH  16  21
ENDBRANCH  15  19
ENDBRANCH   1  15
TORSDOF 11
ENDMDL
MODEL 6
REMARK VINA RESULT:      -6.2      2.696      4.293
REMARK  Name = 
REMARK  13 active torsions:
REMARK  status: ('A' for Active; 'I' for Inactive)
REMARK    1  A    between atoms: C_1  and  C_2
REMARK    2  A    between atoms: C_2  and  C_3
REMARK    3  A    between atoms: C_3  and  C_4
REMARK    4  A    between atoms: C_4  and  C_5
REMARK    5  A    between atoms: C_5  and  C_6
REMARK    6  A    between atoms: C_6  and  C_7
REMARK    7  A    between atoms: C_7  and  N_8
REMARK    8  A    between atoms: N_11  and  C_12
REMARK    9  A    between atoms: C_12  and  C_13
REMARK   10  A    between atoms: C_13  and  C_15
REMARK   11  A    between atoms: C_18  and  N_19
REMARK   12  A    between atoms: N_19  and  S_20
REMARK   13  A    between atoms: S_20  and  C_21
REMARK                            x       y       z     vdW  Elec       q    Type
REMARK                         _______ _______ _______ _____ _____    ______ ____
ROOT
ATOM      1  C   UNL     1       1.957   5.356  20.393  0.00  0.00    +0.000 C 
ATOM      2  O   UNL     1       2.503   5.036  21.448  0.00  0.00    +0.000 OA
ENDROOT
BRANCH   1   3
ATOM      3  C   UNL     1       1.714   6.800  20.128  0.00  0.00    +0.000 A 
ATOM      4  C   UNL     1       1.110   7.550  21.147  0.00  0.00    +0.000 A 
ATOM      5  C   UNL     1       0.871   8.913  20.972  0.00  0.00    +0.000 A 
ATOM      6  C   UNL     1       1.231   9.530  19.778  0.00  0.00    +0.000 A 
ATOM      7  C   UNL     1       1.846   8.794  18.762  0.00  0.00    +0.000 A 
ATOM      8  C   UNL     1       2.082   7.425  18.932  0.00  0.00    +0.000 A 
BRANCH   6   9
ATOM      9  N   UNL     1       1.019  10.929  19.648  0.00  0.00    +0.000 N 
ATOM     10  H   UNL     1       1.345  11.514  20.420  0.00  0.00    +0.000 HD
BRANCH   9  11
ATOM     11  S   UNL     1      -0.523  11.442  19.171  0.00  0.00    +0.000 S 
ATOM     12  C   UNL     1      -1.252  11.871  20.739  0.00  0.00    +0.000 C 
ATOM     13  O   UNL     1      -0.410  12.631  18.353  0.00  0.00    +0.000 OA
ATOM     14  O   UNL     1      -1.181  10.251  18.683  0.00  0.00    +0.000 OA
ENDBRANCH   9  11
ENDBRANCH   6   9
ENDBRANCH   1   3
BRANCH   1  15
ATOM     15  C   UNL     1       1.459   4.336  19.374  0.00  0.00    +0.000 C 
BRANCH  15  19
ATOM     16  N   UNL     1       4.302   3.381  17.377  0.00  0.00    +0.000 N 
ATOM     17  C   UNL     1       3.869   2.127  17.749  0.00  0.00    +0.000 A 
ATOM     18  C   UNL     1       2.764   2.309  18.536  0.00  0.00    +0.000 A 
ATOM     19  N   UNL     1       2.549   3.678  18.619  0.00  0.00    +0.000 N 
ATOM     20  C   UNL     1       3.504   4.314  17.919  0.00  0.00    +0.000 A 
BRANCH  16  21
ATOM     21  C   UNL     1       5.452   3.689  16.526  0.00  0.00    +0.000 C 
BRANCH  21  22
ATOM     22  C   UNL     1       5.267   5.028  15.824  0.00  0.00    +0.000 C 
BRANCH  22  23
ATOM     23  C   UNL     1       6.357   6.004  16.234  0.00  0.00    +0.000 C 
BRANCH  23  24
ATOM     24  C   UNL     1       7.141   5.489  17.436  0.00  0.00    +0.000 C 
BRANCH  24  25
ATOM     25  C   UNL     1       7.676   6.663  18.249  0.00  0.00    +0.000 C 
BRANCH  25  27
ATOM     26  C   UNL     1       8.376   9.063  18.221  0.00  0.00    +0.000 C 
ATOM     27  C   UNL     1       7.716   7.947  17.430  0.00  0.00    +0.000 C 
ENDBRANCH  25  27
ENDBRANCH  24  25
ENDBRANCH  23  24
ENDBRANCH  22  23
ENDBRANCH  21  22
ENDBRANCH  16  21
ENDBRANCH  15  19
ENDBRANCH   1  15
TORSDOF 11
ENDMDL
MODEL 7
REMARK VINA RESULT:      -6.2      1.010      1.061
REMARK  Name = 
REMARK  13 active torsions:
REMARK  status: ('A' for Active; 'I' for Inactive)
REMARK    1  A    between atoms: C_1  and  C_2
REMARK    2  A    between atoms: C_2  and  C_3
REMARK    3  A    between atoms: C_3  and  C_4
REMARK    4  A    between atoms: C_4  and  C_5
REMARK    5  A    between atoms: C_5  and  C_6
REMARK    6  A    between atoms: C_6  and  C_7
REMARK    7  A    between atoms: C_7  and  N_8
REMARK    8  A    between atoms: N_11  and  C_12
REMARK    9  A    between atoms: C_12  and  C_13
REMARK   10  A    between atoms: C_13  and  C_15
REMARK   11  A    between atoms: C_18  and  N_19
REMARK   12  A    between atoms: N_19  and  S_20
REMARK   13  A    between atoms: S_20  and  C_21
REMARK                            x       y       z     vdW  Elec       q    Type
REMARK                         _______ _______ _______ _____ _____    ______ ____
ROOT
ATOM      1  C   UNL     1       3.683   4.995  19.276  0.00  0.00    +0.000 C 
ATOM      2  O   UNL     1       3.077   3.928  19.171  0.00  0.00    +0.000 OA
ENDROOT
BRANCH   1   3
ATOM      3  C   UNL     1       2.895   6.249  19.408  0.00  0.00    +0.000 A 
ATOM      4  C   UNL     1       2.124   6.407  20.569  0.00  0.00    +0.000 A 
ATOM      5  C   UNL     1       1.375   7.568  20.764  0.00  0.00    +0.000 A 
ATOM      6  C   UNL     1       1.393   8.573  19.801  0.00  0.00    +0.000 A 
ATOM      7  C   UNL     1       2.169   8.430  18.648  0.00  0.00    +0.000 A 
ATOM      8  C   UNL     1       2.916   7.264  18.446  0.00  0.00    +0.000 A 
BRANCH   6   9
ATOM      9  N   UNL     1       0.658   9.763  20.051  0.00  0.00    +0.000 N 
ATOM     10  H   UNL     1       0.089   9.778  20.901  0.00  0.00    +0.000 HD
BRANCH   9  11
ATOM     11  S   UNL     1      -0.237  10.411  18.769  0.00  0.00    +0.000 S 
ATOM     12  C   UNL     1       0.478  12.036  18.625  0.00  0.00    +0.000 C 
ATOM     13  O   UNL     1       0.030   9.660  17.560  0.00  0.00    +0.000 OA
ATOM     14  O   UNL     1      -1.580  10.556  19.283  0.00  0.00    +0.000 OA
ENDBRANCH   9  11
ENDBRANCH   6   9
ENDBRANCH   1   3
BRANCH   1  15
ATOM     15  C   UNL     1       5.203   5.094  19.211  0.00  0.00    +0.000 C 
BRANCH  15  19
ATOM     16  N   UNL     1       5.894   4.543  15.718  0.00  0.00    +0.000 N 
ATOM     17  C   UNL     1       7.166   4.367  16.220  0.00  0.00    +0.000 A 
ATOM     18  C   UNL     1       7.084   4.547  17.574  0.00  0.00    +0.000 A 
ATOM     19  N   UNL     1       5.755   4.826  17.865  0.00  0.00    +0.000 N 
ATOM     20  C   UNL     1       5.049   4.832  16.720  0.00  0.00    +0.000 A 
BRANCH  16  21
ATOM     21  C   UNL     1       5.489   4.441  14.316  0.00  0.00    +0.000 C 
BRANCH  21  22
ATOM     22  C   UNL     1       6.672   4.065  13.433  0.00  0.00    +0.000 C 
BRANCH  22  23
ATOM     23  C   UNL     1       6.201   3.327  12.191  0.00  0.00    +0.000 C 
BRANCH  23  24
ATOM     24  C   UNL     1       4.680   3.334  12.083  0.00  0.00    +0.000 C 
BRANCH  24  25
ATOM     25  C   UNL     1       4.264   3.323  10.616  0.00  0.00    +0.000 C 
BRANCH  25  27
ATOM     26  C   UNL     1       2.833   4.496   8.934  0.00  0.00    +0.000 C 
ATOM     27  C   UNL     1       2.963   4.084  10.390  0.00  0.00    +0.000 C 
ENDBRANCH  25  27
ENDBRANCH  24  25
ENDBRANCH  23  24
ENDBRANCH  22  23
ENDBRANCH  21  22
ENDBRANCH  16  21
ENDBRANCH  15  19
ENDBRANCH   1  15
TORSDOF 11
ENDMDL
MODEL 8
REMARK VINA RESULT:      -6.2      3.016      5.904
REMARK  Name = 
REMARK  13 active torsions:
REMARK  status: ('A' for Active; 'I' for Inactive)
REMARK    1  A    between atoms: C_1  and  C_2
REMARK    2  A    between atoms: C_2  and  C_3
REMARK    3  A    between atoms: C_3  and  C_4
REMARK    4  A    between atoms: C_4  and  C_5
REMARK    5  A    between atoms: C_5  and  C_6
REMARK    6  A    between atoms: C_6  and  C_7
REMARK    7  A    between atoms: C_7  and  N_8
REMARK    8  A    between atoms: N_11  and  C_12
REMARK    9  A    between atoms: C_12  and  C_13
REMARK   10  A    between atoms: C_13  and  C_15
REMARK   11  A    between atoms: C_18  and  N_19
REMARK   12  A    between atoms: N_19  and  S_20
REMARK   13  A    between atoms: S_20  and  C_21
REMARK                            x       y       z     vdW  Elec       q    Type
REMARK                         _______ _______ _______ _____ _____    ______ ____
ROOT
ATOM      1  C   UNL     1       2.810   4.569  18.460  0.00  0.00    +0.000 C 
ATOM      2  O   UNL     1       1.963   3.879  17.892  0.00  0.00    +0.000 OA
ENDROOT
BRANCH   1   3
ATOM      3  C   UNL     1       2.478   5.985  18.772  0.00  0.00    +0.000 A 
ATOM      4  C   UNL     1       2.416   6.885  17.699  0.00  0.00    +0.000 A 
ATOM      5  C   UNL     1       2.092   8.224  17.920  0.00  0.00    +0.000 A 
ATOM      6  C   UNL     1       1.831   8.668  19.213  0.00  0.00    +0.000 A 
ATOM      7  C   UNL     1       1.877   7.775  20.287  0.00  0.00    +0.000 A 
ATOM      8  C   UNL     1       2.208   6.433  20.070  0.00  0.00    +0.000 A 
BRANCH   6   9
ATOM      9  N   UNL     1       1.457  10.026  19.400  0.00  0.00    +0.000 N 
ATOM     10  H   UNL     1       2.095  10.603  19.951  0.00  0.00    +0.000 HD
BRANCH   9  11
ATOM     11  S   UNL     1      -0.135  10.336  19.883  0.00  0.00    +0.000 S 
ATOM     12  C   UNL     1      -1.013  10.158  18.342  0.00  0.00    +0.000 C 
ATOM     13  O   UNL     1      -0.573   9.311  20.806  0.00  0.00    +0.000 OA
ATOM     14  O   UNL     1      -0.152  11.735  20.248  0.00  0.00    +0.000 OA
ENDBRANCH   9  11
ENDBRANCH   6   9
ENDBRANCH   1   3
BRANCH   1  15
ATOM     15  C   UNL     1       4.206   4.057  18.799  0.00  0.00    +0.000 C 
BRANCH  15  19
ATOM     16  N   UNL     1       7.027   6.185  18.097  0.00  0.00    +0.000 N 
ATOM     17  C   UNL     1       6.622   5.930  16.804  0.00  0.00    +0.000 A 
ATOM     18  C   UNL     1       5.529   5.111  16.888  0.00  0.00    +0.000 A 
ATOM     19  N   UNL     1       5.292   4.891  18.238  0.00  0.00    +0.000 N 
ATOM     20  C   UNL     1       6.222   5.541  18.957  0.00  0.00    +0.000 A 
BRANCH  16  21
ATOM     21  C   UNL     1       8.155   7.021  18.507  0.00  0.00    +0.000 C 
BRANCH  21  22
ATOM     22  C   UNL     1       8.039   8.421  17.918  0.00  0.00    +0.000 C 
BRANCH  22  23
ATOM     23  C   UNL     1       8.769   9.431  18.788  0.00  0.00    +0.000 C 
BRANCH  23  24
ATOM     24  C   UNL     1       9.047  10.722  18.025  0.00  0.00    +0.000 C 
BRANCH  24  25
ATOM     25  C   UNL     1      10.116  11.533  18.749  0.00  0.00    +0.000 C 
BRANCH  25  27
ATOM     26  C   UNL     1       9.640  12.461  21.021  0.00  0.00    +0.000 C 
ATOM     27  C   UNL     1      10.125  11.248  20.246  0.00  0.00    +0.000 C 
ENDBRANCH  25  27
ENDBRANCH  24  25
ENDBRANCH  23  24
ENDBRANCH  22  23
ENDBRANCH  21  22
ENDBRANCH  16  21
ENDBRANCH  15  19
ENDBRANCH   1  15
TORSDOF 11
ENDMDL
MODEL 9
REMARK VINA RESULT:      -6.1      3.535      5.664
REMARK  Name = 
REMARK  13 active torsions:
REMARK  status: ('A' for Active; 'I' for Inactive)
REMARK    1  A    between atoms: C_1  and  C_2
REMARK    2  A    between atoms: C_2  and  C_3
REMARK    3  A    between atoms: C_3  and  C_4
REMARK    4  A    between atoms: C_4  and  C_5
REMARK    5  A    between atoms: C_5  and  C_6
REMARK    6  A    between atoms: C_6  and  C_7
REMARK    7  A    between atoms: C_7  and  N_8
REMARK    8  A    between atoms: N_11  and  C_12
REMARK    9  A    between atoms: C_12  and  C_13
REMARK   10  A    between atoms: C_13  and  C_15
REMARK   11  A    between atoms: C_18  and  N_19
REMARK   12  A    between atoms: N_19  and  S_20
REMARK   13  A    between atoms: S_20  and  C_21
REMARK                            x       y       z     vdW  Elec       q    Type
REMARK                         _______ _______ _______ _____ _____    ______ ____
ROOT
ATOM      1  C   UNL     1       1.000   9.829  18.996  0.00  0.00    +0.000 C 
ATOM      2  O   UNL     1       1.211   9.784  20.208  0.00  0.00    +0.000 OA
ENDROOT
BRANCH   1   3
ATOM      3  C   UNL     1      -0.266  10.447  18.518  0.00  0.00    +0.000 A 
ATOM      4  C   UNL     1      -1.066   9.690  17.651  0.00  0.00    +0.000 A 
ATOM      5  C   UNL     1      -2.275  10.203  17.180  0.00  0.00    +0.000 A 
ATOM      6  C   UNL     1      -2.687  11.473  17.572  0.00  0.00    +0.000 A 
ATOM      7  C   UNL     1      -1.903  12.229  18.448  0.00  0.00    +0.000 A 
ATOM      8  C   UNL     1      -0.686  11.720  18.917  0.00  0.00    +0.000 A 
BRANCH   6   9
ATOM      9  N   UNL     1      -3.946  11.948  17.114  0.00  0.00    +0.000 N 
ATOM     10  H   UNL     1      -3.952  12.869  16.671  0.00  0.00    +0.000 HD
BRANCH   9  11
ATOM     11  S   UNL     1      -5.257  11.831  18.178  0.00  0.00    +0.000 S 
ATOM     12  C   UNL     1      -6.556  12.589  17.222  0.00  0.00    +0.000 C 
ATOM     13  O   UNL     1      -5.578  10.437  18.404  0.00  0.00    +0.000 OA
ATOM     14  O   UNL     1      -4.933  12.716  19.274  0.00  0.00    +0.000 OA
ENDBRANCH   9  11
ENDBRANCH   6   9
ENDBRANCH   1   3
BRANCH   1  15
ATOM     15  C   UNL     1       1.948   9.223  17.967  0.00  0.00    +0.000 C 
BRANCH  15  19
ATOM     16  N   UNL     1       3.706   6.108  18.398  0.00  0.00    +0.000 N 
ATOM     17  C   UNL     1       3.021   6.135  19.593  0.00  0.00    +0.000 A 
ATOM     18  C   UNL     1       2.282   7.287  19.597  0.00  0.00    +0.000 A 
ATOM     19  N   UNL     1       2.533   7.933  18.394  0.00  0.00    +0.000 N 
ATOM     20  C   UNL     1       3.414   7.206  17.683  0.00  0.00    +0.000 A 
BRANCH  16  21
ATOM     21  C   UNL     1       4.621   5.061  17.942  0.00  0.00    +0.000 C 
BRANCH  21  22
ATOM     22  C   UNL     1       3.931   4.122  16.963  0.00  0.00    +0.000 C 
BRANCH  22  23
ATOM     23  C   UNL     1       2.564   3.711  17.485  0.00  0.00    +0.000 C 
BRANCH  23  24
ATOM     24  C   UNL     1       2.515   2.220  17.799  0.00  0.00    +0.000 C 
BRANCH  24  25
ATOM     25  C   UNL     1       1.474   1.952  18.882  0.00  0.00    +0.000 C 
BRANCH  25  27
ATOM     26  C   UNL     1       1.297   3.191  21.046  0.00  0.00    +0.000 C 
ATOM     27  C   UNL     1       1.013   3.239  19.555  0.00  0.00    +0.000 C 
ENDBRANCH  25  27
ENDBRANCH  24  25
ENDBRANCH  23  24
ENDBRANCH  22  23
ENDBRANCH  21  22
ENDBRANCH  16  21
ENDBRANCH  15  19
ENDBRANCH   1  15
TORSDOF 11
ENDMDL
