MODEL 1
REMARK VINA RESULT:     -10.1      0.000      0.000
REMARK  Name = 
REMARK  4 active torsions:
REMARK  status: ('A' for Active; 'I' for Inactive)
REMARK    1  A    between atoms: C_1  and  N_2
REMARK    2  A    between atoms: C_6  and  C_8
REMARK    3  A    between atoms: C_16  and  C_17
REMARK    4  A    between atoms: C_21  and  C_22
REMARK                            x       y       z     vdW  Elec       q    Type
REMARK                         _______ _______ _______ _____ _____    ______ ____
ROOT
ATOM      1  C   UNL     1       0.964   8.794  20.559  0.00  0.00    +0.000 A 
ATOM      2  C   UNL     1       1.461   9.258  19.339  0.00  0.00    +0.000 A 
ATOM      3  C   UNL     1       2.180   8.419  18.489  0.00  0.00    +0.000 A 
ATOM      4  C   UNL     1       2.519   7.130  18.932  0.00  0.00    +0.000 A 
ATOM      5  C   UNL     1       2.108   6.714  20.197  0.00  0.00    +0.000 A 
ATOM      6  C   UNL     1       1.325   7.521  21.033  0.00  0.00    +0.000 A 
ATOM      7  N   UNL     1       2.620   5.451  20.385  0.00  0.00    +0.000 N 
ATOM      8  C   UNL     1       3.325   5.032  19.275  0.00  0.00    +0.000 A 
ATOM      9  C   UNL     1       4.011   3.832  19.021  0.00  0.00    +0.000 A 
ATOM     10  C   UNL     1       4.650   3.723  17.771  0.00  0.00    +0.000 A 
ATOM     11  C   UNL     1       4.638   4.751  16.811  0.00  0.00    +0.000 A 
ATOM     12  C   UNL     1       3.933   5.927  17.119  0.00  0.00    +0.000 A 
ATOM     13  C   UNL     1       3.271   6.070  18.352  0.00  0.00    +0.000 A 
ATOM     14  H   UNL     1       2.513   4.884  21.220  0.00  0.00    +0.000 HD
ENDROOT
BRANCH   1  20
ATOM     15  C   UNL     1      -0.968  14.925  19.851  0.00  0.00    +0.000 C 
ATOM     16  N   UNL     1      -1.219  13.508  20.087  0.00  0.00    +0.000 NA
ATOM     17  C   UNL     1      -1.056  13.164  21.519  0.00  0.00    +0.000 C 
ATOM     18  C   UNL     1      -1.271  11.659  21.799  0.00  0.00    +0.000 C 
ATOM     19  N   UNL     1      -0.468  10.822  20.904  0.00  0.00    +0.000 N 
ATOM     20  C   UNL     1       0.093   9.650  21.415  0.00  0.00    +0.000 C 
ATOM     21  O   UNL     1      -0.090   9.284  22.577  0.00  0.00    +0.000 OA
ATOM     22  C   UNL     1      -0.647  11.177  19.488  0.00  0.00    +0.000 C 
ATOM     23  C   UNL     1      -0.321  12.666  19.273  0.00  0.00    +0.000 C 
ENDBRANCH   1  20
BRANCH  11  24
ATOM     24  C   UNL     1       5.365   4.624  15.526  0.00  0.00    +0.000 A 
ATOM     25  C   UNL     1       6.707   5.022  15.397  0.00  0.00    +0.000 A 
ATOM     26  C   UNL     1       7.404   4.863  14.195  0.00  0.00    +0.000 A 
ATOM     27  C   UNL     1       6.767   4.315  13.083  0.00  0.00    +0.000 A 
ATOM     28 CL   UNL     1       7.684   4.139  11.632  0.00  0.00    +0.000 Cl
ATOM     29  C   UNL     1       5.430   3.926  13.179  0.00  0.00    +0.000 A 
ATOM     30 CL   UNL     1       4.559   3.252  11.846  0.00  0.00    +0.000 Cl
ATOM     31  C   UNL     1       4.744   4.075  14.390  0.00  0.00    +0.000 A 
ENDBRANCH  11  24
BRANCH   9  32
ATOM     32  C   UNL     1       4.036   2.764  20.061  0.00  0.00    +0.000 C 
ATOM     33  N   UNL     1       5.088   1.896  20.088  0.00  0.00    +0.000 N 
ATOM     34  O   UNL     1       3.135   2.670  20.881  0.00  0.00    +0.000 OA
ATOM     35  H   UNL     1       5.871   1.896  19.455  0.00  0.00    +0.000 HD
ATOM     36  H   UNL     1       5.072   1.191  20.807  0.00  0.00    +0.000 HD
ENDBRANCH   9  32
TORSDOF 3
ENDMDL
MODEL 2
REMARK VINA RESULT:      -9.4      4.367     10.063
REMARK  Name = 
REMARK  4 active torsions:
REMARK  status: ('A' for Active; 'I' for Inactive)
REMARK    1  A    between atoms: C_1  and  N_2
REMARK    2  A    between atoms: C_6  and  C_8
REMARK    3  A    between atoms: C_16  and  C_17
REMARK    4  A    between atoms: C_21  and  C_22
REMARK                            x       y       z     vdW  Elec       q    Type
REMARK                         _______ _______ _______ _____ _____    ______ ____
ROOT
ATOM      1  C   UNL     1       2.504   6.797  18.536  0.00  0.00    +0.000 A 
ATOM      2  C   UNL     1       2.647   7.809  17.584  0.00  0.00    +0.000 A 
ATOM      3  C   UNL     1       2.283   9.124  17.871  0.00  0.00    +0.000 A 
ATOM      4  C   UNL     1       1.643   9.402  19.090  0.00  0.00    +0.000 A 
ATOM      5  C   UNL     1       1.409   8.364  19.989  0.00  0.00    +0.000 A 
ATOM      6  C   UNL     1       1.832   7.050  19.744  0.00  0.00    +0.000 A 
ATOM      7  N   UNL     1       0.729   8.908  21.055  0.00  0.00    +0.000 N 
ATOM      8  C   UNL     1       0.539  10.264  20.880  0.00  0.00    +0.000 A 
ATOM      9  C   UNL     1      -0.097  11.215  21.697  0.00  0.00    +0.000 A 
ATOM     10  C   UNL     1      -0.132  12.538  21.215  0.00  0.00    +0.000 A 
ATOM     11  C   UNL     1       0.415  12.917  19.975  0.00  0.00    +0.000 A 
ATOM     12  C   UNL     1       1.041  11.924  19.204  0.00  0.00    +0.000 A 
ATOM     13  C   UNL     1       1.107  10.593  19.655  0.00  0.00    +0.000 A 
ATOM     14  H   UNL     1       0.395   8.402  21.868  0.00  0.00    +0.000 HD
ENDROOT
BRANCH   1  20
ATOM     15  C   UNL     1       7.153   4.633  14.596  0.00  0.00    +0.000 C 
ATOM     16  N   UNL     1       6.498   4.727  15.896  0.00  0.00    +0.000 NA
ATOM     17  C   UNL     1       5.402   3.738  16.018  0.00  0.00    +0.000 C 
ATOM     18  C   UNL     1       4.654   3.839  17.367  0.00  0.00    +0.000 C 
ATOM     19  N   UNL     1       4.232   5.213  17.651  0.00  0.00    +0.000 N 
ATOM     20  C   UNL     1       3.002   5.415  18.277  0.00  0.00    +0.000 C 
ATOM     21  O   UNL     1       2.279   4.481  18.626  0.00  0.00    +0.000 OA
ATOM     22  C   UNL     1       5.336   6.178  17.526  0.00  0.00    +0.000 C 
ATOM     23  C   UNL     1       5.964   6.084  16.125  0.00  0.00    +0.000 C 
ENDBRANCH   1  20
BRANCH  11  24
ATOM     24  C   UNL     1       0.315  14.307  19.474  0.00  0.00    +0.000 A 
ATOM     25  C   UNL     1      -0.846  15.077  19.666  0.00  0.00    +0.000 A 
ATOM     26  C   UNL     1      -0.923  16.404  19.230  0.00  0.00    +0.000 A 
ATOM     27  C   UNL     1       0.158  16.989  18.571  0.00  0.00    +0.000 A 
ATOM     28 CL   UNL     1       0.001  18.631  18.063  0.00  0.00    +0.000 Cl
ATOM     29  C   UNL     1       1.317  16.242  18.353  0.00  0.00    +0.000 A 
ATOM     30 CL   UNL     1       2.696  16.884  17.534  0.00  0.00    +0.000 Cl
ATOM     31  C   UNL     1       1.391  14.921  18.807  0.00  0.00    +0.000 A 
ENDBRANCH  11  24
BRANCH   9  32
ATOM     32  C   UNL     1      -0.694  10.789  22.995  0.00  0.00    +0.000 C 
ATOM     33  N   UNL     1      -1.913  11.286  23.352  0.00  0.00    +0.000 N 
ATOM     34  O   UNL     1      -0.108  10.004  23.725  0.00  0.00    +0.000 OA
ATOM     35  H   UNL     1      -2.468  11.936  22.818  0.00  0.00    +0.000 HD
ATOM     36  H   UNL     1      -2.287  10.973  24.234  0.00  0.00    +0.000 HD
ENDBRANCH   9  32
TORSDOF 3
ENDMDL
MODEL 3
REMARK VINA RESULT:      -9.3      4.647     10.173
REMARK  Name = 
REMARK  4 active torsions:
REMARK  status: ('A' for Active; 'I' for Inactive)
REMARK    1  A    between atoms: C_1  and  N_2
REMARK    2  A    between atoms: C_6  and  C_8
REMARK    3  A    between atoms: C_16  and  C_17
REMARK    4  A    between atoms: C_21  and  C_22
REMARK                            x       y       z     vdW  Elec       q    Type
REMARK                         _______ _______ _______ _____ _____    ______ ____
ROOT
ATOM      1  C   UNL     1       2.449   6.847  18.502  0.00  0.00    +0.000 A 
ATOM      2  C   UNL     1       2.606   7.871  17.565  0.00  0.00    +0.000 A 
ATOM      3  C   UNL     1       2.260   9.187  17.870  0.00  0.00    +0.000 A 
ATOM      4  C   UNL     1       1.621   9.456  19.093  0.00  0.00    +0.000 A 
ATOM      5  C   UNL     1       1.373   8.408  19.976  0.00  0.00    +0.000 A 
ATOM      6  C   UNL     1       1.779   7.092  19.713  0.00  0.00    +0.000 A 
ATOM      7  N   UNL     1       0.699   8.945  21.050  0.00  0.00    +0.000 N 
ATOM      8  C   UNL     1       0.527  10.306  20.895  0.00  0.00    +0.000 A 
ATOM      9  C   UNL     1      -0.096  11.253  21.725  0.00  0.00    +0.000 A 
ATOM     10  C   UNL     1      -0.114  12.583  21.262  0.00  0.00    +0.000 A 
ATOM     11  C   UNL     1       0.440  12.973  20.028  0.00  0.00    +0.000 A 
ATOM     12  C   UNL     1       1.053  11.983  19.243  0.00  0.00    +0.000 A 
ATOM     13  C   UNL     1       1.102  10.645  19.675  0.00  0.00    +0.000 A 
ATOM     14  H   UNL     1       0.358   8.432  21.855  0.00  0.00    +0.000 HD
ENDROOT
BRANCH   1  20
ATOM     15  C   UNL     1       7.168   4.691  14.642  0.00  0.00    +0.000 C 
ATOM     16  N   UNL     1       6.478   4.767  15.925  0.00  0.00    +0.000 NA
ATOM     17  C   UNL     1       5.361   3.796  15.992  0.00  0.00    +0.000 C 
ATOM     18  C   UNL     1       4.578   3.879  17.321  0.00  0.00    +0.000 C 
ATOM     19  N   UNL     1       4.173   5.253  17.627  0.00  0.00    +0.000 N 
ATOM     20  C   UNL     1       2.929   5.463  18.223  0.00  0.00    +0.000 C 
ATOM     21  O   UNL     1       2.179   4.535  18.529  0.00  0.00    +0.000 OA
ATOM     22  C   UNL     1       5.296   6.200  17.557  0.00  0.00    +0.000 C 
ATOM     23  C   UNL     1       5.963   6.127  16.172  0.00  0.00    +0.000 C 
ENDBRANCH   1  20
BRANCH  11  24
ATOM     24  C   UNL     1       0.358  14.372  19.547  0.00  0.00    +0.000 A 
ATOM     25  C   UNL     1       1.419  14.973  18.847  0.00  0.00    +0.000 A 
ATOM     26  C   UNL     1       1.323  16.280  18.357  0.00  0.00    +0.000 A 
ATOM     27  C   UNL     1       0.166  17.026  18.573  0.00  0.00    +0.000 A 
ATOM     28 CL   UNL     1       0.110  18.630  17.938  0.00  0.00    +0.000 Cl
ATOM     29  C   UNL     1      -0.896  16.460  19.279  0.00  0.00    +0.000 A 
ATOM     30 CL   UNL     1      -2.361  17.318  19.605  0.00  0.00    +0.000 Cl
ATOM     31  C   UNL     1      -0.798  15.147  19.753  0.00  0.00    +0.000 A 
ENDBRANCH  11  24
BRANCH   9  32
ATOM     32  C   UNL     1      -0.700  10.817  23.015  0.00  0.00    +0.000 C 
ATOM     33  N   UNL     1      -1.929  11.297  23.363  0.00  0.00    +0.000 N 
ATOM     34  O   UNL     1      -0.112  10.037  23.749  0.00  0.00    +0.000 OA
ATOM     35  H   UNL     1      -2.486  11.942  22.826  0.00  0.00    +0.000 HD
ATOM     36  H   UNL     1      -2.307  10.977  24.240  0.00  0.00    +0.000 HD
ENDBRANCH   9  32
TORSDOF 3
ENDMDL
MODEL 4
REMARK VINA RESULT:      -9.2      1.318      1.423
REMARK  Name = 
REMARK  4 active torsions:
REMARK  status: ('A' for Active; 'I' for Inactive)
REMARK    1  A    between atoms: C_1  and  N_2
REMARK    2  A    between atoms: C_6  and  C_8
REMARK    3  A    between atoms: C_16  and  C_17
REMARK    4  A    between atoms: C_21  and  C_22
REMARK                            x       y       z     vdW  Elec       q    Type
REMARK                         _______ _______ _______ _____ _____    ______ ____
ROOT
ATOM      1  C   UNL     1       1.248   9.531  19.762  0.00  0.00    +0.000 A 
ATOM      2  C   UNL     1       1.782   9.847  18.511  0.00  0.00    +0.000 A 
ATOM      3  C   UNL     1       2.460   8.893  17.755  0.00  0.00    +0.000 A 
ATOM      4  C   UNL     1       2.723   7.635  18.325  0.00  0.00    +0.000 A 
ATOM      5  C   UNL     1       2.278   7.366  19.617  0.00  0.00    +0.000 A 
ATOM      6  C   UNL     1       1.533   8.291  20.361  0.00  0.00    +0.000 A 
ATOM      7  N   UNL     1       2.715   6.100  19.932  0.00  0.00    +0.000 N 
ATOM      8  C   UNL     1       3.406   5.539  18.877  0.00  0.00    +0.000 A 
ATOM      9  C   UNL     1       4.026   4.284  18.749  0.00  0.00    +0.000 A 
ATOM     10  C   UNL     1       4.670   4.020  17.525  0.00  0.00    +0.000 A 
ATOM     11  C   UNL     1       4.723   4.951  16.471  0.00  0.00    +0.000 A 
ATOM     12  C   UNL     1       4.083   6.187  16.655  0.00  0.00    +0.000 A 
ATOM     13  C   UNL     1       3.419   6.485  17.859  0.00  0.00    +0.000 A 
ATOM     14  H   UNL     1       2.570   5.623  20.816  0.00  0.00    +0.000 HD
ENDROOT
BRANCH   1  20
ATOM     15  C   UNL     1      -4.326  12.438  18.248  0.00  0.00    +0.000 C 
ATOM     16  N   UNL     1      -3.471  11.663  19.139  0.00  0.00    +0.000 NA
ATOM     17  C   UNL     1      -2.619  12.546  19.970  0.00  0.00    +0.000 C 
ATOM     18  C   UNL     1      -1.666  11.758  20.896  0.00  0.00    +0.000 C 
ATOM     19  N   UNL     1      -0.908  10.745  20.157  0.00  0.00    +0.000 N 
ATOM     20  C   UNL     1       0.420  10.512  20.521  0.00  0.00    +0.000 C 
ATOM     21  O   UNL     1       0.960  11.103  21.456  0.00  0.00    +0.000 OA
ATOM     22  C   UNL     1      -1.772   9.877  19.343  0.00  0.00    +0.000 C 
ATOM     23  C   UNL     1      -2.618  10.729  18.379  0.00  0.00    +0.000 C 
ENDBRANCH   1  20
BRANCH  11  24
ATOM     24  C   UNL     1       5.454   4.661  15.215  0.00  0.00    +0.000 A 
ATOM     25  C   UNL     1       6.824   4.942  15.079  0.00  0.00    +0.000 A 
ATOM     26  C   UNL     1       7.522   4.629  13.907  0.00  0.00    +0.000 A 
ATOM     27  C   UNL     1       6.857   4.041  12.832  0.00  0.00    +0.000 A 
ATOM     28 CL   UNL     1       7.774   3.674  11.417  0.00  0.00    +0.000 Cl
ATOM     29  C   UNL     1       5.492   3.766  12.934  0.00  0.00    +0.000 A 
ATOM     30 CL   UNL     1       4.587   3.053  11.646  0.00  0.00    +0.000 Cl
ATOM     31  C   UNL     1       4.806   4.068  14.116  0.00  0.00    +0.000 A 
ENDBRANCH  11  24
BRANCH   9  32
ATOM     32  C   UNL     1       3.982   3.322  19.887  0.00  0.00    +0.000 C 
ATOM     33  N   UNL     1       4.967   2.384  19.994  0.00  0.00    +0.000 N 
ATOM     34  O   UNL     1       3.084   3.373  20.714  0.00  0.00    +0.000 OA
ATOM     35  H   UNL     1       5.742   2.265  19.363  0.00  0.00    +0.000 HD
ATOM     36  H   UNL     1       4.905   1.753  20.778  0.00  0.00    +0.000 HD
ENDBRANCH   9  32
TORSDOF 3
ENDMDL
MODEL 5
REMARK VINA RESULT:      -9.1      0.575      1.254
REMARK  Name = 
REMARK  4 active torsions:
REMARK  status: ('A' for Active; 'I' for Inactive)
REMARK    1  A    between atoms: C_1  and  N_2
REMARK    2  A    between atoms: C_6  and  C_8
REMARK    3  A    between atoms: C_16  and  C_17
REMARK    4  A    between atoms: C_21  and  C_22
REMARK                            x       y       z     vdW  Elec       q    Type
REMARK                         _______ _______ _______ _____ _____    ______ ____
ROOT
ATOM      1  C   UNL     1       1.077   8.761  20.416  0.00  0.00    +0.000 A 
ATOM      2  C   UNL     1       1.558   9.193  19.177  0.00  0.00    +0.000 A 
ATOM      3  C   UNL     1       2.259   8.330  18.337  0.00  0.00    +0.000 A 
ATOM      4  C   UNL     1       2.598   7.050  18.805  0.00  0.00    +0.000 A 
ATOM      5  C   UNL     1       2.205   6.667  20.085  0.00  0.00    +0.000 A 
ATOM      6  C   UNL     1       1.439   7.497  20.915  0.00  0.00    +0.000 A 
ATOM      7  N   UNL     1       2.712   5.404  20.295  0.00  0.00    +0.000 N 
ATOM      8  C   UNL     1       3.397   4.956  19.184  0.00  0.00    +0.000 A 
ATOM      9  C   UNL     1       4.072   3.746  18.948  0.00  0.00    +0.000 A 
ATOM     10  C   UNL     1       4.691   3.603  17.692  0.00  0.00    +0.000 A 
ATOM     11  C   UNL     1       4.669   4.609  16.707  0.00  0.00    +0.000 A 
ATOM     12  C   UNL     1       3.976   5.796  16.999  0.00  0.00    +0.000 A 
ATOM     13  C   UNL     1       3.334   5.972  18.238  0.00  0.00    +0.000 A 
ATOM     14  H   UNL     1       2.615   4.858  21.145  0.00  0.00    +0.000 HD
ENDROOT
BRANCH   1  20
ATOM     15  C   UNL     1      -0.699  14.935  19.674  0.00  0.00    +0.000 C 
ATOM     16  N   UNL     1      -0.986  13.525  19.915  0.00  0.00    +0.000 NA
ATOM     17  C   UNL     1      -0.837  13.184  21.349  0.00  0.00    +0.000 C 
ATOM     18  C   UNL     1      -1.089  11.686  21.635  0.00  0.00    +0.000 C 
ATOM     19  N   UNL     1      -0.305  10.825  20.747  0.00  0.00    +0.000 N 
ATOM     20  C   UNL     1       0.226   9.642  21.265  0.00  0.00    +0.000 C 
ATOM     21  O   UNL     1       0.030   9.286  22.428  0.00  0.00    +0.000 OA
ATOM     22  C   UNL     1      -0.469  11.178  19.329  0.00  0.00    +0.000 C 
ATOM     23  C   UNL     1      -0.106  12.658  19.108  0.00  0.00    +0.000 C 
ENDBRANCH   1  20
BRANCH  11  24
ATOM     24  C   UNL     1       5.375   4.448  15.415  0.00  0.00    +0.000 A 
ATOM     25  C   UNL     1       4.857   3.638  14.389  0.00  0.00    +0.000 A 
ATOM     26  C   UNL     1       5.504   3.520  13.154  0.00  0.00    +0.000 A 
ATOM     27  C   UNL     1       6.699   4.199  12.921  0.00  0.00    +0.000 A 
ATOM     28 CL   UNL     1       7.443   4.016  11.376  0.00  0.00    +0.000 Cl
ATOM     29  C   UNL     1       7.244   4.997  13.928  0.00  0.00    +0.000 A 
ATOM     30 CL   UNL     1       8.727   5.861  13.730  0.00  0.00    +0.000 Cl
ATOM     31  C   UNL     1       6.582   5.122  15.155  0.00  0.00    +0.000 A 
ENDBRANCH  11  24
BRANCH   9  32
ATOM     32  C   UNL     1       4.108   2.703  20.013  0.00  0.00    +0.000 C 
ATOM     33  N   UNL     1       5.167   1.845  20.058  0.00  0.00    +0.000 N 
ATOM     34  O   UNL     1       3.209   2.620  20.837  0.00  0.00    +0.000 OA
ATOM     35  H   UNL     1       5.949   1.835  19.423  0.00  0.00    +0.000 HD
ATOM     36  H   UNL     1       5.158   1.156  20.793  0.00  0.00    +0.000 HD
ENDBRANCH   9  32
TORSDOF 3
ENDMDL
MODEL 6
REMARK VINA RESULT:      -9.1      4.527      9.810
REMARK  Name = 
REMARK  4 active torsions:
REMARK  status: ('A' for Active; 'I' for Inactive)
REMARK    1  A    between atoms: C_1  and  N_2
REMARK    2  A    between atoms: C_6  and  C_8
REMARK    3  A    between atoms: C_16  and  C_17
REMARK    4  A    between atoms: C_21  and  C_22
REMARK                            x       y       z     vdW  Elec       q    Type
REMARK                         _______ _______ _______ _____ _____    ______ ____
ROOT
ATOM      1  C   UNL     1       5.910   5.459  15.315  0.00  0.00    +0.000 A 
ATOM      2  C   UNL     1       5.423   6.767  15.385  0.00  0.00    +0.000 A 
ATOM      3  C   UNL     1       4.606   7.175  16.438  0.00  0.00    +0.000 A 
ATOM      4  C   UNL     1       4.163   6.218  17.366  0.00  0.00    +0.000 A 
ATOM      5  C   UNL     1       4.570   4.894  17.226  0.00  0.00    +0.000 A 
ATOM      6  C   UNL     1       5.448   4.482  16.213  0.00  0.00    +0.000 A 
ATOM      7  N   UNL     1       3.951   4.180  18.226  0.00  0.00    +0.000 N 
ATOM      8  C   UNL     1       3.179   5.006  19.018  0.00  0.00    +0.000 A 
ATOM      9  C   UNL     1       2.379   4.720  20.138  0.00  0.00    +0.000 A 
ATOM     10  C   UNL     1       1.697   5.805  20.720  0.00  0.00    +0.000 A 
ATOM     11  C   UNL     1       1.776   7.118  20.219  0.00  0.00    +0.000 A 
ATOM     12  C   UNL     1       2.594   7.344  19.100  0.00  0.00    +0.000 A 
ATOM     13  C   UNL     1       3.302   6.288  18.496  0.00  0.00    +0.000 A 
ATOM     14  H   UNL     1       4.029   3.180  18.380  0.00  0.00    +0.000 HD
ENDROOT
BRANCH   1  20
ATOM     15  C   UNL     1       5.608   0.772  10.870  0.00  0.00    +0.000 C 
ATOM     16  N   UNL     1       5.820   2.156  11.280  0.00  0.00    +0.000 NA
ATOM     17  C   UNL     1       7.216   2.375  11.727  0.00  0.00    +0.000 C 
ATOM     18  C   UNL     1       7.467   3.820  12.212  0.00  0.00    +0.000 C 
ATOM     19  N   UNL     1       6.467   4.243  13.196  0.00  0.00    +0.000 N 
ATOM     20  C   UNL     1       6.879   5.050  14.258  0.00  0.00    +0.000 C 
ATOM     21  O   UNL     1       8.041   5.443  14.376  0.00  0.00    +0.000 OA
ATOM     22  C   UNL     1       5.090   4.020  12.732  0.00  0.00    +0.000 C 
ATOM     23  C   UNL     1       4.892   2.539  12.360  0.00  0.00    +0.000 C 
ENDBRANCH   1  20
BRANCH  11  24
ATOM     24  C   UNL     1       1.004   8.228  20.824  0.00  0.00    +0.000 A 
ATOM     25  C   UNL     1       0.876   8.363  22.217  0.00  0.00    +0.000 A 
ATOM     26  C   UNL     1       0.183   9.436  22.787  0.00  0.00    +0.000 A 
ATOM     27  C   UNL     1      -0.418  10.394  21.972  0.00  0.00    +0.000 A 
ATOM     28 CL   UNL     1      -1.254  11.695  22.737  0.00  0.00    +0.000 Cl
ATOM     29  C   UNL     1      -0.320  10.277  20.585  0.00  0.00    +0.000 A 
ATOM     30 CL   UNL     1      -1.045  11.411  19.501  0.00  0.00    +0.000 Cl
ATOM     31  C   UNL     1       0.389   9.209  20.023  0.00  0.00    +0.000 A 
ENDBRANCH  11  24
BRANCH   9  32
ATOM     32  C   UNL     1       2.286   3.318  20.637  0.00  0.00    +0.000 C 
ATOM     33  N   UNL     1       2.271   3.100  21.984  0.00  0.00    +0.000 N 
ATOM     34  O   UNL     1       2.218   2.380  19.858  0.00  0.00    +0.000 OA
ATOM     35  H   UNL     1       2.325   3.806  22.699  0.00  0.00    +0.000 HD
ATOM     36  H   UNL     1       2.204   2.140  22.284  0.00  0.00    +0.000 HD
ENDBRANCH   9  32
TORSDOF 3
ENDMDL
MODEL 7
REMARK VINA RESULT:      -8.8      1.464      1.951
REMARK  Name = 
REMARK  4 active torsions:
REMARK  status: ('A' for Active; 'I' for Inactive)
REMARK    1  A    between atoms: C_1  and  N_2
REMARK    2  A    between atoms: C_6  and  C_8
REMARK    3  A    between atoms: C_16  and  C_17
REMARK    4  A    between atoms: C_21  and  C_22
REMARK                            x       y       z     vdW  Elec       q    Type
REMARK                         _______ _______ _______ _____ _____    ______ ____
ROOT
ATOM      1  C   UNL     1       1.352   9.492  19.556  0.00  0.00    +0.000 A 
ATOM      2  C   UNL     1       1.877   9.788  18.296  0.00  0.00    +0.000 A 
ATOM      3  C   UNL     1       2.554   8.822  17.553  0.00  0.00    +0.000 A 
ATOM      4  C   UNL     1       2.823   7.575  18.142  0.00  0.00    +0.000 A 
ATOM      5  C   UNL     1       2.387   7.328  19.441  0.00  0.00    +0.000 A 
ATOM      6  C   UNL     1       1.644   8.264  20.175  0.00  0.00    +0.000 A 
ATOM      7  N   UNL     1       2.830   6.068  19.776  0.00  0.00    +0.000 N 
ATOM      8  C   UNL     1       3.515   5.490  18.726  0.00  0.00    +0.000 A 
ATOM      9  C   UNL     1       4.138   4.235  18.616  0.00  0.00    +0.000 A 
ATOM     10  C   UNL     1       4.774   3.952  17.393  0.00  0.00    +0.000 A 
ATOM     11  C   UNL     1       4.819   4.864  16.322  0.00  0.00    +0.000 A 
ATOM     12  C   UNL     1       4.176   6.102  16.489  0.00  0.00    +0.000 A 
ATOM     13  C   UNL     1       3.519   6.419  17.692  0.00  0.00    +0.000 A 
ATOM     14  H   UNL     1       2.691   5.606  20.668  0.00  0.00    +0.000 HD
ENDROOT
BRANCH   1  20
ATOM     15  C   UNL     1      -4.310  12.251  18.091  0.00  0.00    +0.000 C 
ATOM     16  N   UNL     1      -3.418  11.521  18.986  0.00  0.00    +0.000 NA
ATOM     17  C   UNL     1      -2.562  12.446  19.763  0.00  0.00    +0.000 C 
ATOM     18  C   UNL     1      -1.571  11.706  20.690  0.00  0.00    +0.000 C 
ATOM     19  N   UNL     1      -0.814  10.682  19.967  0.00  0.00    +0.000 N 
ATOM     20  C   UNL     1       0.526  10.484  20.303  0.00  0.00    +0.000 C 
ATOM     21  O   UNL     1       1.080  11.115  21.203  0.00  0.00    +0.000 OA
ATOM     22  C   UNL     1      -1.683   9.772  19.204  0.00  0.00    +0.000 C 
ATOM     23  C   UNL     1      -2.568  10.577  18.235  0.00  0.00    +0.000 C 
ENDBRANCH   1  20
BRANCH  11  24
ATOM     24  C   UNL     1       5.542   4.555  15.067  0.00  0.00    +0.000 A 
ATOM     25  C   UNL     1       5.068   3.587  14.163  0.00  0.00    +0.000 A 
ATOM     26  C   UNL     1       5.729   3.327  12.958  0.00  0.00    +0.000 A 
ATOM     27  C   UNL     1       6.896   4.018  12.635  0.00  0.00    +0.000 A 
ATOM     28 CL   UNL     1       7.661   3.654  11.132  0.00  0.00    +0.000 Cl
ATOM     29  C   UNL     1       7.398   4.972  13.522  0.00  0.00    +0.000 A 
ATOM     30 CL   UNL     1       8.844   5.864  13.208  0.00  0.00    +0.000 Cl
ATOM     31  C   UNL     1       6.721   5.238  14.718  0.00  0.00    +0.000 A 
ENDBRANCH  11  24
BRANCH   9  32
ATOM     32  C   UNL     1       4.103   3.292  19.770  0.00  0.00    +0.000 C 
ATOM     33  N   UNL     1       5.118   2.392  19.915  0.00  0.00    +0.000 N 
ATOM     34  O   UNL     1       3.187   3.327  20.578  0.00  0.00    +0.000 OA
ATOM     35  H   UNL     1       5.910   2.289  19.302  0.00  0.00    +0.000 HD
ATOM     36  H   UNL     1       5.062   1.774  20.709  0.00  0.00    +0.000 HD
ENDBRANCH   9  32
TORSDOF 3
ENDMDL
MODEL 8
REMARK VINA RESULT:      -8.4      5.553     11.240
REMARK  Name = 
REMARK  4 active torsions:
REMARK  status: ('A' for Active; 'I' for Inactive)
REMARK    1  A    between atoms: C_1  and  N_2
REMARK    2  A    between atoms: C_6  and  C_8
REMARK    3  A    between atoms: C_16  and  C_17
REMARK    4  A    between atoms: C_21  and  C_22
REMARK                            x       y       z     vdW  Elec       q    Type
REMARK                         _______ _______ _______ _____ _____    ______ ____
ROOT
ATOM      1  C   UNL     1       2.335   7.911  18.370  0.00  0.00    +0.000 A 
ATOM      2  C   UNL     1       2.439   8.472  19.646  0.00  0.00    +0.000 A 
ATOM      3  C   UNL     1       1.455   9.327  20.139  0.00  0.00    +0.000 A 
ATOM      4  C   UNL     1       0.414   9.731  19.286  0.00  0.00    +0.000 A 
ATOM      5  C   UNL     1       0.379   9.249  17.980  0.00  0.00    +0.000 A 
ATOM      6  C   UNL     1       1.321   8.333  17.492  0.00  0.00    +0.000 A 
ATOM      7  N   UNL     1      -0.701   9.843  17.367  0.00  0.00    +0.000 N 
ATOM      8  C   UNL     1      -1.372  10.673  18.242  0.00  0.00    +0.000 A 
ATOM      9  C   UNL     1      -2.512  11.473  18.057  0.00  0.00    +0.000 A 
ATOM     10  C   UNL     1      -2.942  12.224  19.168  0.00  0.00    +0.000 A 
ATOM     11  C   UNL     1      -2.276  12.210  20.408  0.00  0.00    +0.000 A 
ATOM     12  C   UNL     1      -1.144  11.388  20.534  0.00  0.00    +0.000 A 
ATOM     13  C   UNL     1      -0.689  10.613  19.452  0.00  0.00    +0.000 A 
ATOM     14  H   UNL     1      -0.983   9.712  16.401  0.00  0.00    +0.000 HD
ENDROOT
BRANCH   1  20
ATOM     15  C   UNL     1       4.030   2.145  20.757  0.00  0.00    +0.000 C 
ATOM     16  N   UNL     1       3.588   3.020  19.676  0.00  0.00    +0.000 NA
ATOM     17  C   UNL     1       4.737   3.680  19.015  0.00  0.00    +0.000 C 
ATOM     18  C   UNL     1       4.303   4.650  17.893  0.00  0.00    +0.000 C 
ATOM     19  N   UNL     1       3.280   5.591  18.356  0.00  0.00    +0.000 N 
ATOM     20  C   UNL     1       3.321   6.904  17.885  0.00  0.00    +0.000 C 
ATOM     21  O   UNL     1       4.164   7.287  17.073  0.00  0.00    +0.000 OA
ATOM     22  C   UNL     1       2.147   4.915  19.007  0.00  0.00    +0.000 C 
ATOM     23  C   UNL     1       2.650   4.045  20.173  0.00  0.00    +0.000 C 
ENDBRANCH   1  20
BRANCH  11  24
ATOM     24  C   UNL     1      -2.725  13.052  21.541  0.00  0.00    +0.000 A 
ATOM     25  C   UNL     1      -2.587  14.451  21.519  0.00  0.00    +0.000 A 
ATOM     26  C   UNL     1      -3.050  15.248  22.571  0.00  0.00    +0.000 A 
ATOM     27  C   UNL     1      -3.649  14.660  23.684  0.00  0.00    +0.000 A 
ATOM     28 CL   UNL     1      -4.203  15.699  24.946  0.00  0.00    +0.000 Cl
ATOM     29  C   UNL     1      -3.784  13.272  23.740  0.00  0.00    +0.000 A 
ATOM     30 CL   UNL     1      -4.500  12.460  25.087  0.00  0.00    +0.000 Cl
ATOM     31  C   UNL     1      -3.332  12.483  22.676  0.00  0.00    +0.000 A 
ENDBRANCH  11  24
BRANCH   9  32
ATOM     32  C   UNL     1      -3.188  11.496  16.729  0.00  0.00    +0.000 C 
ATOM     33  N   UNL     1      -4.456  11.992  16.645  0.00  0.00    +0.000 N 
ATOM     34  O   UNL     1      -2.617  11.085  15.730  0.00  0.00    +0.000 OA
ATOM     35  H   UNL     1      -5.005  12.349  17.411  0.00  0.00    +0.000 HD
ATOM     36  H   UNL     1      -4.880  11.994  15.731  0.00  0.00    +0.000 HD
ENDBRANCH   9  32
TORSDOF 3
ENDMDL
MODEL 9
REMARK VINA RESULT:      -8.4      1.693      1.909
REMARK  Name = 
REMARK  4 active torsions:
REMARK  status: ('A' for Active; 'I' for Inactive)
REMARK    1  A    between atoms: C_1  and  N_2
REMARK    2  A    between atoms: C_6  and  C_8
REMARK    3  A    between atoms: C_16  and  C_17
REMARK    4  A    between atoms: C_21  and  C_22
REMARK                            x       y       z     vdW  Elec       q    Type
REMARK                         _______ _______ _______ _____ _____    ______ ____
ROOT
ATOM      1  C   UNL     1       0.715  10.410  19.807  0.00  0.00    +0.000 A 
ATOM      2  C   UNL     1       1.414  10.657  18.622  0.00  0.00    +0.000 A 
ATOM      3  C   UNL     1       2.128   9.645  17.983  0.00  0.00    +0.000 A 
ATOM      4  C   UNL     1       2.251   8.396  18.613  0.00  0.00    +0.000 A 
ATOM      5  C   UNL     1       1.638   8.193  19.848  0.00  0.00    +0.000 A 
ATOM      6  C   UNL     1       0.858   9.178  20.469  0.00  0.00    +0.000 A 
ATOM      7  N   UNL     1       1.966   6.918  20.249  0.00  0.00    +0.000 N 
ATOM      8  C   UNL     1       2.749   6.288  19.302  0.00  0.00    +0.000 A 
ATOM      9  C   UNL     1       3.312   5.000  19.286  0.00  0.00    +0.000 A 
ATOM     10  C   UNL     1       4.085   4.664  18.158  0.00  0.00    +0.000 A 
ATOM     11  C   UNL     1       4.317   5.555  17.094  0.00  0.00    +0.000 A 
ATOM     12  C   UNL     1       3.725   6.827  17.164  0.00  0.00    +0.000 A 
ATOM     13  C   UNL     1       2.936   7.198  18.269  0.00  0.00    +0.000 A 
ATOM     14  H   UNL     1       1.688   6.478  21.120  0.00  0.00    +0.000 HD
ENDROOT
BRANCH   1  20
ATOM     15  C   UNL     1       2.229  16.060  22.564  0.00  0.00    +0.000 C 
ATOM     16  N   UNL     1       1.473  15.239  21.624  0.00  0.00    +0.000 NA
ATOM     17  C   UNL     1       0.288  14.632  22.273  0.00  0.00    +0.000 C 
ATOM     18  C   UNL     1      -0.512  13.718  21.318  0.00  0.00    +0.000 C 
ATOM     19  N   UNL     1       0.352  12.740  20.652  0.00  0.00    +0.000 N 
ATOM     20  C   UNL     1      -0.146  11.455  20.430  0.00  0.00    +0.000 C 
ATOM     21  O   UNL     1      -1.291  11.129  20.744  0.00  0.00    +0.000 OA
ATOM     22  C   UNL     1       1.520  13.364  20.012  0.00  0.00    +0.000 C 
ATOM     23  C   UNL     1       2.318  14.176  21.048  0.00  0.00    +0.000 C 
ENDBRANCH   1  20
BRANCH  11  24
ATOM     24  C   UNL     1       5.178   5.188  15.946  0.00  0.00    +0.000 A 
ATOM     25  C   UNL     1       6.562   5.437  15.954  0.00  0.00    +0.000 A 
ATOM     26  C   UNL     1       7.380   5.052  14.887  0.00  0.00    +0.000 A 
ATOM     27  C   UNL     1       6.828   4.420  13.774  0.00  0.00    +0.000 A 
ATOM     28 CL   UNL     1       7.892   3.965  12.494  0.00  0.00    +0.000 Cl
ATOM     29  C   UNL     1       5.455   4.175  13.732  0.00  0.00    +0.000 A 
ATOM     30 CL   UNL     1       4.686   3.411  12.386  0.00  0.00    +0.000 Cl
ATOM     31  C   UNL     1       4.646   4.550  14.811  0.00  0.00    +0.000 A 
ENDBRANCH  11  24
BRANCH   9  32
ATOM     32  C   UNL     1       3.078   4.080  20.435  0.00  0.00    +0.000 C 
ATOM     33  N   UNL     1       3.423   2.766  20.306  0.00  0.00    +0.000 N 
ATOM     34  O   UNL     1       2.592   4.492  21.477  0.00  0.00    +0.000 OA
ATOM     35  H   UNL     1       3.826   2.337  19.489  0.00  0.00    +0.000 HD
ATOM     36  H   UNL     1       3.253   2.175  21.105  0.00  0.00    +0.000 HD
ENDBRANCH   9  32
TORSDOF 3
ENDMDL
