MODEL 1
REMARK VINA RESULT:      -8.5      0.000      0.000
REMARK  Name = 
REMARK  5 active torsions:
REMARK  status: ('A' for Active; 'I' for Inactive)
REMARK    1  A    between atoms: C_1  and  C_2
REMARK    2  A    between atoms: C_4  and  C_5
REMARK    3  A    between atoms: C_5  and  N_6
REMARK    4  A    between atoms: C_10  and  C_11
REMARK    5  A    between atoms: C_20  and  C_21
REMARK                            x       y       z     vdW  Elec       q    Type
REMARK                         _______ _______ _______ _____ _____    ______ ____
ROOT
ATOM      1  N   UNL     1       5.705   5.462  17.376  0.00  0.00    +0.000 N 
ATOM      2  C   UNL     1       5.222   6.686  16.988  0.00  0.00    +0.000 A 
ATOM      3  N   UNL     1       4.094   7.188  17.369  0.00  0.00    +0.000 NA
ATOM      4  C   UNL     1       3.323   6.404  18.184  0.00  0.00    +0.000 A 
ATOM      5  C   UNL     1       3.661   5.193  18.649  0.00  0.00    +0.000 A 
ATOM      6  C   UNL     1       5.002   4.672  18.264  0.00  0.00    +0.000 A 
ATOM      7  O   UNL     1       5.436   3.624  18.736  0.00  0.00    +0.000 OA
ENDROOT
BRANCH   5   8
ATOM      8  C   UNL     1       2.715   4.413  19.453  0.00  0.00    +0.000 A 
ATOM      9  C   UNL     1       2.873   4.365  20.846  0.00  0.00    +0.000 A 
ATOM     10  C   UNL     1       2.017   3.587  21.626  0.00  0.00    +0.000 A 
ATOM     11  C   UNL     1       0.999   2.851  21.021  0.00  0.00    +0.000 A 
ATOM     12  C   UNL     1       0.831   2.900  19.638  0.00  0.00    +0.000 A 
ATOM     13  C   UNL     1       1.687   3.677  18.854  0.00  0.00    +0.000 A 
ENDBRANCH   5   8
BRANCH   1  14
ATOM     14  C   UNL     1       7.005   5.013  16.904  0.00  0.00    +0.000 C 
BRANCH  14  18
ATOM     15  C   UNL     1       5.861   3.263  12.397  0.00  0.00    +0.000 C 
ATOM     16  C   UNL     1       6.515   4.031  13.476  0.00  0.00    +0.000 A 
ATOM     17  N   UNL     1       6.216   3.821  14.806  0.00  0.00    +0.000 NA
ATOM     18  C   UNL     1       6.962   4.705  15.445  0.00  0.00    +0.000 A 
ATOM     19  O   UNL     1       7.744   5.475  14.628  0.00  0.00    +0.000 OA
ATOM     20  C   UNL     1       7.450   5.039  13.369  0.00  0.00    +0.000 A 
ATOM     21  C   UNL     1       8.129   5.700  12.241  0.00  0.00    +0.000 C 
ENDBRANCH  14  18
ENDBRANCH   1  14
TORSDOF 3
ENDMDL
MODEL 2
REMARK VINA RESULT:      -8.4      0.068      1.056
REMARK  Name = 
REMARK  5 active torsions:
REMARK  status: ('A' for Active; 'I' for Inactive)
REMARK    1  A    between atoms: C_1  and  C_2
REMARK    2  A    between atoms: C_4  and  C_5
REMARK    3  A    between atoms: C_5  and  N_6
REMARK    4  A    between atoms: C_10  and  C_11
REMARK    5  A    between atoms: C_20  and  C_21
REMARK                            x       y       z     vdW  Elec       q    Type
REMARK                         _______ _______ _______ _____ _____    ______ ____
ROOT
ATOM      1  N   UNL     1       5.717   5.453  17.377  0.00  0.00    +0.000 N 
ATOM      2  C   UNL     1       5.213   6.676  17.012  0.00  0.00    +0.000 A 
ATOM      3  N   UNL     1       4.082   7.155  17.410  0.00  0.00    +0.000 NA
ATOM      4  C   UNL     1       3.327   6.348  18.217  0.00  0.00    +0.000 A 
ATOM      5  C   UNL     1       3.686   5.134  18.660  0.00  0.00    +0.000 A 
ATOM      6  C   UNL     1       5.031   4.638  18.257  0.00  0.00    +0.000 A 
ATOM      7  O   UNL     1       5.483   3.589  18.708  0.00  0.00    +0.000 OA
ENDROOT
BRANCH   5   8
ATOM      8  C   UNL     1       2.757   4.328  19.458  0.00  0.00    +0.000 A 
ATOM      9  C   UNL     1       1.757   3.589  18.812  0.00  0.00    +0.000 A 
ATOM     10  C   UNL     1       0.829   2.858  19.555  0.00  0.00    +0.000 A 
ATOM     11  C   UNL     1       0.893   2.861  20.947  0.00  0.00    +0.000 A 
ATOM     12  C   UNL     1       1.890   3.587  21.597  0.00  0.00    +0.000 A 
ATOM     13  C   UNL     1       2.819   4.322  20.857  0.00  0.00    +0.000 A 
ENDBRANCH   5   8
BRANCH   1  14
ATOM     14  C   UNL     1       7.019   5.030  16.888  0.00  0.00    +0.000 C 
BRANCH  14  18
ATOM     15  C   UNL     1       5.830   3.239  12.409  0.00  0.00    +0.000 C 
ATOM     16  C   UNL     1       6.494   4.017  13.474  0.00  0.00    +0.000 A 
ATOM     17  N   UNL     1       6.210   3.818  14.809  0.00  0.00    +0.000 NA
ATOM     18  C   UNL     1       6.960   4.709  15.433  0.00  0.00    +0.000 A 
ATOM     19  O   UNL     1       7.732   5.474  14.601  0.00  0.00    +0.000 OA
ATOM     20  C   UNL     1       7.425   5.026  13.349  0.00  0.00    +0.000 A 
ATOM     21  C   UNL     1       8.090   5.679  12.208  0.00  0.00    +0.000 C 
ENDBRANCH  14  18
ENDBRANCH   1  14
TORSDOF 3
ENDMDL
MODEL 3
REMARK VINA RESULT:      -8.1      0.713      1.321
REMARK  Name = 
REMARK  5 active torsions:
REMARK  status: ('A' for Active; 'I' for Inactive)
REMARK    1  A    between atoms: C_1  and  C_2
REMARK    2  A    between atoms: C_4  and  C_5
REMARK    3  A    between atoms: C_5  and  N_6
REMARK    4  A    between atoms: C_10  and  C_11
REMARK    5  A    between atoms: C_20  and  C_21
REMARK                            x       y       z     vdW  Elec       q    Type
REMARK                         _______ _______ _______ _____ _____    ______ ____
ROOT
ATOM      1  N   UNL     1       5.708   5.247  17.329  0.00  0.00    +0.000 N 
ATOM      2  C   UNL     1       5.270   6.491  16.951  0.00  0.00    +0.000 A 
ATOM      3  N   UNL     1       4.175   7.042  17.358  0.00  0.00    +0.000 NA
ATOM      4  C   UNL     1       3.388   6.292  18.191  0.00  0.00    +0.000 A 
ATOM      5  C   UNL     1       3.683   5.067  18.648  0.00  0.00    +0.000 A 
ATOM      6  C   UNL     1       4.990   4.487  18.233  0.00  0.00    +0.000 A 
ATOM      7  O   UNL     1       5.388   3.421  18.695  0.00  0.00    +0.000 OA
ENDROOT
BRANCH   5   8
ATOM      8  C   UNL     1       2.722   4.329  19.474  0.00  0.00    +0.000 A 
ATOM      9  C   UNL     1       2.895   4.295  20.865  0.00  0.00    +0.000 A 
ATOM     10  C   UNL     1       2.024   3.555  21.666  0.00  0.00    +0.000 A 
ATOM     11  C   UNL     1       0.976   2.845  21.083  0.00  0.00    +0.000 A 
ATOM     12  C   UNL     1       0.792   2.881  19.701  0.00  0.00    +0.000 A 
ATOM     13  C   UNL     1       1.663   3.618  18.897  0.00  0.00    +0.000 A 
ENDBRANCH   5   8
BRANCH   1  14
ATOM     14  C   UNL     1       6.975   4.741  16.827  0.00  0.00    +0.000 C 
BRANCH  14  18
ATOM     15  C   UNL     1       8.077   5.618  12.062  0.00  0.00    +0.000 C 
ATOM     16  C   UNL     1       7.434   5.065  13.272  0.00  0.00    +0.000 A 
ATOM     17  N   UNL     1       7.744   5.520  14.536  0.00  0.00    +0.000 NA
ATOM     18  C   UNL     1       7.005   4.771  15.336  0.00  0.00    +0.000 A 
ATOM     19  O   UNL     1       6.218   3.862  14.684  0.00  0.00    +0.000 OA
ATOM     20  C   UNL     1       6.500   4.055  13.363  0.00  0.00    +0.000 A 
ATOM     21  C   UNL     1       5.813   3.195  12.385  0.00  0.00    +0.000 C 
ENDBRANCH  14  18
ENDBRANCH   1  14
TORSDOF 3
ENDMDL
MODEL 4
REMARK VINA RESULT:      -8.0      0.724      1.693
REMARK  Name = 
REMARK  5 active torsions:
REMARK  status: ('A' for Active; 'I' for Inactive)
REMARK    1  A    between atoms: C_1  and  C_2
REMARK    2  A    between atoms: C_4  and  C_5
REMARK    3  A    between atoms: C_5  and  N_6
REMARK    4  A    between atoms: C_10  and  C_11
REMARK    5  A    between atoms: C_20  and  C_21
REMARK                            x       y       z     vdW  Elec       q    Type
REMARK                         _______ _______ _______ _____ _____    ______ ____
ROOT
ATOM      1  N   UNL     1       5.698   5.235  17.324  0.00  0.00    +0.000 N 
ATOM      2  C   UNL     1       5.201   6.451  16.929  0.00  0.00    +0.000 A 
ATOM      3  N   UNL     1       4.089   6.963  17.343  0.00  0.00    +0.000 NA
ATOM      4  C   UNL     1       3.349   6.198  18.203  0.00  0.00    +0.000 A 
ATOM      5  C   UNL     1       3.704   4.997  18.680  0.00  0.00    +0.000 A 
ATOM      6  C   UNL     1       5.028   4.465  18.255  0.00  0.00    +0.000 A 
ATOM      7  O   UNL     1       5.480   3.427  18.732  0.00  0.00    +0.000 OA
ENDROOT
BRANCH   5   8
ATOM      8  C   UNL     1       2.790   4.236  19.537  0.00  0.00    +0.000 A 
ATOM      9  C   UNL     1       1.658   3.631  18.971  0.00  0.00    +0.000 A 
ATOM     10  C   UNL     1       0.746   2.948  19.776  0.00  0.00    +0.000 A 
ATOM     11  C   UNL     1       0.956   2.864  21.151  0.00  0.00    +0.000 A 
ATOM     12  C   UNL     1       2.083   3.456  21.721  0.00  0.00    +0.000 A 
ATOM     13  C   UNL     1       2.997   4.142  20.919  0.00  0.00    +0.000 A 
ENDBRANCH   5   8
BRANCH   1  14
ATOM     14  C   UNL     1       6.978   4.774  16.812  0.00  0.00    +0.000 C 
BRANCH  14  18
ATOM     15  C   UNL     1       8.006   5.573  12.017  0.00  0.00    +0.000 C 
ATOM     16  C   UNL     1       7.382   5.040  13.245  0.00  0.00    +0.000 A 
ATOM     17  N   UNL     1       7.711   5.515  14.497  0.00  0.00    +0.000 NA
ATOM     18  C   UNL     1       6.985   4.780  15.321  0.00  0.00    +0.000 A 
ATOM     19  O   UNL     1       6.189   3.859  14.696  0.00  0.00    +0.000 OA
ATOM     20  C   UNL     1       6.451   4.030  13.368  0.00  0.00    +0.000 A 
ATOM     21  C   UNL     1       5.749   3.153  12.415  0.00  0.00    +0.000 C 
ENDBRANCH  14  18
ENDBRANCH   1  14
TORSDOF 3
ENDMDL
MODEL 5
REMARK VINA RESULT:      -8.0      2.122      3.413
REMARK  Name = 
REMARK  5 active torsions:
REMARK  status: ('A' for Active; 'I' for Inactive)
REMARK    1  A    between atoms: C_1  and  C_2
REMARK    2  A    between atoms: C_4  and  C_5
REMARK    3  A    between atoms: C_5  and  N_6
REMARK    4  A    between atoms: C_10  and  C_11
REMARK    5  A    between atoms: C_20  and  C_21
REMARK                            x       y       z     vdW  Elec       q    Type
REMARK                         _______ _______ _______ _____ _____    ______ ____
ROOT
ATOM      1  N   UNL     1       5.024   4.607  17.438  0.00  0.00    +0.000 N 
ATOM      2  C   UNL     1       4.169   3.534  17.431  0.00  0.00    +0.000 A 
ATOM      3  N   UNL     1       2.903   3.600  17.676  0.00  0.00    +0.000 NA
ATOM      4  C   UNL     1       2.409   4.832  18.008  0.00  0.00    +0.000 A 
ATOM      5  C   UNL     1       3.117   5.969  18.053  0.00  0.00    +0.000 A 
ATOM      6  C   UNL     1       4.557   5.884  17.684  0.00  0.00    +0.000 A 
ATOM      7  O   UNL     1       5.251   6.893  17.590  0.00  0.00    +0.000 OA
ENDROOT
BRANCH   5   8
ATOM      8  C   UNL     1       2.493   7.218  18.500  0.00  0.00    +0.000 A 
ATOM      9  C   UNL     1       2.097   7.349  19.839  0.00  0.00    +0.000 A 
ATOM     10  C   UNL     1       1.452   8.508  20.274  0.00  0.00    +0.000 A 
ATOM     11  C   UNL     1       1.198   9.543  19.376  0.00  0.00    +0.000 A 
ATOM     12  C   UNL     1       1.596   9.423  18.044  0.00  0.00    +0.000 A 
ATOM     13  C   UNL     1       2.239   8.265  17.605  0.00  0.00    +0.000 A 
ENDBRANCH   5   8
BRANCH   1  14
ATOM     14  C   UNL     1       6.430   4.417  17.117  0.00  0.00    +0.000 C 
BRANCH  14  18
ATOM     15  C   UNL     1       8.169   5.676  12.636  0.00  0.00    +0.000 C 
ATOM     16  C   UNL     1       7.369   5.029  13.696  0.00  0.00    +0.000 A 
ATOM     17  N   UNL     1       7.501   5.377  15.024  0.00  0.00    +0.000 NA
ATOM     18  C   UNL     1       6.664   4.569  15.652  0.00  0.00    +0.000 A 
ATOM     19  O   UNL     1       5.977   3.721  14.825  0.00  0.00    +0.000 OA
ATOM     20  C   UNL     1       6.437   4.020  13.576  0.00  0.00    +0.000 A 
ATOM     21  C   UNL     1       5.895   3.247  12.445  0.00  0.00    +0.000 C 
ENDBRANCH  14  18
ENDBRANCH   1  14
TORSDOF 3
ENDMDL
MODEL 6
REMARK VINA RESULT:      -8.0      1.635      6.982
REMARK  Name = 
REMARK  5 active torsions:
REMARK  status: ('A' for Active; 'I' for Inactive)
REMARK    1  A    between atoms: C_1  and  C_2
REMARK    2  A    between atoms: C_4  and  C_5
REMARK    3  A    between atoms: C_5  and  N_6
REMARK    4  A    between atoms: C_10  and  C_11
REMARK    5  A    between atoms: C_20  and  C_21
REMARK                            x       y       z     vdW  Elec       q    Type
REMARK                         _______ _______ _______ _____ _____    ______ ____
ROOT
ATOM      1  N   UNL     1       5.280   5.569  18.146  0.00  0.00    +0.000 N 
ATOM      2  C   UNL     1       6.315   5.071  18.896  0.00  0.00    +0.000 A 
ATOM      3  N   UNL     1       7.403   4.570  18.412  0.00  0.00    +0.000 NA
ATOM      4  C   UNL     1       7.486   4.500  17.047  0.00  0.00    +0.000 A 
ATOM      5  C   UNL     1       6.561   4.947  16.186  0.00  0.00    +0.000 A 
ATOM      6  C   UNL     1       5.355   5.597  16.767  0.00  0.00    +0.000 A 
ATOM      7  O   UNL     1       4.514   6.133  16.049  0.00  0.00    +0.000 OA
ENDROOT
BRANCH   5   8
ATOM      8  C   UNL     1       6.728   4.745  14.743  0.00  0.00    +0.000 A 
ATOM      9  C   UNL     1       5.952   3.778  14.089  0.00  0.00    +0.000 A 
ATOM     10  C   UNL     1       6.132   3.531  12.728  0.00  0.00    +0.000 A 
ATOM     11  C   UNL     1       7.088   4.247  12.010  0.00  0.00    +0.000 A 
ATOM     12  C   UNL     1       7.859   5.216  12.651  0.00  0.00    +0.000 A 
ATOM     13  C   UNL     1       7.683   5.465  14.014  0.00  0.00    +0.000 A 
ENDBRANCH   5   8
BRANCH   1  14
ATOM     14  C   UNL     1       4.115   6.137  18.804  0.00  0.00    +0.000 C 
BRANCH  14  18
ATOM     15  C   UNL     1       0.760   2.472  18.707  0.00  0.00    +0.000 C 
ATOM     16  C   UNL     1       1.724   3.475  19.204  0.00  0.00    +0.000 A 
ATOM     17  N   UNL     1       2.331   4.384  18.363  0.00  0.00    +0.000 NA
ATOM     18  C   UNL     1       3.134   5.070  19.158  0.00  0.00    +0.000 A 
ATOM     19  O   UNL     1       3.087   4.685  20.470  0.00  0.00    +0.000 OA
ATOM     20  C   UNL     1       2.184   3.662  20.491  0.00  0.00    +0.000 A 
ATOM     21  C   UNL     1       1.924   3.007  21.784  0.00  0.00    +0.000 C 
ENDBRANCH  14  18
ENDBRANCH   1  14
TORSDOF 3
ENDMDL
MODEL 7
REMARK VINA RESULT:      -8.0      1.986      3.149
REMARK  Name = 
REMARK  5 active torsions:
REMARK  status: ('A' for Active; 'I' for Inactive)
REMARK    1  A    between atoms: C_1  and  C_2
REMARK    2  A    between atoms: C_4  and  C_5
REMARK    3  A    between atoms: C_5  and  N_6
REMARK    4  A    between atoms: C_10  and  C_11
REMARK    5  A    between atoms: C_20  and  C_21
REMARK                            x       y       z     vdW  Elec       q    Type
REMARK                         _______ _______ _______ _____ _____    ______ ____
ROOT
ATOM      1  N   UNL     1       5.165   4.760  17.446  0.00  0.00    +0.000 N 
ATOM      2  C   UNL     1       4.394   3.631  17.561  0.00  0.00    +0.000 A 
ATOM      3  N   UNL     1       3.144   3.622  17.884  0.00  0.00    +0.000 NA
ATOM      4  C   UNL     1       2.579   4.835  18.172  0.00  0.00    +0.000 A 
ATOM      5  C   UNL     1       3.201   6.020  18.100  0.00  0.00    +0.000 A 
ATOM      6  C   UNL     1       4.618   6.014  17.644  0.00  0.00    +0.000 A 
ATOM      7  O   UNL     1       5.226   7.062  17.443  0.00  0.00    +0.000 OA
ENDROOT
BRANCH   5   8
ATOM      8  C   UNL     1       2.512   7.248  18.510  0.00  0.00    +0.000 A 
ATOM      9  C   UNL     1       2.110   7.399  19.845  0.00  0.00    +0.000 A 
ATOM     10  C   UNL     1       1.405   8.535  20.245  0.00  0.00    +0.000 A 
ATOM     11  C   UNL     1       1.099   9.527  19.316  0.00  0.00    +0.000 A 
ATOM     12  C   UNL     1       1.502   9.389  17.989  0.00  0.00    +0.000 A 
ATOM     13  C   UNL     1       2.206   8.253  17.584  0.00  0.00    +0.000 A 
ENDBRANCH   5   8
BRANCH   1  14
ATOM     14  C   UNL     1       6.558   4.650  17.046  0.00  0.00    +0.000 C 
BRANCH  14  18
ATOM     15  C   UNL     1       5.880   3.311  12.309  0.00  0.00    +0.000 C 
ATOM     16  C   UNL     1       6.432   3.962  13.515  0.00  0.00    +0.000 A 
ATOM     17  N   UNL     1       5.974   3.663  14.781  0.00  0.00    +0.000 NA
ATOM     18  C   UNL     1       6.672   4.459  15.571  0.00  0.00    +0.000 A 
ATOM     19  O   UNL     1       7.571   5.255  14.913  0.00  0.00    +0.000 OA
ATOM     20  C   UNL     1       7.408   4.933  13.597  0.00  0.00    +0.000 A 
ATOM     21  C   UNL     1       8.236   5.649  12.611  0.00  0.00    +0.000 C 
ENDBRANCH  14  18
ENDBRANCH   1  14
TORSDOF 3
ENDMDL
MODEL 8
REMARK VINA RESULT:      -8.0      1.607      6.948
REMARK  Name = 
REMARK  5 active torsions:
REMARK  status: ('A' for Active; 'I' for Inactive)
REMARK    1  A    between atoms: C_1  and  C_2
REMARK    2  A    between atoms: C_4  and  C_5
REMARK    3  A    between atoms: C_5  and  N_6
REMARK    4  A    between atoms: C_10  and  C_11
REMARK    5  A    between atoms: C_20  and  C_21
REMARK                            x       y       z     vdW  Elec       q    Type
REMARK                         _______ _______ _______ _____ _____    ______ ____
ROOT
ATOM      1  N   UNL     1       5.275   5.591  18.057  0.00  0.00    +0.000 N 
ATOM      2  C   UNL     1       6.299   5.122  18.840  0.00  0.00    +0.000 A 
ATOM      3  N   UNL     1       7.395   4.608  18.390  0.00  0.00    +0.000 NA
ATOM      4  C   UNL     1       7.501   4.493  17.030  0.00  0.00    +0.000 A 
ATOM      5  C   UNL     1       6.590   4.909  16.139  0.00  0.00    +0.000 A 
ATOM      6  C   UNL     1       5.372   5.574  16.679  0.00  0.00    +0.000 A 
ATOM      7  O   UNL     1       4.542   6.084  15.930  0.00  0.00    +0.000 OA
ENDROOT
BRANCH   5   8
ATOM      8  C   UNL     1       6.781   4.659  14.707  0.00  0.00    +0.000 A 
ATOM      9  C   UNL     1       7.703   5.436  13.990  0.00  0.00    +0.000 A 
ATOM     10  C   UNL     1       7.862   5.252  12.616  0.00  0.00    +0.000 A 
ATOM     11  C   UNL     1       7.102   4.293  11.949  0.00  0.00    +0.000 A 
ATOM     12  C   UNL     1       6.189   3.511  12.656  0.00  0.00    +0.000 A 
ATOM     13  C   UNL     1       6.026   3.694  14.031  0.00  0.00    +0.000 A 
ENDBRANCH   5   8
BRANCH   1  14
ATOM     14  C   UNL     1       4.098   6.178  18.677  0.00  0.00    +0.000 C 
BRANCH  14  18
ATOM     15  C   UNL     1       0.749   2.507  18.719  0.00  0.00    +0.000 C 
ATOM     16  C   UNL     1       1.718   3.524  19.177  0.00  0.00    +0.000 A 
ATOM     17  N   UNL     1       2.312   4.412  18.305  0.00  0.00    +0.000 NA
ATOM     18  C   UNL     1       3.124   5.119  19.071  0.00  0.00    +0.000 A 
ATOM     19  O   UNL     1       3.096   4.767  20.393  0.00  0.00    +0.000 OA
ATOM     20  C   UNL     1       2.196   3.744  20.452  0.00  0.00    +0.000 A 
ATOM     21  C   UNL     1       1.954   3.122  21.765  0.00  0.00    +0.000 C 
ENDBRANCH  14  18
ENDBRANCH   1  14
TORSDOF 3
ENDMDL
MODEL 9
REMARK VINA RESULT:      -7.9      2.108      3.457
REMARK  Name = 
REMARK  5 active torsions:
REMARK  status: ('A' for Active; 'I' for Inactive)
REMARK    1  A    between atoms: C_1  and  C_2
REMARK    2  A    between atoms: C_4  and  C_5
REMARK    3  A    between atoms: C_5  and  N_6
REMARK    4  A    between atoms: C_10  and  C_11
REMARK    5  A    between atoms: C_20  and  C_21
REMARK                            x       y       z     vdW  Elec       q    Type
REMARK                         _______ _______ _______ _____ _____    ______ ____
ROOT
ATOM      1  N   UNL     1       4.975   4.524  17.346  0.00  0.00    +0.000 N 
ATOM      2  C   UNL     1       4.132   3.447  17.247  0.00  0.00    +0.000 A 
ATOM      3  N   UNL     1       2.860   3.484  17.469  0.00  0.00    +0.000 NA
ATOM      4  C   UNL     1       2.346   4.687  17.874  0.00  0.00    +0.000 A 
ATOM      5  C   UNL     1       3.042   5.824  18.011  0.00  0.00    +0.000 A 
ATOM      6  C   UNL     1       4.490   5.777  17.669  0.00  0.00    +0.000 A 
ATOM      7  O   UNL     1       5.175   6.797  17.659  0.00  0.00    +0.000 OA
ENDROOT
BRANCH   5   8
ATOM      8  C   UNL     1       2.395   7.034  18.529  0.00  0.00    +0.000 A 
ATOM      9  C   UNL     1       2.116   8.093  17.653  0.00  0.00    +0.000 A 
ATOM     10  C   UNL     1       1.550   9.275  18.134  0.00  0.00    +0.000 A 
ATOM     11  C   UNL     1       1.259   9.407  19.490  0.00  0.00    +0.000 A 
ATOM     12  C   UNL     1       1.527   8.355  20.366  0.00  0.00    +0.000 A 
ATOM     13  C   UNL     1       2.095   7.172  19.889  0.00  0.00    +0.000 A 
ENDBRANCH   5   8
BRANCH   1  14
ATOM     14  C   UNL     1       6.389   4.369  17.044  0.00  0.00    +0.000 C 
BRANCH  14  18
ATOM     15  C   UNL     1       8.186   5.663  12.596  0.00  0.00    +0.000 C 
ATOM     16  C   UNL     1       7.369   5.012  13.640  0.00  0.00    +0.000 A 
ATOM     17  N   UNL     1       7.490   5.343  14.974  0.00  0.00    +0.000 NA
ATOM     18  C   UNL     1       6.639   4.536  15.583  0.00  0.00    +0.000 A 
ATOM     19  O   UNL     1       5.954   3.703  14.740  0.00  0.00    +0.000 OA
ATOM     20  C   UNL     1       6.429   4.012  13.499  0.00  0.00    +0.000 A 
ATOM     21  C   UNL     1       5.892   3.257  12.354  0.00  0.00    +0.000 C 
ENDBRANCH  14  18
ENDBRANCH   1  14
TORSDOF 3
ENDMDL
