MODEL 1
REMARK VINA RESULT:      -8.2      0.000      0.000
REMARK  Name = 
REMARK  7 active torsions:
REMARK  status: ('A' for Active; 'I' for Inactive)
REMARK    1  A    between atoms: C_1  and  C_2
REMARK    2  A    between atoms: C_2  and  C_8
REMARK    3  A    between atoms: N_3  and  N_4
REMARK    4  A    between atoms: C_11  and  C_12
REMARK    5  A    between atoms: C_15  and  C_16
REMARK    6  A    between atoms: C_16  and  C_17
REMARK    7  A    between atoms: N_18  and  N_19
REMARK                            x       y       z     vdW  Elec       q    Type
REMARK                         _______ _______ _______ _____ _____    ______ ____
ROOT
ATOM      1  C   UNL     1       2.725   6.875  18.649  0.00  0.00    +0.000 A 
ATOM      2  C   UNL     1       2.326   8.152  18.227  0.00  0.00    +0.000 A 
ATOM      3  C   UNL     1       1.585   8.993  19.069  0.00  0.00    +0.000 A 
ATOM      4  C   UNL     1       1.194   8.569  20.352  0.00  0.00    +0.000 A 
ATOM      5  C   UNL     1       1.574   7.282  20.771  0.00  0.00    +0.000 A 
ATOM      6  C   UNL     1       2.338   6.451  19.943  0.00  0.00    +0.000 A 
ENDROOT
BRANCH   4   7
ATOM      7  C   UNL     1       0.410   9.456  21.261  0.00  0.00    +0.000 A 
ATOM      8  C   UNL     1       0.087   9.211  22.598  0.00  0.00    +0.000 A 
ATOM      9  C   UNL     1      -0.681  10.223  23.194  0.00  0.00    +0.000 A 
ATOM     10  C   UNL     1      -0.974  11.282  22.339  0.00  0.00    +0.000 A 
ATOM     11  S   UNL     1      -0.271  10.944  20.842  0.00  0.00    +0.000 S 
BRANCH  10  12
ATOM     12  C   UNL     1      -1.773  12.488  22.693  0.00  0.00    +0.000 C 
ATOM     13  C   UNL     1      -1.083  13.813  22.933  0.00  0.00    +0.000 C 
ATOM     14  N   UNL     1      -3.062  12.375  22.784  0.00  0.00    +0.000 NA
BRANCH  14  15
ATOM     15  N   UNL     1      -3.907  13.419  23.104  0.00  0.00    +0.000 N 
ATOM     16  C   UNL     1      -4.921  13.265  24.094  0.00  0.00    +0.000 C 
ATOM     17  N   UNL     1      -5.700  14.248  24.377  0.00  0.00    +0.000 NA
ATOM     18  N   UNL     1      -5.087  12.032  24.778  0.00  0.00    +0.000 N 
ATOM     19  H   UNL     1      -3.828  14.332  22.630  0.00  0.00    +0.000 HD
ATOM     20  H   UNL     1      -5.617  15.159  23.904  0.00  0.00    +0.000 HD
ATOM     21  H   UNL     1      -4.482  11.224  24.577  0.00  0.00    +0.000 HD
ATOM     22  H   UNL     1      -5.825  11.932  25.492  0.00  0.00    +0.000 HD
ENDBRANCH  14  15
ENDBRANCH  10  12
ENDBRANCH   4   7
BRANCH   1  24
ATOM     23  C   UNL     1       3.299   4.497  17.749  0.00  0.00    +0.000 C 
ATOM     24  C   UNL     1       3.544   5.997  17.741  0.00  0.00    +0.000 C 
ATOM     25  N   UNL     1       4.448   6.551  16.986  0.00  0.00    +0.000 NA
BRANCH  25  26
ATOM     26  N   UNL     1       5.331   5.854  16.174  0.00  0.00    +0.000 N 
ATOM     27  C   UNL     1       6.736   6.087  16.217  0.00  0.00    +0.000 C 
ATOM     28  N   UNL     1       7.251   6.968  16.992  0.00  0.00    +0.000 NA
ATOM     29  N   UNL     1       7.584   5.323  15.364  0.00  0.00    +0.000 N 
ATOM     30  H   UNL     1       5.014   5.102  15.552  0.00  0.00    +0.000 HD
ATOM     31  H   UNL     1       6.682   7.549  17.619  0.00  0.00    +0.000 HD
ATOM     32  H   UNL     1       7.189   4.626  14.723  0.00  0.00    +0.000 HD
ATOM     33  H   UNL     1       8.609   5.476  15.368  0.00  0.00    +0.000 HD
ENDBRANCH  25  26
ENDBRANCH   1  24
TORSDOF 5
ENDMDL
MODEL 2
REMARK VINA RESULT:      -8.0      0.859      1.292
REMARK  Name = 
REMARK  7 active torsions:
REMARK  status: ('A' for Active; 'I' for Inactive)
REMARK    1  A    between atoms: C_1  and  C_2
REMARK    2  A    between atoms: C_2  and  C_8
REMARK    3  A    between atoms: N_3  and  N_4
REMARK    4  A    between atoms: C_11  and  C_12
REMARK    5  A    between atoms: C_15  and  C_16
REMARK    6  A    between atoms: C_16  and  C_17
REMARK    7  A    between atoms: N_18  and  N_19
REMARK                            x       y       z     vdW  Elec       q    Type
REMARK                         _______ _______ _______ _____ _____    ______ ____
ROOT
ATOM      1  C   UNL     1       2.751   7.024  18.806  0.00  0.00    +0.000 A 
ATOM      2  C   UNL     1       2.348   6.641  20.095  0.00  0.00    +0.000 A 
ATOM      3  C   UNL     1       1.533   7.474  20.874  0.00  0.00    +0.000 A 
ATOM      4  C   UNL     1       1.119   8.731  20.398  0.00  0.00    +0.000 A 
ATOM      5  C   UNL     1       1.538   9.128  19.117  0.00  0.00    +0.000 A 
ATOM      6  C   UNL     1       2.328   8.286  18.325  0.00  0.00    +0.000 A 
ENDROOT
BRANCH   4   7
ATOM      7  C   UNL     1       0.247   9.625  21.216  0.00  0.00    +0.000 A 
ATOM      8  C   UNL     1       0.003   9.530  22.589  0.00  0.00    +0.000 A 
ATOM      9  C   UNL     1      -0.881  10.503  23.080  0.00  0.00    +0.000 A 
ATOM     10  C   UNL     1      -1.347  11.381  22.104  0.00  0.00    +0.000 A 
ATOM     11  S   UNL     1      -0.651  10.932  20.634  0.00  0.00    +0.000 S 
BRANCH  10  12
ATOM     12  C   UNL     1      -2.297  12.505  22.331  0.00  0.00    +0.000 C 
ATOM     13  C   UNL     1      -1.814  13.936  22.244  0.00  0.00    +0.000 C 
ATOM     14  N   UNL     1      -3.536  12.228  22.597  0.00  0.00    +0.000 NA
BRANCH  14  15
ATOM     15  N   UNL     1      -4.508  13.182  22.824  0.00  0.00    +0.000 N 
ATOM     16  C   UNL     1      -5.348  13.115  23.974  0.00  0.00    +0.000 C 
ATOM     17  N   UNL     1      -6.248  14.011  24.169  0.00  0.00    +0.000 NA
ATOM     18  N   UNL     1      -5.204  12.063  24.917  0.00  0.00    +0.000 N 
ATOM     19  H   UNL     1      -4.652  13.963  22.165  0.00  0.00    +0.000 HD
ATOM     20  H   UNL     1      -6.388  14.791  23.510  0.00  0.00    +0.000 HD
ATOM     21  H   UNL     1      -4.495  11.327  24.793  0.00  0.00    +0.000 HD
ATOM     22  H   UNL     1      -5.819  12.023  25.745  0.00  0.00    +0.000 HD
ENDBRANCH  14  15
ENDBRANCH  10  12
ENDBRANCH   4   7
BRANCH   1  24
ATOM     23  C   UNL     1       3.061   4.735  17.600  0.00  0.00    +0.000 C 
ATOM     24  C   UNL     1       3.603   6.104  17.973  0.00  0.00    +0.000 C 
ATOM     25  N   UNL     1       4.787   6.507  17.611  0.00  0.00    +0.000 NA
BRANCH  25  26
ATOM     26  N   UNL     1       5.707   5.728  16.924  0.00  0.00    +0.000 N 
ATOM     27  C   UNL     1       6.764   5.047  17.595  0.00  0.00    +0.000 C 
ATOM     28  N   UNL     1       6.929   5.137  18.862  0.00  0.00    +0.000 NA
ATOM     29  N   UNL     1       7.664   4.254  16.826  0.00  0.00    +0.000 N 
ATOM     30  H   UNL     1       5.630   5.566  15.914  0.00  0.00    +0.000 HD
ATOM     31  H   UNL     1       6.312   5.703  19.458  0.00  0.00    +0.000 HD
ATOM     32  H   UNL     1       7.560   4.183  15.808  0.00  0.00    +0.000 HD
ATOM     33  H   UNL     1       8.447   3.753  17.285  0.00  0.00    +0.000 HD
ENDBRANCH  25  26
ENDBRANCH   1  24
TORSDOF 5
ENDMDL
MODEL 3
REMARK VINA RESULT:      -8.0      3.033     11.132
REMARK  Name = 
REMARK  7 active torsions:
REMARK  status: ('A' for Active; 'I' for Inactive)
REMARK    1  A    between atoms: C_1  and  C_2
REMARK    2  A    between atoms: C_2  and  C_8
REMARK    3  A    between atoms: N_3  and  N_4
REMARK    4  A    between atoms: C_11  and  C_12
REMARK    5  A    between atoms: C_15  and  C_16
REMARK    6  A    between atoms: C_16  and  C_17
REMARK    7  A    between atoms: N_18  and  N_19
REMARK                            x       y       z     vdW  Elec       q    Type
REMARK                         _______ _______ _______ _____ _____    ______ ____
ROOT
ATOM      1  C   UNL     1       0.748   9.639  20.091  0.00  0.00    +0.000 A 
ATOM      2  C   UNL     1       1.060   9.740  18.726  0.00  0.00    +0.000 A 
ATOM      3  C   UNL     1       1.789   8.734  18.075  0.00  0.00    +0.000 A 
ATOM      4  C   UNL     1       2.254   7.608  18.779  0.00  0.00    +0.000 A 
ATOM      5  C   UNL     1       1.962   7.514  20.150  0.00  0.00    +0.000 A 
ATOM      6  C   UNL     1       1.210   8.503  20.796  0.00  0.00    +0.000 A 
ENDROOT
BRANCH   4   7
ATOM      7  C   UNL     1       3.025   6.527  18.096  0.00  0.00    +0.000 A 
ATOM      8  C   UNL     1       2.761   5.156  18.137  0.00  0.00    +0.000 A 
ATOM      9  C   UNL     1       3.674   4.377  17.410  0.00  0.00    +0.000 A 
ATOM     10  C   UNL     1       4.671   5.120  16.783  0.00  0.00    +0.000 A 
ATOM     11  S   UNL     1       4.403   6.747  17.145  0.00  0.00    +0.000 S 
BRANCH  10  12
ATOM     12  C   UNL     1       5.774   4.565  15.952  0.00  0.00    +0.000 C 
ATOM     13  C   UNL     1       7.156   4.389  16.543  0.00  0.00    +0.000 C 
ATOM     14  N   UNL     1       5.521   4.234  14.724  0.00  0.00    +0.000 NA
BRANCH  14  15
ATOM     15  N   UNL     1       6.459   3.709  13.857  0.00  0.00    +0.000 N 
ATOM     16  C   UNL     1       6.093   3.295  12.543  0.00  0.00    +0.000 C 
ATOM     17  N   UNL     1       6.980   2.807  11.750  0.00  0.00    +0.000 NA
ATOM     18  N   UNL     1       4.753   3.414  12.091  0.00  0.00    +0.000 N 
ATOM     19  H   UNL     1       7.444   3.599  14.142  0.00  0.00    +0.000 HD
ATOM     20  H   UNL     1       7.964   2.701  12.037  0.00  0.00    +0.000 HD
ATOM     21  H   UNL     1       4.016   3.800  12.698  0.00  0.00    +0.000 HD
ATOM     22  H   UNL     1       4.499   3.110  11.138  0.00  0.00    +0.000 HD
ENDBRANCH  14  15
ENDBRANCH  10  12
ENDBRANCH   4   7
BRANCH   1  24
ATOM     23  C   UNL     1      -0.282  10.638  22.266  0.00  0.00    +0.000 C 
ATOM     24  C   UNL     1      -0.059  10.716  20.765  0.00  0.00    +0.000 C 
ATOM     25  N   UNL     1      -0.553  11.675  20.037  0.00  0.00    +0.000 NA
BRANCH  25  26
ATOM     26  N   UNL     1      -1.388  12.675  20.514  0.00  0.00    +0.000 N 
ATOM     27  C   UNL     1      -1.465  13.953  19.887  0.00  0.00    +0.000 C 
ATOM     28  N   UNL     1      -0.752  14.247  18.864  0.00  0.00    +0.000 NA
ATOM     29  N   UNL     1      -2.355  14.927  20.424  0.00  0.00    +0.000 N 
ATOM     30  H   UNL     1      -2.025  12.516  21.303  0.00  0.00    +0.000 HD
ATOM     31  H   UNL     1      -0.089  13.583  18.446  0.00  0.00    +0.000 HD
ATOM     32  H   UNL     1      -2.922  14.716  21.253  0.00  0.00    +0.000 HD
ATOM     33  H   UNL     1      -2.427  15.867  19.994  0.00  0.00    +0.000 HD
ENDBRANCH  25  26
ENDBRANCH   1  24
TORSDOF 5
ENDMDL
MODEL 4
REMARK VINA RESULT:      -7.9      2.777     11.259
REMARK  Name = 
REMARK  7 active torsions:
REMARK  status: ('A' for Active; 'I' for Inactive)
REMARK    1  A    between atoms: C_1  and  C_2
REMARK    2  A    between atoms: C_2  and  C_8
REMARK    3  A    between atoms: N_3  and  N_4
REMARK    4  A    between atoms: C_11  and  C_12
REMARK    5  A    between atoms: C_15  and  C_16
REMARK    6  A    between atoms: C_16  and  C_17
REMARK    7  A    between atoms: N_18  and  N_19
REMARK                            x       y       z     vdW  Elec       q    Type
REMARK                         _______ _______ _______ _____ _____    ______ ____
ROOT
ATOM      1  C   UNL     1       0.895   9.921  19.669  0.00  0.00    +0.000 A 
ATOM      2  C   UNL     1       1.198   8.801  20.458  0.00  0.00    +0.000 A 
ATOM      3  C   UNL     1       1.952   7.737  19.942  0.00  0.00    +0.000 A 
ATOM      4  C   UNL     1       2.402   7.749  18.610  0.00  0.00    +0.000 A 
ATOM      5  C   UNL     1       2.083   8.859  17.811  0.00  0.00    +0.000 A 
ATOM      6  C   UNL     1       1.355   9.936  18.331  0.00  0.00    +0.000 A 
ENDROOT
BRANCH   4   7
ATOM      7  C   UNL     1       3.211   6.626  18.051  0.00  0.00    +0.000 A 
ATOM      8  C   UNL     1       3.136   5.278  18.413  0.00  0.00    +0.000 A 
ATOM      9  C   UNL     1       4.039   4.452  17.727  0.00  0.00    +0.000 A 
ATOM     10  C   UNL     1       4.839   5.132  16.812  0.00  0.00    +0.000 A 
ATOM     11  S   UNL     1       4.411   6.764  16.870  0.00  0.00    +0.000 S 
BRANCH  10  12
ATOM     12  C   UNL     1       5.885   4.518  15.950  0.00  0.00    +0.000 C 
ATOM     13  C   UNL     1       7.289   4.322  16.480  0.00  0.00    +0.000 C 
ATOM     14  N   UNL     1       5.564   4.155  14.746  0.00  0.00    +0.000 NA
BRANCH  14  15
ATOM     15  N   UNL     1       6.445   3.574  13.855  0.00  0.00    +0.000 N 
ATOM     16  C   UNL     1       6.035   3.238  12.532  0.00  0.00    +0.000 C 
ATOM     17  N   UNL     1       6.868   2.696  11.717  0.00  0.00    +0.000 NA
ATOM     18  N   UNL     1       4.708   3.493  12.096  0.00  0.00    +0.000 N 
ATOM     19  H   UNL     1       7.418   3.366  14.128  0.00  0.00    +0.000 HD
ATOM     20  H   UNL     1       7.840   2.492  11.991  0.00  0.00    +0.000 HD
ATOM     21  H   UNL     1       4.014   3.924  12.722  0.00  0.00    +0.000 HD
ATOM     22  H   UNL     1       4.421   3.244  11.137  0.00  0.00    +0.000 HD
ENDBRANCH  14  15
ENDBRANCH  10  12
ENDBRANCH   4   7
BRANCH   1  24
ATOM     23  C   UNL     1      -1.002  11.690  19.419  0.00  0.00    +0.000 C 
ATOM     24  C   UNL     1       0.107  11.066  20.249  0.00  0.00    +0.000 C 
ATOM     25  N   UNL     1       0.412  11.494  21.440  0.00  0.00    +0.000 NA
BRANCH  25  26
ATOM     26  N   UNL     1      -0.168  12.595  22.052  0.00  0.00    +0.000 N 
ATOM     27  C   UNL     1      -1.253  12.462  22.966  0.00  0.00    +0.000 C 
ATOM     28  N   UNL     1      -1.759  11.320  23.251  0.00  0.00    +0.000 NA
ATOM     29  N   UNL     1      -1.791  13.636  23.568  0.00  0.00    +0.000 N 
ATOM     30  H   UNL     1       0.197  13.544  21.915  0.00  0.00    +0.000 HD
ATOM     31  H   UNL     1      -1.413  10.445  22.838  0.00  0.00    +0.000 HD
ATOM     32  H   UNL     1      -1.411  14.561  23.339  0.00  0.00    +0.000 HD
ATOM     33  H   UNL     1      -2.585  13.570  24.231  0.00  0.00    +0.000 HD
ENDBRANCH  25  26
ENDBRANCH   1  24
TORSDOF 5
ENDMDL
MODEL 5
REMARK VINA RESULT:      -7.9      1.323     10.851
REMARK  Name = 
REMARK  7 active torsions:
REMARK  status: ('A' for Active; 'I' for Inactive)
REMARK    1  A    between atoms: C_1  and  C_2
REMARK    2  A    between atoms: C_2  and  C_8
REMARK    3  A    between atoms: N_3  and  N_4
REMARK    4  A    between atoms: C_11  and  C_12
REMARK    5  A    between atoms: C_15  and  C_16
REMARK    6  A    between atoms: C_16  and  C_17
REMARK    7  A    between atoms: N_18  and  N_19
REMARK                            x       y       z     vdW  Elec       q    Type
REMARK                         _______ _______ _______ _____ _____    ______ ____
ROOT
ATOM      1  C   UNL     1      -0.545  10.966  21.983  0.00  0.00    +0.000 A 
ATOM      2  C   UNL     1       0.031  11.166  20.719  0.00  0.00    +0.000 A 
ATOM      3  C   UNL     1       0.755  10.146  20.086  0.00  0.00    +0.000 A 
ATOM      4  C   UNL     1       0.950   8.902  20.712  0.00  0.00    +0.000 A 
ATOM      5  C   UNL     1       0.393   8.705  21.986  0.00  0.00    +0.000 A 
ATOM      6  C   UNL     1      -0.355   9.711  22.609  0.00  0.00    +0.000 A 
ENDROOT
BRANCH   4   7
ATOM      7  C   UNL     1       1.714   7.806  20.045  0.00  0.00    +0.000 A 
ATOM      8  C   UNL     1       1.977   6.534  20.561  0.00  0.00    +0.000 A 
ATOM      9  C   UNL     1       2.740   5.720  19.710  0.00  0.00    +0.000 A 
ATOM     10  C   UNL     1       3.090   6.334  18.511  0.00  0.00    +0.000 A 
ATOM     11  S   UNL     1       2.442   7.893  18.524  0.00  0.00    +0.000 S 
BRANCH  10  12
ATOM     12  C   UNL     1       3.897   5.717  17.423  0.00  0.00    +0.000 C 
ATOM     13  C   UNL     1       3.769   4.239  17.126  0.00  0.00    +0.000 C 
ATOM     14  N   UNL     1       4.701   6.473  16.740  0.00  0.00    +0.000 NA
BRANCH  14  15
ATOM     15  N   UNL     1       5.499   6.017  15.709  0.00  0.00    +0.000 N 
ATOM     16  C   UNL     1       6.867   5.684  15.932  0.00  0.00    +0.000 C 
ATOM     17  N   UNL     1       7.594   5.263  14.959  0.00  0.00    +0.000 NA
ATOM     18  N   UNL     1       7.445   5.813  17.222  0.00  0.00    +0.000 N 
ATOM     19  H   UNL     1       5.124   5.911  14.754  0.00  0.00    +0.000 HD
ATOM     20  H   UNL     1       7.217   5.156  14.007  0.00  0.00    +0.000 HD
ATOM     21  H   UNL     1       6.892   6.148  18.024  0.00  0.00    +0.000 HD
ATOM     22  H   UNL     1       8.436   5.570  17.372  0.00  0.00    +0.000 HD
ENDBRANCH  14  15
ENDBRANCH  10  12
ENDBRANCH   4   7
BRANCH   1  24
ATOM     23  C   UNL     1      -0.802  13.484  22.605  0.00  0.00    +0.000 C 
ATOM     24  C   UNL     1      -1.342  12.064  22.635  0.00  0.00    +0.000 C 
ATOM     25  N   UNL     1      -2.465  11.758  23.219  0.00  0.00    +0.000 NA
BRANCH  25  26
ATOM     26  N   UNL     1      -3.249  12.652  23.934  0.00  0.00    +0.000 N 
ATOM     27  C   UNL     1      -4.579  12.972  23.536  0.00  0.00    +0.000 C 
ATOM     28  N   UNL     1      -5.109  12.465  22.486  0.00  0.00    +0.000 NA
ATOM     29  N   UNL     1      -5.329  13.889  24.327  0.00  0.00    +0.000 N 
ATOM     30  H   UNL     1      -2.922  13.076  24.810  0.00  0.00    +0.000 HD
ATOM     31  H   UNL     1      -4.606  11.807  21.878  0.00  0.00    +0.000 HD
ATOM     32  H   UNL     1      -4.916  14.319  25.162  0.00  0.00    +0.000 HD
ATOM     33  H   UNL     1      -6.297  14.145  24.057  0.00  0.00    +0.000 HD
ENDBRANCH  25  26
ENDBRANCH   1  24
TORSDOF 5
ENDMDL
MODEL 6
REMARK VINA RESULT:      -7.8      2.540     10.650
REMARK  Name = 
REMARK  7 active torsions:
REMARK  status: ('A' for Active; 'I' for Inactive)
REMARK    1  A    between atoms: C_1  and  C_2
REMARK    2  A    between atoms: C_2  and  C_8
REMARK    3  A    between atoms: N_3  and  N_4
REMARK    4  A    between atoms: C_11  and  C_12
REMARK    5  A    between atoms: C_15  and  C_16
REMARK    6  A    between atoms: C_16  and  C_17
REMARK    7  A    between atoms: N_18  and  N_19
REMARK                            x       y       z     vdW  Elec       q    Type
REMARK                         _______ _______ _______ _____ _____    ______ ____
ROOT
ATOM      1  C   UNL     1      -1.045  11.322  20.674  0.00  0.00    +0.000 A 
ATOM      2  C   UNL     1      -0.301  10.490  21.525  0.00  0.00    +0.000 A 
ATOM      3  C   UNL     1       0.615   9.561  21.009  0.00  0.00    +0.000 A 
ATOM      4  C   UNL     1       0.793   9.417  19.621  0.00  0.00    +0.000 A 
ATOM      5  C   UNL     1       0.035  10.233  18.765  0.00  0.00    +0.000 A 
ATOM      6  C   UNL     1      -0.859  11.181  19.278  0.00  0.00    +0.000 A 
ENDROOT
BRANCH   4   7
ATOM      7  C   UNL     1       1.770   8.437  19.059  0.00  0.00    +0.000 A 
ATOM      8  C   UNL     1       2.443   8.532  17.839  0.00  0.00    +0.000 A 
ATOM      9  C   UNL     1       3.288   7.445  17.567  0.00  0.00    +0.000 A 
ATOM     10  C   UNL     1       3.295   6.476  18.568  0.00  0.00    +0.000 A 
ATOM     11  S   UNL     1       2.244   6.988  19.785  0.00  0.00    +0.000 S 
BRANCH  10  12
ATOM     12  C   UNL     1       4.088   5.217  18.551  0.00  0.00    +0.000 C 
ATOM     13  C   UNL     1       5.462   5.174  19.184  0.00  0.00    +0.000 C 
ATOM     14  N   UNL     1       3.574   4.166  17.990  0.00  0.00    +0.000 NA
BRANCH  14  15
ATOM     15  N   UNL     1       4.210   2.943  17.912  0.00  0.00    +0.000 N 
ATOM     16  C   UNL     1       3.552   1.747  18.322  0.00  0.00    +0.000 C 
ATOM     17  N   UNL     1       4.160   0.617  18.244  0.00  0.00    +0.000 NA
ATOM     18  N   UNL     1       2.222   1.783  18.819  0.00  0.00    +0.000 N 
ATOM     19  H   UNL     1       5.177   2.867  17.562  0.00  0.00    +0.000 HD
ATOM     20  H   UNL     1       5.125   0.544  17.891  0.00  0.00    +0.000 HD
ATOM     21  H   UNL     1       1.705   2.669  18.896  0.00  0.00    +0.000 HD
ATOM     22  H   UNL     1       1.756   0.911  19.114  0.00  0.00    +0.000 HD
ENDBRANCH  14  15
ENDBRANCH  10  12
ENDBRANCH   4   7
BRANCH   1  24
ATOM     23  C   UNL     1      -3.027  12.978  20.331  0.00  0.00    +0.000 C 
ATOM     24  C   UNL     1      -2.003  12.331  21.248  0.00  0.00    +0.000 C 
ATOM     25  N   UNL     1      -1.914  12.628  22.512  0.00  0.00    +0.000 NA
BRANCH  25  26
ATOM     26  N   UNL     1      -2.669  13.603  23.146  0.00  0.00    +0.000 N 
ATOM     27  C   UNL     1      -3.757  13.272  24.005  0.00  0.00    +0.000 C 
ATOM     28  N   UNL     1      -4.104  12.057  24.217  0.00  0.00    +0.000 NA
ATOM     29  N   UNL     1      -4.480  14.327  24.633  0.00  0.00    +0.000 N 
ATOM     30  H   UNL     1      -2.439  14.601  23.067  0.00  0.00    +0.000 HD
ATOM     31  H   UNL     1      -3.620  11.263  23.781  0.00  0.00    +0.000 HD
ATOM     32  H   UNL     1      -4.229  15.307  24.461  0.00  0.00    +0.000 HD
ATOM     33  H   UNL     1      -5.280  14.117  25.256  0.00  0.00    +0.000 HD
ENDBRANCH  25  26
ENDBRANCH   1  24
TORSDOF 5
ENDMDL
MODEL 7
REMARK VINA RESULT:      -7.8      1.110      1.670
REMARK  Name = 
REMARK  7 active torsions:
REMARK  status: ('A' for Active; 'I' for Inactive)
REMARK    1  A    between atoms: C_1  and  C_2
REMARK    2  A    between atoms: C_2  and  C_8
REMARK    3  A    between atoms: N_3  and  N_4
REMARK    4  A    between atoms: C_11  and  C_12
REMARK    5  A    between atoms: C_15  and  C_16
REMARK    6  A    between atoms: C_16  and  C_17
REMARK    7  A    between atoms: N_18  and  N_19
REMARK                            x       y       z     vdW  Elec       q    Type
REMARK                         _______ _______ _______ _____ _____    ______ ____
ROOT
ATOM      1  C   UNL     1       2.596   7.286  18.490  0.00  0.00    +0.000 A 
ATOM      2  C   UNL     1       2.215   7.217  19.839  0.00  0.00    +0.000 A 
ATOM      3  C   UNL     1       1.440   8.229  20.424  0.00  0.00    +0.000 A 
ATOM      4  C   UNL     1       1.046   9.357  19.683  0.00  0.00    +0.000 A 
ATOM      5  C   UNL     1       1.443   9.441  18.338  0.00  0.00    +0.000 A 
ATOM      6  C   UNL     1       2.193   8.419  17.743  0.00  0.00    +0.000 A 
ENDROOT
BRANCH   4   7
ATOM      7  C   UNL     1       0.216  10.438  20.292  0.00  0.00    +0.000 A 
ATOM      8  C   UNL     1      -0.058  11.694  19.744  0.00  0.00    +0.000 A 
ATOM      9  C   UNL     1      -0.856  12.510  20.560  0.00  0.00    +0.000 A 
ATOM     10  C   UNL     1      -1.226  11.912  21.762  0.00  0.00    +0.000 A 
ATOM     11  S   UNL     1      -0.550  10.366  21.796  0.00  0.00    +0.000 S 
BRANCH  10  12
ATOM     12  C   UNL     1      -2.062  12.540  22.822  0.00  0.00    +0.000 C 
ATOM     13  C   UNL     1      -1.561  13.761  23.562  0.00  0.00    +0.000 C 
ATOM     14  N   UNL     1      -3.221  12.022  23.087  0.00  0.00    +0.000 NA
BRANCH  14  15
ATOM     15  N   UNL     1      -4.086  12.514  24.045  0.00  0.00    +0.000 N 
ATOM     16  C   UNL     1      -5.456  12.760  23.739  0.00  0.00    +0.000 C 
ATOM     17  N   UNL     1      -6.246  13.220  24.643  0.00  0.00    +0.000 NA
ATOM     18  N   UNL     1      -5.968  12.503  22.440  0.00  0.00    +0.000 N 
ATOM     19  H   UNL     1      -3.759  12.720  25.001  0.00  0.00    +0.000 HD
ATOM     20  H   UNL     1      -5.917  13.422  25.598  0.00  0.00    +0.000 HD
ATOM     21  H   UNL     1      -5.365  12.135  21.692  0.00  0.00    +0.000 HD
ATOM     22  H   UNL     1      -6.961  12.685  22.230  0.00  0.00    +0.000 HD
ENDBRANCH  14  15
ENDBRANCH  10  12
ENDBRANCH   4   7
BRANCH   1  24
ATOM     23  C   UNL     1       3.005   4.736  18.142  0.00  0.00    +0.000 C 
ATOM     24  C   UNL     1       3.405   6.177  17.872  0.00  0.00    +0.000 C 
ATOM     25  N   UNL     1       4.432   6.489  17.136  0.00  0.00    +0.000 NA
BRANCH  25  26
ATOM     26  N   UNL     1       5.314   5.569  16.586  0.00  0.00    +0.000 N 
ATOM     27  C   UNL     1       6.710   5.834  16.486  0.00  0.00    +0.000 C 
ATOM     28  N   UNL     1       7.218   6.942  16.880  0.00  0.00    +0.000 NA
ATOM     29  N   UNL     1       7.557   4.837  15.921  0.00  0.00    +0.000 N 
ATOM     30  H   UNL     1       5.004   4.640  16.281  0.00  0.00    +0.000 HD
ATOM     31  H   UNL     1       6.648   7.694  17.286  0.00  0.00    +0.000 HD
ATOM     32  H   UNL     1       7.168   3.950  15.584  0.00  0.00    +0.000 HD
ATOM     33  H   UNL     1       8.576   5.004  15.829  0.00  0.00    +0.000 HD
ENDBRANCH  25  26
ENDBRANCH   1  24
TORSDOF 5
ENDMDL
MODEL 8
REMARK VINA RESULT:      -7.8      2.257      2.862
REMARK  Name = 
REMARK  7 active torsions:
REMARK  status: ('A' for Active; 'I' for Inactive)
REMARK    1  A    between atoms: C_1  and  C_2
REMARK    2  A    between atoms: C_2  and  C_8
REMARK    3  A    between atoms: N_3  and  N_4
REMARK    4  A    between atoms: C_11  and  C_12
REMARK    5  A    between atoms: C_15  and  C_16
REMARK    6  A    between atoms: C_16  and  C_17
REMARK    7  A    between atoms: N_18  and  N_19
REMARK                            x       y       z     vdW  Elec       q    Type
REMARK                         _______ _______ _______ _____ _____    ______ ____
ROOT
ATOM      1  C   UNL     1       2.710   6.300  19.356  0.00  0.00    +0.000 A 
ATOM      2  C   UNL     1       2.630   7.451  18.557  0.00  0.00    +0.000 A 
ATOM      3  C   UNL     1       1.922   8.582  18.988  0.00  0.00    +0.000 A 
ATOM      4  C   UNL     1       1.246   8.585  20.221  0.00  0.00    +0.000 A 
ATOM      5  C   UNL     1       1.306   7.427  21.015  0.00  0.00    +0.000 A 
ATOM      6  C   UNL     1       2.036   6.307  20.601  0.00  0.00    +0.000 A 
ENDROOT
BRANCH   4   7
ATOM      7  C   UNL     1       0.494   9.785  20.694  0.00  0.00    +0.000 A 
ATOM      8  C   UNL     1       0.430  11.033  20.069  0.00  0.00    +0.000 A 
ATOM      9  C   UNL     1      -0.343  11.978  20.761  0.00  0.00    +0.000 A 
ATOM     10  C   UNL     1      -0.902  11.492  21.940  0.00  0.00    +0.000 A 
ATOM     11  S   UNL     1      -0.423   9.882  22.109  0.00  0.00    +0.000 S 
BRANCH  10  12
ATOM     12  C   UNL     1      -1.760  12.267  22.878  0.00  0.00    +0.000 C 
ATOM     13  C   UNL     1      -1.354  13.661  23.303  0.00  0.00    +0.000 C 
ATOM     14  N   UNL     1      -2.855  11.724  23.311  0.00  0.00    +0.000 NA
BRANCH  14  15
ATOM     15  N   UNL     1      -3.731  12.342  24.181  0.00  0.00    +0.000 N 
ATOM     16  C   UNL     1      -5.017  12.776  23.742  0.00  0.00    +0.000 C 
ATOM     17  N   UNL     1      -5.819  13.351  24.566  0.00  0.00    +0.000 NA
ATOM     18  N   UNL     1      -5.429  12.581  22.397  0.00  0.00    +0.000 N 
ATOM     19  H   UNL     1      -3.475  12.509  25.166  0.00  0.00    +0.000 HD
ATOM     20  H   UNL     1      -5.560  13.515  25.549  0.00  0.00    +0.000 HD
ATOM     21  H   UNL     1      -4.813  12.125  21.711  0.00  0.00    +0.000 HD
ATOM     22  H   UNL     1      -6.361  12.900  22.090  0.00  0.00    +0.000 HD
ENDBRANCH  14  15
ENDBRANCH  10  12
ENDBRANCH   4   7
BRANCH   1  24
ATOM     23  C   UNL     1       4.185   5.161  17.534  0.00  0.00    +0.000 C 
ATOM     24  C   UNL     1       3.498   5.105  18.889  0.00  0.00    +0.000 C 
ATOM     25  N   UNL     1       3.554   4.055  19.656  0.00  0.00    +0.000 NA
BRANCH  25  26
ATOM     26  N   UNL     1       4.164   2.859  19.308  0.00  0.00    +0.000 N 
ATOM     27  C   UNL     1       3.445   1.803  18.678  0.00  0.00    +0.000 C 
ATOM     28  N   UNL     1       2.194   1.898  18.421  0.00  0.00    +0.000 NA
ATOM     29  N   UNL     1       4.141   0.607  18.338  0.00  0.00    +0.000 N 
ATOM     30  H   UNL     1       5.171   2.708  19.440  0.00  0.00    +0.000 HD
ATOM     31  H   UNL     1       1.646   2.735  18.654  0.00  0.00    +0.000 HD
ATOM     32  H   UNL     1       5.139   0.504  18.552  0.00  0.00    +0.000 HD
ATOM     33  H   UNL     1       3.642  -0.181  17.886  0.00  0.00    +0.000 HD
ENDBRANCH  25  26
ENDBRANCH   1  24
TORSDOF 5
ENDMDL
MODEL 9
REMARK VINA RESULT:      -7.8      1.342      1.560
REMARK  Name = 
REMARK  7 active torsions:
REMARK  status: ('A' for Active; 'I' for Inactive)
REMARK    1  A    between atoms: C_1  and  C_2
REMARK    2  A    between atoms: C_2  and  C_8
REMARK    3  A    between atoms: N_3  and  N_4
REMARK    4  A    between atoms: C_11  and  C_12
REMARK    5  A    between atoms: C_15  and  C_16
REMARK    6  A    between atoms: C_16  and  C_17
REMARK    7  A    between atoms: N_18  and  N_19
REMARK                            x       y       z     vdW  Elec       q    Type
REMARK                         _______ _______ _______ _____ _____    ______ ____
ROOT
ATOM      1  C   UNL     1       2.767   6.951  18.722  0.00  0.00    +0.000 A 
ATOM      2  C   UNL     1       2.412   8.053  17.928  0.00  0.00    +0.000 A 
ATOM      3  C   UNL     1       1.623   9.091  18.444  0.00  0.00    +0.000 A 
ATOM      4  C   UNL     1       1.141   9.045  19.764  0.00  0.00    +0.000 A 
ATOM      5  C   UNL     1       1.476   7.933  20.556  0.00  0.00    +0.000 A 
ATOM      6  C   UNL     1       2.287   6.909  20.052  0.00  0.00    +0.000 A 
ENDROOT
BRANCH   4   7
ATOM      7  C   UNL     1       0.306  10.147  20.328  0.00  0.00    +0.000 A 
ATOM      8  C   UNL     1      -0.001  11.363  19.713  0.00  0.00    +0.000 A 
ATOM      9  C   UNL     1      -0.795  12.214  20.497  0.00  0.00    +0.000 A 
ATOM     10  C   UNL     1      -1.129  11.683  21.740  0.00  0.00    +0.000 A 
ATOM     11  S   UNL     1      -0.426  10.152  21.850  0.00  0.00    +0.000 S 
BRANCH  10  12
ATOM     12  C   UNL     1      -1.952  12.359  22.780  0.00  0.00    +0.000 C 
ATOM     13  C   UNL     1      -1.465  13.640  23.421  0.00  0.00    +0.000 C 
ATOM     14  N   UNL     1      -3.089  11.831  23.114  0.00  0.00    +0.000 NA
BRANCH  14  15
ATOM     15  N   UNL     1      -3.940  12.365  24.061  0.00  0.00    +0.000 N 
ATOM     16  C   UNL     1      -5.263  12.766  23.715  0.00  0.00    +0.000 C 
ATOM     17  N   UNL     1      -6.041  13.263  24.611  0.00  0.00    +0.000 NA
ATOM     18  N   UNL     1      -5.740  12.627  22.386  0.00  0.00    +0.000 N 
ATOM     19  H   UNL     1      -3.636  12.489  25.039  0.00  0.00    +0.000 HD
ATOM     20  H   UNL     1      -5.735  13.384  25.587  0.00  0.00    +0.000 HD
ATOM     21  H   UNL     1      -5.145  12.234  21.643  0.00  0.00    +0.000 HD
ATOM     22  H   UNL     1      -6.700  12.922  22.146  0.00  0.00    +0.000 HD
ENDBRANCH  14  15
ENDBRANCH  10  12
ENDBRANCH   4   7
BRANCH   1  24
ATOM     23  C   UNL     1       2.978   4.616  17.585  0.00  0.00    +0.000 C 
ATOM     24  C   UNL     1       3.637   5.860  18.158  0.00  0.00    +0.000 C 
ATOM     25  N   UNL     1       4.929   6.011  18.192  0.00  0.00    +0.000 NA
BRANCH  25  26
ATOM     26  N   UNL     1       5.845   5.048  17.793  0.00  0.00    +0.000 N 
ATOM     27  C   UNL     1       7.242   5.196  18.030  0.00  0.00    +0.000 C 
ATOM     28  N   UNL     1       7.724   6.235  18.603  0.00  0.00    +0.000 NA
ATOM     29  N   UNL     1       8.122   4.160  17.604  0.00  0.00    +0.000 N 
ATOM     30  H   UNL     1       5.547   4.165  17.363  0.00  0.00    +0.000 HD
ATOM     31  H   UNL     1       7.132   7.012  18.920  0.00  0.00    +0.000 HD
ATOM     32  H   UNL     1       7.758   3.328  17.127  0.00  0.00    +0.000 HD
ATOM     33  H   UNL     1       9.144   4.243  17.756  0.00  0.00    +0.000 HD
ENDBRANCH  25  26
ENDBRANCH   1  24
TORSDOF 5
ENDMDL
