MODEL 1
REMARK VINA RESULT:      -8.6      0.000      0.000
REMARK  Name = 
REMARK  10 active torsions:
REMARK  status: ('A' for Active; 'I' for Inactive)
REMARK    1  A    between atoms: C_1  and  C_2
REMARK    2  A    between atoms: C_2  and  O_3
REMARK    3  A    between atoms: O_3  and  C_4
REMARK    4  A    between atoms: C_4  and  C_6
REMARK    5  A    between atoms: C_10  and  N_11
REMARK    6  A    between atoms: C_12  and  C_14
REMARK    7  A    between atoms: C_14  and  C_15
REMARK    8  A    between atoms: C_15  and  C_16
REMARK    9  A    between atoms: C_17  and  C_18
REMARK   10  A    between atoms: C_33  and  C_34
REMARK                            x       y       z     vdW  Elec       q    Type
REMARK                         _______ _______ _______ _____ _____    ______ ____
ROOT
ATOM      1  C   UNL     1       0.719   9.397  20.735  0.00  0.00    +0.000 A 
ATOM      2  C   UNL     1       0.406   9.960  19.471  0.00  0.00    +0.000 A 
ATOM      3  C   UNL     1       0.853   9.597  18.103  0.00  0.00    +0.000 C 
ATOM      4  N   UNL     1      -0.453  10.978  19.579  0.00  0.00    +0.000 NA
ATOM      5  N   UNL     1      -0.674  11.137  20.913  0.00  0.00    +0.000 N 
ATOM      6  C   UNL     1      -1.431  12.258  21.375  0.00  0.00    +0.000 A 
ATOM      7  C   UNL     1      -2.050  13.094  20.455  0.00  0.00    +0.000 A 
ATOM      8  C   UNL     1      -2.734  14.222  20.915  0.00  0.00    +0.000 A 
ATOM      9  C   UNL     1      -2.789  14.519  22.272  0.00  0.00    +0.000 A 
ATOM     10  N   UNL     1      -3.403  15.672  22.723  0.00  0.00    +0.000 N 
ATOM     11  C   UNL     1      -2.954  16.286  23.972  0.00  0.00    +0.000 C 
ATOM     12  C   UNL     1      -4.064  16.284  25.019  0.00  0.00    +0.000 C 
ATOM     13  C   UNL     1      -5.364  16.854  24.458  0.00  0.00    +0.000 C 
ATOM     14  C   UNL     1      -5.767  16.116  23.185  0.00  0.00    +0.000 C 
ATOM     15  C   UNL     1      -4.650  16.155  22.142  0.00  0.00    +0.000 C 
ATOM     16  N   UNL     1      -2.171  13.680  23.130  0.00  0.00    +0.000 NA
ATOM     17  N   UNL     1      -1.502  12.542  22.688  0.00  0.00    +0.000 NA
ATOM     18  C   UNL     1      -0.056  10.129  21.635  0.00  0.00    +0.000 A 
ATOM     19  C   UNL     1      -0.229   9.888  23.099  0.00  0.00    +0.000 C 
ENDROOT
BRANCH   1  20
ATOM     20  C   UNL     1       1.571   8.234  21.146  0.00  0.00    +0.000 C 
BRANCH  20  21
ATOM     21  C   UNL     1       0.987   6.822  21.114  0.00  0.00    +0.000 C 
BRANCH  21  23
ATOM     22  N   UNL     1       2.286   6.297  19.113  0.00  0.00    +0.000 N 
ATOM     23  C   UNL     1       1.974   5.907  20.406  0.00  0.00    +0.000 C 
ATOM     24  O   UNL     1       2.429   4.912  20.961  0.00  0.00    +0.000 OA
ATOM     25  H   UNL     1       2.066   7.247  18.838  0.00  0.00    +0.000 HD
BRANCH  22  30
ATOM     26  C   UNL     1       4.950   5.347  16.724  0.00  0.00    +0.000 A 
ATOM     27  C   UNL     1       4.619   4.019  16.429  0.00  0.00    +0.000 A 
ATOM     28  C   UNL     1       3.489   3.452  16.996  0.00  0.00    +0.000 A 
ATOM     29  C   UNL     1       2.706   4.201  17.873  0.00  0.00    +0.000 A 
ATOM     30  C   UNL     1       3.047   5.516  18.211  0.00  0.00    +0.000 A 
ATOM     31  C   UNL     1       4.163   6.096  17.614  0.00  0.00    +0.000 A 
BRANCH  26  32
ATOM     32  C   UNL     1       6.069   6.036  16.046  0.00  0.00    +0.000 C 
ATOM     33  O   UNL     1       6.683   5.544  15.115  0.00  0.00    +0.000 OA
BRANCH  32  34
ATOM     34  O   UNL     1       6.369   7.175  16.715  0.00  0.00    +0.000 OA
BRANCH  34  36
ATOM     35  C   UNL     1       7.956   8.604  17.782  0.00  0.00    +0.000 C 
ATOM     36  C   UNL     1       7.582   7.163  17.477  0.00  0.00    +0.000 C 
ENDBRANCH  34  36
ENDBRANCH  32  34
ENDBRANCH  26  32
ENDBRANCH  22  30
ENDBRANCH  21  23
ENDBRANCH  20  21
ENDBRANCH   1  20
TORSDOF 7
ENDMDL
MODEL 2
REMARK VINA RESULT:      -8.3      1.243      1.322
REMARK  Name = 
REMARK  10 active torsions:
REMARK  status: ('A' for Active; 'I' for Inactive)
REMARK    1  A    between atoms: C_1  and  C_2
REMARK    2  A    between atoms: C_2  and  O_3
REMARK    3  A    between atoms: O_3  and  C_4
REMARK    4  A    between atoms: C_4  and  C_6
REMARK    5  A    between atoms: C_10  and  N_11
REMARK    6  A    between atoms: C_12  and  C_14
REMARK    7  A    between atoms: C_14  and  C_15
REMARK    8  A    between atoms: C_15  and  C_16
REMARK    9  A    between atoms: C_17  and  C_18
REMARK   10  A    between atoms: C_33  and  C_34
REMARK                            x       y       z     vdW  Elec       q    Type
REMARK                         _______ _______ _______ _____ _____    ______ ____
ROOT
ATOM      1  C   UNL     1       1.101   8.964  20.914  0.00  0.00    +0.000 A 
ATOM      2  C   UNL     1       0.941   9.658  19.687  0.00  0.00    +0.000 A 
ATOM      3  C   UNL     1       1.372   9.316  18.308  0.00  0.00    +0.000 C 
ATOM      4  N   UNL     1       0.269  10.802  19.847  0.00  0.00    +0.000 NA
ATOM      5  N   UNL     1       0.027  10.906  21.183  0.00  0.00    +0.000 N 
ATOM      6  C   UNL     1      -0.542  12.109  21.707  0.00  0.00    +0.000 A 
ATOM      7  C   UNL     1      -0.968  13.102  20.835  0.00  0.00    +0.000 A 
ATOM      8  C   UNL     1      -1.463  14.298  21.359  0.00  0.00    +0.000 A 
ATOM      9  C   UNL     1      -1.518  14.507  22.732  0.00  0.00    +0.000 A 
ATOM     10  N   UNL     1      -1.940  15.717  23.252  0.00  0.00    +0.000 N 
ATOM     11  C   UNL     1      -1.440  16.155  24.554  0.00  0.00    +0.000 C 
ATOM     12  C   UNL     1      -2.574  16.278  25.568  0.00  0.00    +0.000 C 
ATOM     13  C   UNL     1      -3.732  17.106  25.015  0.00  0.00    +0.000 C 
ATOM     14  C   UNL     1      -4.206  16.539  23.681  0.00  0.00    +0.000 C 
ATOM     15  C   UNL     1      -3.059  16.452  22.674  0.00  0.00    +0.000 C 
ATOM     16  N   UNL     1      -1.091  13.515  23.541  0.00  0.00    +0.000 NA
ATOM     17  N   UNL     1      -0.614  12.310  23.034  0.00  0.00    +0.000 NA
ATOM     18  C   UNL     1       0.430   9.757  21.845  0.00  0.00    +0.000 A 
ATOM     19  C   UNL     1       0.160   9.451  23.281  0.00  0.00    +0.000 C 
ENDROOT
BRANCH   1  20
ATOM     20  C   UNL     1       1.719   7.642  21.259  0.00  0.00    +0.000 C 
BRANCH  20  21
ATOM     21  C   UNL     1       1.092   6.353  20.730  0.00  0.00    +0.000 C 
BRANCH  21  23
ATOM     22  N   UNL     1       2.792   5.963  19.018  0.00  0.00    +0.000 N 
ATOM     23  C   UNL     1       2.200   5.472  20.171  0.00  0.00    +0.000 C 
ATOM     24  O   UNL     1       2.510   4.419  20.718  0.00  0.00    +0.000 OA
ATOM     25  H   UNL     1       2.649   6.940  18.791  0.00  0.00    +0.000 HD
BRANCH  22  30
ATOM     26  C   UNL     1       6.032   4.731  17.719  0.00  0.00    +0.000 A 
ATOM     27  C   UNL     1       5.627   3.820  16.736  0.00  0.00    +0.000 A 
ATOM     28  C   UNL     1       4.277   3.644  16.480  0.00  0.00    +0.000 A 
ATOM     29  C   UNL     1       3.334   4.357  17.220  0.00  0.00    +0.000 A 
ATOM     30  C   UNL     1       3.722   5.240  18.236  0.00  0.00    +0.000 A 
ATOM     31  C   UNL     1       5.080   5.441  18.468  0.00  0.00    +0.000 A 
BRANCH  26  32
ATOM     32  C   UNL     1       7.460   5.049  17.940  0.00  0.00    +0.000 C 
ATOM     33  O   UNL     1       8.344   4.214  17.863  0.00  0.00    +0.000 OA
BRANCH  32  34
ATOM     34  O   UNL     1       7.575   6.327  18.375  0.00  0.00    +0.000 OA
BRANCH  34  36
ATOM     35  C   UNL     1       8.179   8.600  17.967  0.00  0.00    +0.000 C 
ATOM     36  C   UNL     1       7.574   7.343  17.365  0.00  0.00    +0.000 C 
ENDBRANCH  34  36
ENDBRANCH  32  34
ENDBRANCH  26  32
ENDBRANCH  22  30
ENDBRANCH  21  23
ENDBRANCH  20  21
ENDBRANCH   1  20
TORSDOF 7
ENDMDL
MODEL 3
REMARK VINA RESULT:      -8.1      3.044      6.083
REMARK  Name = 
REMARK  10 active torsions:
REMARK  status: ('A' for Active; 'I' for Inactive)
REMARK    1  A    between atoms: C_1  and  C_2
REMARK    2  A    between atoms: C_2  and  O_3
REMARK    3  A    between atoms: O_3  and  C_4
REMARK    4  A    between atoms: C_4  and  C_6
REMARK    5  A    between atoms: C_10  and  N_11
REMARK    6  A    between atoms: C_12  and  C_14
REMARK    7  A    between atoms: C_14  and  C_15
REMARK    8  A    between atoms: C_15  and  C_16
REMARK    9  A    between atoms: C_17  and  C_18
REMARK   10  A    between atoms: C_33  and  C_34
REMARK                            x       y       z     vdW  Elec       q    Type
REMARK                         _______ _______ _______ _____ _____    ______ ____
ROOT
ATOM      1  C   UNL     1       3.480   5.231  19.066  0.00  0.00    +0.000 A 
ATOM      2  C   UNL     1       2.766   4.805  20.215  0.00  0.00    +0.000 A 
ATOM      3  C   UNL     1       2.711   3.488  20.898  0.00  0.00    +0.000 C 
ATOM      4  N   UNL     1       2.047   5.797  20.750  0.00  0.00    +0.000 NA
ATOM      5  N   UNL     1       2.231   6.870  19.933  0.00  0.00    +0.000 N 
ATOM      6  C   UNL     1       1.462   8.057  20.142  0.00  0.00    +0.000 A 
ATOM      7  C   UNL     1       0.640   8.155  21.257  0.00  0.00    +0.000 A 
ATOM      8  C   UNL     1      -0.153   9.292  21.418  0.00  0.00    +0.000 A 
ATOM      9  C   UNL     1      -0.138  10.312  20.474  0.00  0.00    +0.000 A 
ATOM     10  N   UNL     1      -0.976  11.406  20.594  0.00  0.00    +0.000 N 
ATOM     11  C   UNL     1      -1.411  12.115  19.391  0.00  0.00    +0.000 C 
ATOM     12  C   UNL     1      -0.908  13.555  19.387  0.00  0.00    +0.000 C 
ATOM     13  C   UNL     1      -1.230  14.265  20.700  0.00  0.00    +0.000 C 
ATOM     14  C   UNL     1      -0.694  13.467  21.885  0.00  0.00    +0.000 C 
ATOM     15  C   UNL     1      -1.234  12.037  21.883  0.00  0.00    +0.000 C 
ATOM     16  N   UNL     1       0.674  10.174  19.405  0.00  0.00    +0.000 NA
ATOM     17  N   UNL     1       1.485   9.055  19.241  0.00  0.00    +0.000 NA
ATOM     18  C   UNL     1       3.175   6.588  18.958  0.00  0.00    +0.000 A 
ATOM     19  C   UNL     1       3.750   7.581  18.004  0.00  0.00    +0.000 C 
ENDROOT
BRANCH   1  20
ATOM     20  C   UNL     1       4.446   4.534  18.155  0.00  0.00    +0.000 C 
BRANCH  20  21
ATOM     21  C   UNL     1       5.948   4.657  18.410  0.00  0.00    +0.000 C 
BRANCH  21  23
ATOM     22  N   UNL     1       5.911   4.953  15.985  0.00  0.00    +0.000 N 
ATOM     23  C   UNL     1       6.673   4.564  17.076  0.00  0.00    +0.000 C 
ATOM     24  O   UNL     1       7.832   4.167  17.010  0.00  0.00    +0.000 OA
ATOM     25  H   UNL     1       5.073   5.495  16.161  0.00  0.00    +0.000 HD
BRANCH  22  30
ATOM     26  C   UNL     1       5.913   3.814  12.463  0.00  0.00    +0.000 A 
ATOM     27  C   UNL     1       7.048   4.452  11.949  0.00  0.00    +0.000 A 
ATOM     28  C   UNL     1       7.833   5.232  12.783  0.00  0.00    +0.000 A 
ATOM     29  C   UNL     1       7.472   5.392  14.120  0.00  0.00    +0.000 A 
ATOM     30  C   UNL     1       6.317   4.795  14.640  0.00  0.00    +0.000 A 
ATOM     31  C   UNL     1       5.548   3.983  13.808  0.00  0.00    +0.000 A 
BRANCH  26  32
ATOM     32  C   UNL     1       5.118   2.871  11.647  0.00  0.00    +0.000 C 
ATOM     33  O   UNL     1       4.167   3.220  10.968  0.00  0.00    +0.000 OA
BRANCH  32  34
ATOM     34  O   UNL     1       5.520   1.603  11.904  0.00  0.00    +0.000 OA
BRANCH  34  36
ATOM     35  C   UNL     1       7.593   1.583  10.721  0.00  0.00    +0.000 C 
ATOM     36  C   UNL     1       6.226   0.934  10.852  0.00  0.00    +0.000 C 
ENDBRANCH  34  36
ENDBRANCH  32  34
ENDBRANCH  26  32
ENDBRANCH  22  30
ENDBRANCH  21  23
ENDBRANCH  20  21
ENDBRANCH   1  20
TORSDOF 7
ENDMDL
MODEL 4
REMARK VINA RESULT:      -8.1      4.360     10.989
REMARK  Name = 
REMARK  10 active torsions:
REMARK  status: ('A' for Active; 'I' for Inactive)
REMARK    1  A    between atoms: C_1  and  C_2
REMARK    2  A    between atoms: C_2  and  O_3
REMARK    3  A    between atoms: O_3  and  C_4
REMARK    4  A    between atoms: C_4  and  C_6
REMARK    5  A    between atoms: C_10  and  N_11
REMARK    6  A    between atoms: C_12  and  C_14
REMARK    7  A    between atoms: C_14  and  C_15
REMARK    8  A    between atoms: C_15  and  C_16
REMARK    9  A    between atoms: C_17  and  C_18
REMARK   10  A    between atoms: C_33  and  C_34
REMARK                            x       y       z     vdW  Elec       q    Type
REMARK                         _______ _______ _______ _____ _____    ______ ____
ROOT
ATOM      1  C   UNL     1      -0.266  11.529  21.571  0.00  0.00    +0.000 A 
ATOM      2  C   UNL     1       0.124  11.858  20.248  0.00  0.00    +0.000 A 
ATOM      3  C   UNL     1      -0.099  13.084  19.441  0.00  0.00    +0.000 C 
ATOM      4  N   UNL     1       0.822  10.873  19.676  0.00  0.00    +0.000 NA
ATOM      5  N   UNL     1       0.854   9.863  20.588  0.00  0.00    +0.000 N 
ATOM      6  C   UNL     1       1.395   8.592  20.217  0.00  0.00    +0.000 A 
ATOM      7  C   UNL     1       2.008   8.442  18.980  0.00  0.00    +0.000 A 
ATOM      8  C   UNL     1       2.476   7.182  18.602  0.00  0.00    +0.000 A 
ATOM      9  C   UNL     1       2.323   6.084  19.441  0.00  0.00    +0.000 A 
ATOM     10  N   UNL     1       2.721   4.822  19.039  0.00  0.00    +0.000 N 
ATOM     11  C   UNL     1       2.043   3.646  19.585  0.00  0.00    +0.000 C 
ATOM     12  C   UNL     1       3.006   2.779  20.391  0.00  0.00    +0.000 C 
ATOM     13  C   UNL     1       4.280   2.477  19.606  0.00  0.00    +0.000 C 
ATOM     14  C   UNL     1       4.930   3.769  19.122  0.00  0.00    +0.000 C 
ATOM     15  C   UNL     1       3.956   4.607  18.294  0.00  0.00    +0.000 C 
ATOM     16  N   UNL     1       1.720   6.275  20.632  0.00  0.00    +0.000 NA
ATOM     17  N   UNL     1       1.265   7.530  21.030  0.00  0.00    +0.000 NA
ATOM     18  C   UNL     1       0.289  10.267  21.787  0.00  0.00    +0.000 A 
ATOM     19  C   UNL     1       0.310   9.482  23.057  0.00  0.00    +0.000 C 
ENDROOT
BRANCH   1  20
ATOM     20  C   UNL     1      -1.002  12.291  22.632  0.00  0.00    +0.000 C 
BRANCH  20  21
ATOM     21  C   UNL     1      -1.155  13.807  22.505  0.00  0.00    +0.000 C 
BRANCH  21  23
ATOM     22  N   UNL     1      -3.491  13.176  22.164  0.00  0.00    +0.000 N 
ATOM     23  C   UNL     1      -2.504  14.103  21.868  0.00  0.00    +0.000 C 
ATOM     24  O   UNL     1      -2.665  15.086  21.152  0.00  0.00    +0.000 OA
ATOM     25  H   UNL     1      -3.338  12.555  22.950  0.00  0.00    +0.000 HD
BRANCH  22  30
ATOM     26  C   UNL     1      -6.174  12.405  19.733  0.00  0.00    +0.000 A 
ATOM     27  C   UNL     1      -7.279  13.052  20.300  0.00  0.00    +0.000 A 
ATOM     28  C   UNL     1      -7.122  13.776  21.471  0.00  0.00    +0.000 A 
ATOM     29  C   UNL     1      -5.872  13.833  22.086  0.00  0.00    +0.000 A 
ATOM     30  C   UNL     1      -4.767  13.156  21.555  0.00  0.00    +0.000 A 
ATOM     31  C   UNL     1      -4.919  12.458  20.359  0.00  0.00    +0.000 A 
BRANCH  26  32
ATOM     32  C   UNL     1      -6.262  11.730  18.420  0.00  0.00    +0.000 C 
ATOM     33  O   UNL     1      -6.974  10.761  18.218  0.00  0.00    +0.000 OA
BRANCH  32  34
ATOM     34  O   UNL     1      -5.339  12.257  17.579  0.00  0.00    +0.000 OA
BRANCH  34  36
ATOM     35  C   UNL     1      -3.583  10.640  17.541  0.00  0.00    +0.000 C 
ATOM     36  C   UNL     1      -4.659  11.332  16.722  0.00  0.00    +0.000 C 
ENDBRANCH  34  36
ENDBRANCH  32  34
ENDBRANCH  26  32
ENDBRANCH  22  30
ENDBRANCH  21  23
ENDBRANCH  20  21
ENDBRANCH   1  20
TORSDOF 7
ENDMDL
MODEL 5
REMARK VINA RESULT:      -8.0      4.031     10.114
REMARK  Name = 
REMARK  10 active torsions:
REMARK  status: ('A' for Active; 'I' for Inactive)
REMARK    1  A    between atoms: C_1  and  C_2
REMARK    2  A    between atoms: C_2  and  O_3
REMARK    3  A    between atoms: O_3  and  C_4
REMARK    4  A    between atoms: C_4  and  C_6
REMARK    5  A    between atoms: C_10  and  N_11
REMARK    6  A    between atoms: C_12  and  C_14
REMARK    7  A    between atoms: C_14  and  C_15
REMARK    8  A    between atoms: C_15  and  C_16
REMARK    9  A    between atoms: C_17  and  C_18
REMARK   10  A    between atoms: C_33  and  C_34
REMARK                            x       y       z     vdW  Elec       q    Type
REMARK                         _______ _______ _______ _____ _____    ______ ____
ROOT
ATOM      1  C   UNL     1      -0.228  11.779  21.643  0.00  0.00    +0.000 A 
ATOM      2  C   UNL     1       0.270  12.098  20.353  0.00  0.00    +0.000 A 
ATOM      3  C   UNL     1       0.185  13.347  19.555  0.00  0.00    +0.000 C 
ATOM      4  N   UNL     1       0.934  11.074  19.810  0.00  0.00    +0.000 NA
ATOM      5  N   UNL     1       0.836  10.052  20.704  0.00  0.00    +0.000 N 
ATOM      6  C   UNL     1       1.312   8.751  20.346  0.00  0.00    +0.000 A 
ATOM      7  C   UNL     1       1.992   8.575  19.149  0.00  0.00    +0.000 A 
ATOM      8  C   UNL     1       2.396   7.290  18.779  0.00  0.00    +0.000 A 
ATOM      9  C   UNL     1       2.113   6.195  19.587  0.00  0.00    +0.000 A 
ATOM     10  N   UNL     1       2.448   4.913  19.190  0.00  0.00    +0.000 N 
ATOM     11  C   UNL     1       1.657   3.781  19.670  0.00  0.00    +0.000 C 
ATOM     12  C   UNL     1       2.503   2.838  20.521  0.00  0.00    +0.000 C 
ATOM     13  C   UNL     1       3.801   2.458  19.813  0.00  0.00    +0.000 C 
ATOM     14  C   UNL     1       4.569   3.708  19.395  0.00  0.00    +0.000 C 
ATOM     15  C   UNL     1       3.711   4.622  18.521  0.00  0.00    +0.000 C 
ATOM     16  N   UNL     1       1.448   6.412  20.740  0.00  0.00    +0.000 NA
ATOM     17  N   UNL     1       1.056   7.690  21.131  0.00  0.00    +0.000 NA
ATOM     18  C   UNL     1       0.224  10.479  21.871  0.00  0.00    +0.000 A 
ATOM     19  C   UNL     1       0.108   9.678  23.126  0.00  0.00    +0.000 C 
ENDROOT
BRANCH   1  20
ATOM     20  C   UNL     1      -0.977  12.577  22.668  0.00  0.00    +0.000 C 
BRANCH  20  21
ATOM     21  C   UNL     1      -2.496  12.443  22.768  0.00  0.00    +0.000 C 
BRANCH  21  23
ATOM     22  N   UNL     1      -4.127  12.135  20.974  0.00  0.00    +0.000 N 
ATOM     23  C   UNL     1      -3.111  12.939  21.468  0.00  0.00    +0.000 C 
ATOM     24  O   UNL     1      -2.711  13.965  20.927  0.00  0.00    +0.000 OA
ATOM     25  H   UNL     1      -4.551  11.466  21.606  0.00  0.00    +0.000 HD
BRANCH  22  30
ATOM     26  C   UNL     1      -4.751  11.774  17.344  0.00  0.00    +0.000 A 
ATOM     27  C   UNL     1      -5.880  12.582  17.158  0.00  0.00    +0.000 A 
ATOM     28  C   UNL     1      -6.410  13.275  18.234  0.00  0.00    +0.000 A 
ATOM     29  C   UNL     1      -5.830  13.143  19.495  0.00  0.00    +0.000 A 
ATOM     30  C   UNL     1      -4.727  12.307  19.706  0.00  0.00    +0.000 A 
ATOM     31  C   UNL     1      -4.174  11.638  18.616  0.00  0.00    +0.000 A 
BRANCH  26  32
ATOM     32  C   UNL     1      -4.072  11.119  16.205  0.00  0.00    +0.000 C 
ATOM     33  O   UNL     1      -4.174  11.513  15.056  0.00  0.00    +0.000 OA
BRANCH  32  34
ATOM     34  O   UNL     1      -3.483   9.975  16.629  0.00  0.00    +0.000 OA
BRANCH  34  36
ATOM     35  C   UNL     1      -1.270   9.842  17.515  0.00  0.00    +0.000 C 
ATOM     36  C   UNL     1      -2.113   9.789  16.252  0.00  0.00    +0.000 C 
ENDBRANCH  34  36
ENDBRANCH  32  34
ENDBRANCH  26  32
ENDBRANCH  22  30
ENDBRANCH  21  23
ENDBRANCH  20  21
ENDBRANCH   1  20
TORSDOF 7
ENDMDL
MODEL 6
REMARK VINA RESULT:      -8.0      1.856      2.704
REMARK  Name = 
REMARK  10 active torsions:
REMARK  status: ('A' for Active; 'I' for Inactive)
REMARK    1  A    between atoms: C_1  and  C_2
REMARK    2  A    between atoms: C_2  and  O_3
REMARK    3  A    between atoms: O_3  and  C_4
REMARK    4  A    between atoms: C_4  and  C_6
REMARK    5  A    between atoms: C_10  and  N_11
REMARK    6  A    between atoms: C_12  and  C_14
REMARK    7  A    between atoms: C_14  and  C_15
REMARK    8  A    between atoms: C_15  and  C_16
REMARK    9  A    between atoms: C_17  and  C_18
REMARK   10  A    between atoms: C_33  and  C_34
REMARK                            x       y       z     vdW  Elec       q    Type
REMARK                         _______ _______ _______ _____ _____    ______ ____
ROOT
ATOM      1  C   UNL     1       0.268  10.769  20.776  0.00  0.00    +0.000 A 
ATOM      2  C   UNL     1      -0.046  10.284  22.072  0.00  0.00    +0.000 A 
ATOM      3  C   UNL     1       0.586   9.225  22.898  0.00  0.00    +0.000 C 
ATOM      4  N   UNL     1      -1.085  10.933  22.607  0.00  0.00    +0.000 NA
ATOM      5  N   UNL     1      -1.504  11.810  21.655  0.00  0.00    +0.000 N 
ATOM      6  C   UNL     1      -2.711  12.551  21.859  0.00  0.00    +0.000 A 
ATOM      7  C   UNL     1      -3.366  12.472  23.080  0.00  0.00    +0.000 A 
ATOM      8  C   UNL     1      -4.576  13.148  23.247  0.00  0.00    +0.000 A 
ATOM      9  C   UNL     1      -5.132  13.882  22.205  0.00  0.00    +0.000 A 
ATOM     10  N   UNL     1      -6.365  14.493  22.344  0.00  0.00    +0.000 N 
ATOM     11  C   UNL     1      -7.199  14.708  21.162  0.00  0.00    +0.000 C 
ATOM     12  C   UNL     1      -7.426  16.195  20.909  0.00  0.00    +0.000 C 
ATOM     13  C   UNL     1      -7.905  16.911  22.170  0.00  0.00    +0.000 C 
ATOM     14  C   UNL     1      -6.943  16.660  23.327  0.00  0.00    +0.000 C 
ATOM     15  C   UNL     1      -6.754  15.164  23.579  0.00  0.00    +0.000 C 
ATOM     16  N   UNL     1      -4.462  13.929  21.035  0.00  0.00    +0.000 NA
ATOM     17  N   UNL     1      -3.245  13.276  20.860  0.00  0.00    +0.000 NA
ATOM     18  C   UNL     1      -0.642  11.806  20.571  0.00  0.00    +0.000 A 
ATOM     19  C   UNL     1      -0.693  12.763  19.425  0.00  0.00    +0.000 C 
ENDROOT
BRANCH   1  20
ATOM     20  C   UNL     1       1.349  10.422  19.797  0.00  0.00    +0.000 C 
BRANCH  20  21
ATOM     21  C   UNL     1       1.070   9.402  18.693  0.00  0.00    +0.000 C 
BRANCH  21  23
ATOM     22  N   UNL     1       2.645   7.777  17.772  0.00  0.00    +0.000 N 
ATOM     23  C   UNL     1       1.974   8.197  18.909  0.00  0.00    +0.000 C 
ATOM     24  O   UNL     1       2.069   7.665  20.010  0.00  0.00    +0.000 OA
ATOM     25  H   UNL     1       2.700   8.419  16.990  0.00  0.00    +0.000 HD
BRANCH  22  30
ATOM     26  C   UNL     1       5.556   5.530  17.349  0.00  0.00    +0.000 A 
ATOM     27  C   UNL     1       4.985   4.268  17.551  0.00  0.00    +0.000 A 
ATOM     28  C   UNL     1       3.624   4.163  17.791  0.00  0.00    +0.000 A 
ATOM     29  C   UNL     1       2.842   5.315  17.853  0.00  0.00    +0.000 A 
ATOM     30  C   UNL     1       3.406   6.587  17.695  0.00  0.00    +0.000 A 
ATOM     31  C   UNL     1       4.768   6.689  17.420  0.00  0.00    +0.000 A 
BRANCH  26  32
ATOM     32  C   UNL     1       6.976   5.685  16.964  0.00  0.00    +0.000 C 
ATOM     33  O   UNL     1       7.747   4.744  16.880  0.00  0.00    +0.000 OA
BRANCH  32  34
ATOM     34  O   UNL     1       7.280   7.003  16.882  0.00  0.00    +0.000 OA
BRANCH  34  36
ATOM     35  C   UNL     1       8.001   9.082  17.805  0.00  0.00    +0.000 C 
ATOM     36  C   UNL     1       7.896   7.585  18.037  0.00  0.00    +0.000 C 
ENDBRANCH  34  36
ENDBRANCH  32  34
ENDBRANCH  26  32
ENDBRANCH  22  30
ENDBRANCH  21  23
ENDBRANCH  20  21
ENDBRANCH   1  20
TORSDOF 7
ENDMDL
MODEL 7
REMARK VINA RESULT:      -8.0      2.189      3.562
REMARK  Name = 
REMARK  10 active torsions:
REMARK  status: ('A' for Active; 'I' for Inactive)
REMARK    1  A    between atoms: C_1  and  C_2
REMARK    2  A    between atoms: C_2  and  O_3
REMARK    3  A    between atoms: O_3  and  C_4
REMARK    4  A    between atoms: C_4  and  C_6
REMARK    5  A    between atoms: C_10  and  N_11
REMARK    6  A    between atoms: C_12  and  C_14
REMARK    7  A    between atoms: C_14  and  C_15
REMARK    8  A    between atoms: C_15  and  C_16
REMARK    9  A    between atoms: C_17  and  C_18
REMARK   10  A    between atoms: C_33  and  C_34
REMARK                            x       y       z     vdW  Elec       q    Type
REMARK                         _______ _______ _______ _____ _____    ______ ____
ROOT
ATOM      1  C   UNL     1       0.112  10.125  19.423  0.00  0.00    +0.000 A 
ATOM      2  C   UNL     1       0.244   9.648  20.752  0.00  0.00    +0.000 A 
ATOM      3  C   UNL     1       0.984   8.484  21.302  0.00  0.00    +0.000 C 
ATOM      4  N   UNL     1      -0.412  10.418  21.625  0.00  0.00    +0.000 NA
ATOM      5  N   UNL     1      -1.031  11.376  20.882  0.00  0.00    +0.000 N 
ATOM      6  C   UNL     1      -1.953  12.271  21.509  0.00  0.00    +0.000 A 
ATOM      7  C   UNL     1      -2.103  12.246  22.889  0.00  0.00    +0.000 A 
ATOM      8  C   UNL     1      -3.052  13.079  23.484  0.00  0.00    +0.000 A 
ATOM      9  C   UNL     1      -3.849  13.917  22.713  0.00  0.00    +0.000 A 
ATOM     10  N   UNL     1      -4.838  14.690  23.293  0.00  0.00    +0.000 N 
ATOM     11  C   UNL     1      -6.017  15.058  22.509  0.00  0.00    +0.000 C 
ATOM     12  C   UNL     1      -6.108  16.570  22.326  0.00  0.00    +0.000 C 
ATOM     13  C   UNL     1      -5.970  17.305  23.658  0.00  0.00    +0.000 C 
ATOM     14  C   UNL     1      -4.689  16.884  24.371  0.00  0.00    +0.000 C 
ATOM     15  C   UNL     1      -4.634  15.369  24.567  0.00  0.00    +0.000 C 
ATOM     16  N   UNL     1      -3.670  13.908  21.376  0.00  0.00    +0.000 NA
ATOM     17  N   UNL     1      -2.715  13.096  20.770  0.00  0.00    +0.000 NA
ATOM     18  C   UNL     1      -0.651  11.286  19.552  0.00  0.00    +0.000 A 
ATOM     19  C   UNL     1      -0.994  12.277  18.489  0.00  0.00    +0.000 C 
ENDROOT
BRANCH   1  20
ATOM     20  C   UNL     1       0.682   9.662  18.116  0.00  0.00    +0.000 C 
BRANCH  20  21
ATOM     21  C   UNL     1       2.186   9.417  17.992  0.00  0.00    +0.000 C 
BRANCH  21  23
ATOM     22  N   UNL     1       3.756   7.561  17.751  0.00  0.00    +0.000 N 
ATOM     23  C   UNL     1       2.420   7.923  17.826  0.00  0.00    +0.000 C 
ATOM     24  O   UNL     1       1.481   7.137  17.759  0.00  0.00    +0.000 OA
ATOM     25  H   UNL     1       4.447   8.231  18.065  0.00  0.00    +0.000 HD
BRANCH  22  30
ATOM     26  C   UNL     1       4.457   3.942  18.090  0.00  0.00    +0.000 A 
ATOM     27  C   UNL     1       5.054   3.642  16.860  0.00  0.00    +0.000 A 
ATOM     28  C   UNL     1       5.257   4.651  15.933  0.00  0.00    +0.000 A 
ATOM     29  C   UNL     1       4.843   5.950  16.224  0.00  0.00    +0.000 A 
ATOM     30  C   UNL     1       4.206   6.258  17.432  0.00  0.00    +0.000 A 
ATOM     31  C   UNL     1       4.034   5.249  18.377  0.00  0.00    +0.000 A 
BRANCH  26  32
ATOM     32  C   UNL     1       4.336   2.928  19.160  0.00  0.00    +0.000 C 
ATOM     33  O   UNL     1       5.189   2.761  20.015  0.00  0.00    +0.000 OA
BRANCH  32  34
ATOM     34  O   UNL     1       3.243   2.159  18.932  0.00  0.00    +0.000 OA
BRANCH  34  36
ATOM     35  C   UNL     1       1.011   2.978  19.141  0.00  0.00    +0.000 C 
ATOM     36  C   UNL     1       2.163   2.300  19.863  0.00  0.00    +0.000 C 
ENDBRANCH  34  36
ENDBRANCH  32  34
ENDBRANCH  26  32
ENDBRANCH  22  30
ENDBRANCH  21  23
ENDBRANCH  20  21
ENDBRANCH   1  20
TORSDOF 7
ENDMDL
MODEL 8
REMARK VINA RESULT:      -8.0      2.983      5.138
REMARK  Name = 
REMARK  10 active torsions:
REMARK  status: ('A' for Active; 'I' for Inactive)
REMARK    1  A    between atoms: C_1  and  C_2
REMARK    2  A    between atoms: C_2  and  O_3
REMARK    3  A    between atoms: O_3  and  C_4
REMARK    4  A    between atoms: C_4  and  C_6
REMARK    5  A    between atoms: C_10  and  N_11
REMARK    6  A    between atoms: C_12  and  C_14
REMARK    7  A    between atoms: C_14  and  C_15
REMARK    8  A    between atoms: C_15  and  C_16
REMARK    9  A    between atoms: C_17  and  C_18
REMARK   10  A    between atoms: C_33  and  C_34
REMARK                            x       y       z     vdW  Elec       q    Type
REMARK                         _______ _______ _______ _____ _____    ______ ____
ROOT
ATOM      1  C   UNL     1       3.380   6.525  18.919  0.00  0.00    +0.000 A 
ATOM      2  C   UNL     1       3.524   7.483  17.883  0.00  0.00    +0.000 A 
ATOM      3  C   UNL     1       4.440   7.528  16.715  0.00  0.00    +0.000 C 
ATOM      4  N   UNL     1       2.655   8.490  18.012  0.00  0.00    +0.000 NA
ATOM      5  N   UNL     1       1.968   8.241  19.161  0.00  0.00    +0.000 N 
ATOM      6  C   UNL     1       1.065   9.225  19.672  0.00  0.00    +0.000 A 
ATOM      7  C   UNL     1       0.792  10.361  18.921  0.00  0.00    +0.000 A 
ATOM      8  C   UNL     1      -0.041  11.345  19.457  0.00  0.00    +0.000 A 
ATOM      9  C   UNL     1      -0.585  11.204  20.729  0.00  0.00    +0.000 A 
ATOM     10  N   UNL     1      -1.352  12.209  21.290  0.00  0.00    +0.000 N 
ATOM     11  C   UNL     1      -1.395  12.354  22.744  0.00  0.00    +0.000 C 
ATOM     12  C   UNL     1      -2.805  12.127  23.280  0.00  0.00    +0.000 C 
ATOM     13  C   UNL     1      -3.834  12.961  22.523  0.00  0.00    +0.000 C 
ATOM     14  C   UNL     1      -3.736  12.701  21.023  0.00  0.00    +0.000 C 
ATOM     15  C   UNL     1      -2.322  12.963  20.504  0.00  0.00    +0.000 C 
ATOM     16  N   UNL     1      -0.292  10.085  21.423  0.00  0.00    +0.000 NA
ATOM     17  N   UNL     1       0.522   9.087  20.894  0.00  0.00    +0.000 NA
ATOM     18  C   UNL     1       2.315   7.004  19.681  0.00  0.00    +0.000 A 
ATOM     19  C   UNL     1       1.638   6.333  20.830  0.00  0.00    +0.000 C 
ENDROOT
BRANCH   1  20
ATOM     20  C   UNL     1       4.061   5.218  19.195  0.00  0.00    +0.000 C 
BRANCH  20  21
ATOM     21  C   UNL     1       3.888   4.055  18.218  0.00  0.00    +0.000 C 
BRANCH  21  23
ATOM     22  N   UNL     1       4.608   4.391  15.907  0.00  0.00    +0.000 N 
ATOM     23  C   UNL     1       5.018   4.107  17.200  0.00  0.00    +0.000 C 
ATOM     24  O   UNL     1       6.181   3.903  17.532  0.00  0.00    +0.000 OA
ATOM     25  H   UNL     1       3.684   4.789  15.779  0.00  0.00    +0.000 HD
BRANCH  22  30
ATOM     26  C   UNL     1       5.893   3.423  12.574  0.00  0.00    +0.000 A 
ATOM     27  C   UNL     1       7.074   4.171  12.486  0.00  0.00    +0.000 A 
ATOM     28  C   UNL     1       7.461   4.968  13.551  0.00  0.00    +0.000 A 
ATOM     29  C   UNL     1       6.659   5.037  14.689  0.00  0.00    +0.000 A 
ATOM     30  C   UNL     1       5.454   4.329  14.776  0.00  0.00    +0.000 A 
ATOM     31  C   UNL     1       5.084   3.501  13.718  0.00  0.00    +0.000 A 
BRANCH  26  32
ATOM     32  C   UNL     1       5.506   2.461  11.519  0.00  0.00    +0.000 C 
ATOM     33  O   UNL     1       6.306   1.729  10.963  0.00  0.00    +0.000 OA
BRANCH  32  34
ATOM     34  O   UNL     1       4.203   2.648  11.196  0.00  0.00    +0.000 OA
BRANCH  34  36
ATOM     35  C   UNL     1       3.025   3.834   9.492  0.00  0.00    +0.000 C 
ATOM     36  C   UNL     1       3.838   3.966  10.768  0.00  0.00    +0.000 C 
ENDBRANCH  34  36
ENDBRANCH  32  34
ENDBRANCH  26  32
ENDBRANCH  22  30
ENDBRANCH  21  23
ENDBRANCH  20  21
ENDBRANCH   1  20
TORSDOF 7
ENDMDL
MODEL 9
REMARK VINA RESULT:      -8.0      4.288     11.142
REMARK  Name = 
REMARK  10 active torsions:
REMARK  status: ('A' for Active; 'I' for Inactive)
REMARK    1  A    between atoms: C_1  and  C_2
REMARK    2  A    between atoms: C_2  and  O_3
REMARK    3  A    between atoms: O_3  and  C_4
REMARK    4  A    between atoms: C_4  and  C_6
REMARK    5  A    between atoms: C_10  and  N_11
REMARK    6  A    between atoms: C_12  and  C_14
REMARK    7  A    between atoms: C_14  and  C_15
REMARK    8  A    between atoms: C_15  and  C_16
REMARK    9  A    between atoms: C_17  and  C_18
REMARK   10  A    between atoms: C_33  and  C_34
REMARK                            x       y       z     vdW  Elec       q    Type
REMARK                         _______ _______ _______ _____ _____    ______ ____
ROOT
ATOM      1  C   UNL     1       0.818  11.474  20.045  0.00  0.00    +0.000 A 
ATOM      2  C   UNL     1       0.271  10.934  21.237  0.00  0.00    +0.000 A 
ATOM      3  C   UNL     1      -0.417  11.587  22.379  0.00  0.00    +0.000 C 
ATOM      4  N   UNL     1       0.406   9.605  21.289  0.00  0.00    +0.000 NA
ATOM      5  N   UNL     1       1.092   9.258  20.165  0.00  0.00    +0.000 N 
ATOM      6  C   UNL     1       1.541   7.911  19.999  0.00  0.00    +0.000 A 
ATOM      7  C   UNL     1       1.156   6.942  20.916  0.00  0.00    +0.000 A 
ATOM      8  C   UNL     1       1.652   5.643  20.780  0.00  0.00    +0.000 A 
ATOM      9  C   UNL     1       2.531   5.320  19.753  0.00  0.00    +0.000 A 
ATOM     10  N   UNL     1       3.080   4.054  19.659  0.00  0.00    +0.000 N 
ATOM     11  C   UNL     1       4.389   3.882  19.030  0.00  0.00    +0.000 C 
ATOM     12  C   UNL     1       4.289   3.021  17.774  0.00  0.00    +0.000 C 
ATOM     13  C   UNL     1       3.532   1.722  18.044  0.00  0.00    +0.000 C 
ATOM     14  C   UNL     1       2.166   2.015  18.656  0.00  0.00    +0.000 C 
ATOM     15  C   UNL     1       2.294   2.855  19.927  0.00  0.00    +0.000 C 
ATOM     16  N   UNL     1       2.880   6.294  18.887  0.00  0.00    +0.000 NA
ATOM     17  N   UNL     1       2.378   7.588  18.998  0.00  0.00    +0.000 NA
ATOM     18  C   UNL     1       1.268  10.357  19.340  0.00  0.00    +0.000 A 
ATOM     19  C   UNL     1       1.820  10.313  17.953  0.00  0.00    +0.000 C 
ENDROOT
BRANCH   1  20
ATOM     20  C   UNL     1       0.875  12.867  19.494  0.00  0.00    +0.000 C 
BRANCH  20  21
ATOM     21  C   UNL     1      -0.198  13.336  18.512  0.00  0.00    +0.000 C 
BRANCH  21  23
ATOM     22  N   UNL     1      -2.355  12.189  18.552  0.00  0.00    +0.000 N 
ATOM     23  C   UNL     1      -1.561  13.148  19.161  0.00  0.00    +0.000 C 
ATOM     24  O   UNL     1      -1.897  13.814  20.135  0.00  0.00    +0.000 OA
ATOM     25  H   UNL     1      -1.906  11.528  17.929  0.00  0.00    +0.000 HD
BRANCH  22  30
ATOM     26  C   UNL     1      -5.523  12.200  20.468  0.00  0.00    +0.000 A 
ATOM     27  C   UNL     1      -6.403  11.567  19.583  0.00  0.00    +0.000 A 
ATOM     28  C   UNL     1      -5.934  11.104  18.364  0.00  0.00    +0.000 A 
ATOM     29  C   UNL     1      -4.596  11.294  18.021  0.00  0.00    +0.000 A 
ATOM     30  C   UNL     1      -3.713  11.962  18.877  0.00  0.00    +0.000 A 
ATOM     31  C   UNL     1      -4.178  12.397  20.117  0.00  0.00    +0.000 A 
BRANCH  26  32
ATOM     32  C   UNL     1      -5.944  12.596  21.830  0.00  0.00    +0.000 C 
ATOM     33  O   UNL     1      -6.922  12.125  22.384  0.00  0.00    +0.000 OA
BRANCH  32  34
ATOM     34  O   UNL     1      -5.180  13.631  22.255  0.00  0.00    +0.000 OA
BRANCH  34  36
ATOM     35  C   UNL     1      -3.737  12.553  23.821  0.00  0.00    +0.000 C 
ATOM     36  C   UNL     1      -4.805  13.617  23.638  0.00  0.00    +0.000 C 
ENDBRANCH  34  36
ENDBRANCH  32  34
ENDBRANCH  26  32
ENDBRANCH  22  30
ENDBRANCH  21  23
ENDBRANCH  20  21
ENDBRANCH   1  20
TORSDOF 7
ENDMDL
