MODEL 1
REMARK VINA RESULT:      -6.9      0.000      0.000
REMARK  Name = 
REMARK  7 active torsions:
REMARK  status: ('A' for Active; 'I' for Inactive)
REMARK    1  A    between atoms: O_1  and  C_2
REMARK    2  A    between atoms: C_2  and  C_3
REMARK    3  A    between atoms: C_3  and  C_4
REMARK    4  A    between atoms: C_4  and  C_5
REMARK    5  A    between atoms: C_5  and  C_6
REMARK    6  A    between atoms: N_17  and  C_18
REMARK    7  A    between atoms: C_18  and  C_19
REMARK                            x       y       z     vdW  Elec       q    Type
REMARK                         _______ _______ _______ _____ _____    ______ ____
ROOT
ATOM      1  C   UNL     1       5.348   5.310  17.355  0.00  0.00    +0.000 C 
ATOM      2  C   UNL     1       4.439   6.412  17.986  0.00  0.00    +0.000 C 
ATOM      3  C   UNL     1       3.670   7.264  16.958  0.00  0.00    +0.000 C 
ATOM      4  C   UNL     1       2.728   8.240  17.668  0.00  0.00    +0.000 C 
ATOM      5  C   UNL     1       1.813   7.535  18.683  0.00  0.00    +0.000 C 
ATOM      6  N   UNL     1       2.586   6.741  19.623  0.00  0.00    +0.000 NA
ATOM      7  C   UNL     1       1.789   6.115  20.683  0.00  0.00    +0.000 C 
ATOM      8  C   UNL     1       1.196   4.726  20.385  0.00  0.00    +0.000 C 
ATOM      9  C   UNL     1       2.052   3.816  19.497  0.00  0.00    +0.000 C 
ATOM     10  C   UNL     1       2.686   4.594  18.339  0.00  0.00    +0.000 C 
ATOM     11  C   UNL     1       3.537   3.671  17.423  0.00  0.00    +0.000 C 
ATOM     12  N   UNL     1       4.482   4.397  16.556  0.00  0.00    +0.000 NA
ATOM     13  C   UNL     1       3.470   5.757  18.975  0.00  0.00    +0.000 C 
ENDROOT
BRANCH   1  14
ATOM     14  C   UNL     1       6.233   4.659  18.487  0.00  0.00    +0.000 C 
BRANCH  14  15
ATOM     15  C   UNL     1       7.056   5.526  19.452  0.00  0.00    +0.000 C 
BRANCH  15  16
ATOM     16  C   UNL     1       8.279   6.193  18.824  0.00  0.00    +0.000 C 
BRANCH  16  17
ATOM     17  C   UNL     1       7.982   7.610  18.340  0.00  0.00    +0.000 C 
BRANCH  17  18
ATOM     18  O   UNL     1       7.723   7.594  16.935  0.00  0.00    +0.000 OA
ATOM     19  H   UNL     1       8.086   8.427  16.579  0.00  0.00    +0.000 HD
ENDBRANCH  17  18
ENDBRANCH  16  17
ENDBRANCH  15  16
ENDBRANCH  14  15
ENDBRANCH   1  14
BRANCH  12  20
ATOM     20  C   UNL     1       5.317   3.507  15.726  0.00  0.00    +0.000 C 
BRANCH  20  21
ATOM     21  C   UNL     1       6.053   4.028  14.518  0.00  0.00    +0.000 A 
ATOM     22  C   UNL     1       7.088   4.954  14.561  0.00  0.00    +0.000 A 
ATOM     23  C   UNL     1       7.750   5.254  13.379  0.00  0.00    +0.000 A 
ATOM     24  N   UNL     1       7.466   4.697  12.179  0.00  0.00    +0.000 NA
ATOM     25  C   UNL     1       6.472   3.788  12.161  0.00  0.00    +0.000 A 
ATOM     26  C   UNL     1       5.749   3.431  13.282  0.00  0.00    +0.000 A 
ENDBRANCH  20  21
ENDBRANCH  12  20
TORSDOF 7
ENDMDL
MODEL 2
REMARK VINA RESULT:      -6.8      1.368      2.271
REMARK  Name = 
REMARK  7 active torsions:
REMARK  status: ('A' for Active; 'I' for Inactive)
REMARK    1  A    between atoms: O_1  and  C_2
REMARK    2  A    between atoms: C_2  and  C_3
REMARK    3  A    between atoms: C_3  and  C_4
REMARK    4  A    between atoms: C_4  and  C_5
REMARK    5  A    between atoms: C_5  and  C_6
REMARK    6  A    between atoms: N_17  and  C_18
REMARK    7  A    between atoms: C_18  and  C_19
REMARK                            x       y       z     vdW  Elec       q    Type
REMARK                         _______ _______ _______ _____ _____    ______ ____
ROOT
ATOM      1  C   UNL     1       4.933   5.732  18.395  0.00  0.00    +0.000 C 
ATOM      2  C   UNL     1       3.889   5.469  19.526  0.00  0.00    +0.000 C 
ATOM      3  C   UNL     1       2.737   6.491  19.574  0.00  0.00    +0.000 C 
ATOM      4  C   UNL     1       1.710   6.092  20.638  0.00  0.00    +0.000 C 
ATOM      5  C   UNL     1       1.232   4.640  20.473  0.00  0.00    +0.000 C 
ATOM      6  N   UNL     1       2.356   3.720  20.427  0.00  0.00    +0.000 NA
ATOM      7  C   UNL     1       1.975   2.305  20.368  0.00  0.00    +0.000 C 
ATOM      8  C   UNL     1       1.746   1.700  18.972  0.00  0.00    +0.000 C 
ATOM      9  C   UNL     1       2.639   2.250  17.855  0.00  0.00    +0.000 C 
ATOM     10  C   UNL     1       2.806   3.769  17.964  0.00  0.00    +0.000 C 
ATOM     11  C   UNL     1       3.693   4.335  16.821  0.00  0.00    +0.000 C 
ATOM     12  N   UNL     1       4.221   5.684  17.086  0.00  0.00    +0.000 NA
ATOM     13  C   UNL     1       3.341   4.046  19.381  0.00  0.00    +0.000 C 
ENDROOT
BRANCH   1  14
ATOM     14  C   UNL     1       6.159   4.757  18.587  0.00  0.00    +0.000 C 
BRANCH  14  15
ATOM     15  C   UNL     1       7.596   5.218  18.301  0.00  0.00    +0.000 C 
BRANCH  15  16
ATOM     16  C   UNL     1       7.913   6.639  18.766  0.00  0.00    +0.000 C 
BRANCH  16  17
ATOM     17  C   UNL     1       7.833   7.653  17.629  0.00  0.00    +0.000 C 
BRANCH  17  18
ATOM     18  O   UNL     1       8.246   8.937  18.100  0.00  0.00    +0.000 OA
ATOM     19  H   UNL     1       8.767   9.340  17.379  0.00  0.00    +0.000 HD
ENDBRANCH  17  18
ENDBRANCH  16  17
ENDBRANCH  15  16
ENDBRANCH  14  15
ENDBRANCH   1  14
BRANCH  12  20
ATOM     20  C   UNL     1       5.100   6.191  16.015  0.00  0.00    +0.000 C 
BRANCH  20  21
ATOM     21  C   UNL     1       5.666   5.268  14.964  0.00  0.00    +0.000 A 
ATOM     22  C   UNL     1       4.913   4.381  14.203  0.00  0.00    +0.000 A 
ATOM     23  C   UNL     1       5.553   3.677  13.193  0.00  0.00    +0.000 A 
ATOM     24  N   UNL     1       6.866   3.802  12.885  0.00  0.00    +0.000 NA
ATOM     25  C   UNL     1       7.573   4.680  13.622  0.00  0.00    +0.000 A 
ATOM     26  C   UNL     1       7.028   5.418  14.654  0.00  0.00    +0.000 A 
ENDBRANCH  20  21
ENDBRANCH  12  20
TORSDOF 7
ENDMDL
MODEL 3
REMARK VINA RESULT:      -6.5      1.462      2.266
REMARK  Name = 
REMARK  7 active torsions:
REMARK  status: ('A' for Active; 'I' for Inactive)
REMARK    1  A    between atoms: O_1  and  C_2
REMARK    2  A    between atoms: C_2  and  C_3
REMARK    3  A    between atoms: C_3  and  C_4
REMARK    4  A    between atoms: C_4  and  C_5
REMARK    5  A    between atoms: C_5  and  C_6
REMARK    6  A    between atoms: N_17  and  C_18
REMARK    7  A    between atoms: C_18  and  C_19
REMARK                            x       y       z     vdW  Elec       q    Type
REMARK                         _______ _______ _______ _____ _____    ______ ____
ROOT
ATOM      1  C   UNL     1       5.249   6.125  17.768  0.00  0.00    +0.000 C 
ATOM      2  C   UNL     1       4.212   5.881  18.910  0.00  0.00    +0.000 C 
ATOM      3  C   UNL     1       2.838   6.533  18.668  0.00  0.00    +0.000 C 
ATOM      4  C   UNL     1       1.859   6.151  19.781  0.00  0.00    +0.000 C 
ATOM      5  C   UNL     1       1.784   4.630  19.996  0.00  0.00    +0.000 C 
ATOM      6  N   UNL     1       3.105   4.065  20.213  0.00  0.00    +0.000 NA
ATOM      7  C   UNL     1       3.105   2.632  20.522  0.00  0.00    +0.000 C 
ATOM      8  C   UNL     1       3.160   1.659  19.331  0.00  0.00    +0.000 C 
ATOM      9  C   UNL     1       3.977   2.134  18.124  0.00  0.00    +0.000 C 
ATOM     10  C   UNL     1       3.739   3.618  17.832  0.00  0.00    +0.000 C 
ATOM     11  C   UNL     1       4.548   4.100  16.595  0.00  0.00    +0.000 C 
ATOM     12  N   UNL     1       4.689   5.563  16.506  0.00  0.00    +0.000 NA
ATOM     13  C   UNL     1       4.061   4.373  19.136  0.00  0.00    +0.000 C 
ENDROOT
BRANCH   1  14
ATOM     14  C   UNL     1       6.662   5.596  18.230  0.00  0.00    +0.000 C 
BRANCH  14  15
ATOM     15  C   UNL     1       7.819   6.564  18.519  0.00  0.00    +0.000 C 
BRANCH  15  16
ATOM     16  C   UNL     1       7.999   7.670  17.480  0.00  0.00    +0.000 C 
BRANCH  16  17
ATOM     17  C   UNL     1       8.171   9.044  18.120  0.00  0.00    +0.000 C 
BRANCH  17  18
ATOM     18  O   UNL     1       9.094   8.957  19.207  0.00  0.00    +0.000 OA
ATOM     19  H   UNL     1       9.752   8.282  18.956  0.00  0.00    +0.000 HD
ENDBRANCH  17  18
ENDBRANCH  16  17
ENDBRANCH  15  16
ENDBRANCH  14  15
ENDBRANCH   1  14
BRANCH  12  20
ATOM     20  C   UNL     1       5.499   6.004  15.354  0.00  0.00    +0.000 C 
BRANCH  20  21
ATOM     21  C   UNL     1       5.920   5.037  14.277  0.00  0.00    +0.000 A 
ATOM     22  C   UNL     1       5.084   4.094  13.690  0.00  0.00    +0.000 A 
ATOM     23  C   UNL     1       5.579   3.348  12.629  0.00  0.00    +0.000 A 
ATOM     24  N   UNL     1       6.824   3.482  12.114  0.00  0.00    +0.000 NA
ATOM     25  C   UNL     1       7.612   4.413  12.684  0.00  0.00    +0.000 A 
ATOM     26  C   UNL     1       7.213   5.197  13.750  0.00  0.00    +0.000 A 
ENDBRANCH  20  21
ENDBRANCH  12  20
TORSDOF 7
ENDMDL
MODEL 4
REMARK VINA RESULT:      -6.4      5.298      8.535
REMARK  Name = 
REMARK  7 active torsions:
REMARK  status: ('A' for Active; 'I' for Inactive)
REMARK    1  A    between atoms: O_1  and  C_2
REMARK    2  A    between atoms: C_2  and  C_3
REMARK    3  A    between atoms: C_3  and  C_4
REMARK    4  A    between atoms: C_4  and  C_5
REMARK    5  A    between atoms: C_5  and  C_6
REMARK    6  A    between atoms: N_17  and  C_18
REMARK    7  A    between atoms: C_18  and  C_19
REMARK                            x       y       z     vdW  Elec       q    Type
REMARK                         _______ _______ _______ _____ _____    ______ ____
ROOT
ATOM      1  C   UNL     1      -0.173   9.827  18.895  0.00  0.00    +0.000 C 
ATOM      2  C   UNL     1      -0.742  10.654  20.091  0.00  0.00    +0.000 C 
ATOM      3  C   UNL     1      -0.154  10.271  21.462  0.00  0.00    +0.000 C 
ATOM      4  C   UNL     1      -0.687  11.204  22.553  0.00  0.00    +0.000 C 
ATOM      5  C   UNL     1      -0.496  12.687  22.199  0.00  0.00    +0.000 C 
ATOM      6  N   UNL     1      -1.062  12.993  20.896  0.00  0.00    +0.000 NA
ATOM      7  C   UNL     1      -1.004  14.411  20.530  0.00  0.00    +0.000 C 
ATOM      8  C   UNL     1       0.268  14.898  19.813  0.00  0.00    +0.000 C 
ATOM      9  C   UNL     1       0.926  13.885  18.869  0.00  0.00    +0.000 C 
ATOM     10  C   UNL     1       0.931  12.476  19.469  0.00  0.00    +0.000 C 
ATOM     11  C   UNL     1       1.616  11.449  18.525  0.00  0.00    +0.000 C 
ATOM     12  N   UNL     1       1.301  10.045  18.840  0.00  0.00    +0.000 NA
ATOM     13  C   UNL     1      -0.534  12.146  19.812  0.00  0.00    +0.000 C 
ENDROOT
BRANCH   1  14
ATOM     14  C   UNL     1      -1.001  10.160  17.594  0.00  0.00    +0.000 C 
BRANCH  14  15
ATOM     15  C   UNL     1      -2.505   9.863  17.510  0.00  0.00    +0.000 C 
BRANCH  15  16
ATOM     16  C   UNL     1      -3.068   9.823  16.090  0.00  0.00    +0.000 C 
BRANCH  16  17
ATOM     17  C   UNL     1      -3.850  11.085  15.739  0.00  0.00    +0.000 C 
BRANCH  17  18
ATOM     18  O   UNL     1      -3.941  11.930  16.887  0.00  0.00    +0.000 OA
ATOM     19  H   UNL     1      -4.875  11.914  17.167  0.00  0.00    +0.000 HD
ENDBRANCH  17  18
ENDBRANCH  16  17
ENDBRANCH  15  16
ENDBRANCH  14  15
ENDBRANCH   1  14
BRANCH  12  20
ATOM     20  C   UNL     1       1.920   9.083  17.908  0.00  0.00    +0.000 C 
BRANCH  20  21
ATOM     21  C   UNL     1       2.605   7.837  18.410  0.00  0.00    +0.000 A 
ATOM     22  C   UNL     1       2.212   7.116  19.532  0.00  0.00    +0.000 A 
ATOM     23  C   UNL     1       2.867   5.924  19.808  0.00  0.00    +0.000 A 
ATOM     24  N   UNL     1       3.861   5.403  19.051  0.00  0.00    +0.000 NA
ATOM     25  C   UNL     1       4.215   6.107  17.959  0.00  0.00    +0.000 A 
ATOM     26  C   UNL     1       3.630   7.308  17.606  0.00  0.00    +0.000 A 
ENDBRANCH  20  21
ENDBRANCH  12  20
TORSDOF 7
ENDMDL
MODEL 5
REMARK VINA RESULT:      -6.4      1.422      1.834
REMARK  Name = 
REMARK  7 active torsions:
REMARK  status: ('A' for Active; 'I' for Inactive)
REMARK    1  A    between atoms: O_1  and  C_2
REMARK    2  A    between atoms: C_2  and  C_3
REMARK    3  A    between atoms: C_3  and  C_4
REMARK    4  A    between atoms: C_4  and  C_5
REMARK    5  A    between atoms: C_5  and  C_6
REMARK    6  A    between atoms: N_17  and  C_18
REMARK    7  A    between atoms: C_18  and  C_19
REMARK                            x       y       z     vdW  Elec       q    Type
REMARK                         _______ _______ _______ _____ _____    ______ ____
ROOT
ATOM      1  C   UNL     1       5.950   6.349  17.370  0.00  0.00    +0.000 C 
ATOM      2  C   UNL     1       4.651   6.640  18.184  0.00  0.00    +0.000 C 
ATOM      3  C   UNL     1       3.448   7.075  17.324  0.00  0.00    +0.000 C 
ATOM      4  C   UNL     1       2.197   7.232  18.191  0.00  0.00    +0.000 C 
ATOM      5  C   UNL     1       1.918   5.984  19.046  0.00  0.00    +0.000 C 
ATOM      6  N   UNL     1       3.083   5.614  19.831  0.00  0.00    +0.000 NA
ATOM      7  C   UNL     1       2.863   4.490  20.745  0.00  0.00    +0.000 C 
ATOM      8  C   UNL     1       3.103   3.076  20.186  0.00  0.00    +0.000 C 
ATOM      9  C   UNL     1       4.230   2.953  19.155  0.00  0.00    +0.000 C 
ATOM     10  C   UNL     1       4.223   4.126  18.170  0.00  0.00    +0.000 C 
ATOM     11  C   UNL     1       5.350   3.996  17.108  0.00  0.00    +0.000 C 
ATOM     12  N   UNL     1       5.657   5.252  16.404  0.00  0.00    +0.000 NA
ATOM     13  C   UNL     1       4.296   5.408  19.022  0.00  0.00    +0.000 C 
ENDROOT
BRANCH   1  14
ATOM     14  C   UNL     1       7.149   6.127  18.371  0.00  0.00    +0.000 C 
BRANCH  14  15
ATOM     15  C   UNL     1       8.165   7.243  18.658  0.00  0.00    +0.000 C 
BRANCH  15  16
ATOM     16  C   UNL     1       8.168   8.379  17.637  0.00  0.00    +0.000 C 
BRANCH  16  17
ATOM     17  C   UNL     1       8.422   9.739  18.282  0.00  0.00    +0.000 C 
BRANCH  17  18
ATOM     18  O   UNL     1       9.341   9.594  19.366  0.00  0.00    +0.000 OA
ATOM     19  H   UNL     1       8.801   9.450  20.166  0.00  0.00    +0.000 HD
ENDBRANCH  17  18
ENDBRANCH  16  17
ENDBRANCH  15  16
ENDBRANCH  14  15
ENDBRANCH   1  14
BRANCH  12  20
ATOM     20  C   UNL     1       6.760   5.125  15.433  0.00  0.00    +0.000 C 
BRANCH  20  21
ATOM     21  C   UNL     1       6.521   4.594  14.042  0.00  0.00    +0.000 A 
ATOM     22  C   UNL     1       7.496   4.492  13.056  0.00  0.00    +0.000 A 
ATOM     23  C   UNL     1       7.157   3.877  11.859  0.00  0.00    +0.000 A 
ATOM     24  N   UNL     1       5.939   3.354  11.585  0.00  0.00    +0.000 NA
ATOM     25  C   UNL     1       5.014   3.446  12.559  0.00  0.00    +0.000 A 
ATOM     26  C   UNL     1       5.252   4.049  13.779  0.00  0.00    +0.000 A 
ENDBRANCH  20  21
ENDBRANCH  12  20
TORSDOF 7
ENDMDL
MODEL 6
REMARK VINA RESULT:      -6.4      2.799      6.100
REMARK  Name = 
REMARK  7 active torsions:
REMARK  status: ('A' for Active; 'I' for Inactive)
REMARK    1  A    between atoms: O_1  and  C_2
REMARK    2  A    between atoms: C_2  and  C_3
REMARK    3  A    between atoms: C_3  and  C_4
REMARK    4  A    between atoms: C_4  and  C_5
REMARK    5  A    between atoms: C_5  and  C_6
REMARK    6  A    between atoms: N_17  and  C_18
REMARK    7  A    between atoms: C_18  and  C_19
REMARK                            x       y       z     vdW  Elec       q    Type
REMARK                         _______ _______ _______ _____ _____    ______ ____
ROOT
ATOM      1  C   UNL     1       3.687   6.268  19.534  0.00  0.00    +0.000 C 
ATOM      2  C   UNL     1       3.485   4.882  20.223  0.00  0.00    +0.000 C 
ATOM      3  C   UNL     1       2.276   4.817  21.175  0.00  0.00    +0.000 C 
ATOM      4  C   UNL     1       2.095   3.396  21.717  0.00  0.00    +0.000 C 
ATOM      5  C   UNL     1       2.046   2.345  20.596  0.00  0.00    +0.000 C 
ATOM      6  N   UNL     1       3.204   2.454  19.724  0.00  0.00    +0.000 NA
ATOM      7  C   UNL     1       3.277   1.421  18.687  0.00  0.00    +0.000 C 
ATOM      8  C   UNL     1       2.562   1.714  17.355  0.00  0.00    +0.000 C 
ATOM      9  C   UNL     1       2.564   3.180  16.910  0.00  0.00    +0.000 C 
ATOM     10  C   UNL     1       2.312   4.126  18.088  0.00  0.00    +0.000 C 
ATOM     11  C   UNL     1       2.291   5.614  17.638  0.00  0.00    +0.000 C 
ATOM     12  N   UNL     1       2.462   6.574  18.742  0.00  0.00    +0.000 NA
ATOM     13  C   UNL     1       3.382   3.796  19.146  0.00  0.00    +0.000 C 
ENDROOT
BRANCH   1  14
ATOM     14  C   UNL     1       5.063   6.267  18.763  0.00  0.00    +0.000 C 
BRANCH  14  15
ATOM     15  C   UNL     1       6.264   5.459  19.277  0.00  0.00    +0.000 C 
BRANCH  15  16
ATOM     16  C   UNL     1       7.508   5.535  18.393  0.00  0.00    +0.000 C 
BRANCH  16  17
ATOM     17  C   UNL     1       7.310   4.836  17.051  0.00  0.00    +0.000 C 
BRANCH  17  18
ATOM     18  O   UNL     1       7.427   5.787  15.991  0.00  0.00    +0.000 OA
ATOM     19  H   UNL     1       8.267   5.591  15.536  0.00  0.00    +0.000 HD
ENDBRANCH  17  18
ENDBRANCH  16  17
ENDBRANCH  15  16
ENDBRANCH  14  15
ENDBRANCH   1  14
BRANCH  12  20
ATOM     20  C   UNL     1       2.487   7.981  18.296  0.00  0.00    +0.000 C 
BRANCH  20  21
ATOM     21  C   UNL     1       1.476   8.980  18.799  0.00  0.00    +0.000 A 
ATOM     22  C   UNL     1       0.723   9.820  17.987  0.00  0.00    +0.000 A 
ATOM     23  C   UNL     1      -0.253  10.607  18.582  0.00  0.00    +0.000 A 
ATOM     24  N   UNL     1      -0.535  10.606  19.906  0.00  0.00    +0.000 NA
ATOM     25  C   UNL     1       0.193   9.772  20.673  0.00  0.00    +0.000 A 
ATOM     26  C   UNL     1       1.192   8.959  20.176  0.00  0.00    +0.000 A 
ENDBRANCH  20  21
ENDBRANCH  12  20
TORSDOF 7
ENDMDL
MODEL 7
REMARK VINA RESULT:      -6.3      2.508      6.698
REMARK  Name = 
REMARK  7 active torsions:
REMARK  status: ('A' for Active; 'I' for Inactive)
REMARK    1  A    between atoms: O_1  and  C_2
REMARK    2  A    between atoms: C_2  and  C_3
REMARK    3  A    between atoms: C_3  and  C_4
REMARK    4  A    between atoms: C_4  and  C_5
REMARK    5  A    between atoms: C_5  and  C_6
REMARK    6  A    between atoms: N_17  and  C_18
REMARK    7  A    between atoms: C_18  and  C_19
REMARK                            x       y       z     vdW  Elec       q    Type
REMARK                         _______ _______ _______ _____ _____    ______ ____
ROOT
ATOM      1  C   UNL     1       3.288   4.692  17.447  0.00  0.00    +0.000 C 
ATOM      2  C   UNL     1       4.604   4.363  16.674  0.00  0.00    +0.000 C 
ATOM      3  C   UNL     1       4.800   5.177  15.381  0.00  0.00    +0.000 C 
ATOM      4  C   UNL     1       6.161   4.867  14.753  0.00  0.00    +0.000 C 
ATOM      5  C   UNL     1       7.317   5.023  15.755  0.00  0.00    +0.000 C 
ATOM      6  N   UNL     1       7.079   4.241  16.956  0.00  0.00    +0.000 NA
ATOM      7  C   UNL     1       8.184   4.263  17.919  0.00  0.00    +0.000 C 
ATOM      8  C   UNL     1       8.183   5.397  18.960  0.00  0.00    +0.000 C 
ATOM      9  C   UNL     1       6.802   5.854  19.441  0.00  0.00    +0.000 C 
ATOM     10  C   UNL     1       5.801   5.936  18.285  0.00  0.00    +0.000 C 
ATOM     11  C   UNL     1       4.404   6.420  18.764  0.00  0.00    +0.000 C 
ATOM     12  N   UNL     1       3.315   6.136  17.814  0.00  0.00    +0.000 NA
ATOM     13  C   UNL     1       5.798   4.549  17.615  0.00  0.00    +0.000 C 
ENDROOT
BRANCH   1  14
ATOM     14  C   UNL     1       3.103   3.652  18.619  0.00  0.00    +0.000 C 
BRANCH  14  15
ATOM     15  C   UNL     1       1.784   2.887  18.805  0.00  0.00    +0.000 C 
BRANCH  15  16
ATOM     16  C   UNL     1       1.134   3.061  20.176  0.00  0.00    +0.000 C 
BRANCH  16  17
ATOM     17  C   UNL     1       2.043   3.791  21.161  0.00  0.00    +0.000 C 
BRANCH  17  18
ATOM     18  O   UNL     1       2.528   2.872  22.141  0.00  0.00    +0.000 OA
ATOM     19  H   UNL     1       1.924   2.106  22.123  0.00  0.00    +0.000 HD
ENDBRANCH  17  18
ENDBRANCH  16  17
ENDBRANCH  15  16
ENDBRANCH  14  15
ENDBRANCH   1  14
BRANCH  12  20
ATOM     20  C   UNL     1       1.988   6.559  18.301  0.00  0.00    +0.000 C 
BRANCH  20  21
ATOM     21  C   UNL     1       1.742   7.967  18.782  0.00  0.00    +0.000 A 
ATOM     22  C   UNL     1       1.696   9.086  17.959  0.00  0.00    +0.000 A 
ATOM     23  C   UNL     1       1.346  10.303  18.526  0.00  0.00    +0.000 A 
ATOM     24  N   UNL     1       1.032  10.478  19.831  0.00  0.00    +0.000 NA
ATOM     25  C   UNL     1       1.064   9.378  20.608  0.00  0.00    +0.000 A 
ATOM     26  C   UNL     1       1.411   8.126  20.139  0.00  0.00    +0.000 A 
ENDBRANCH  20  21
ENDBRANCH  12  20
TORSDOF 7
ENDMDL
MODEL 8
REMARK VINA RESULT:      -6.3      3.068      6.050
REMARK  Name = 
REMARK  7 active torsions:
REMARK  status: ('A' for Active; 'I' for Inactive)
REMARK    1  A    between atoms: O_1  and  C_2
REMARK    2  A    between atoms: C_2  and  C_3
REMARK    3  A    between atoms: C_3  and  C_4
REMARK    4  A    between atoms: C_4  and  C_5
REMARK    5  A    between atoms: C_5  and  C_6
REMARK    6  A    between atoms: N_17  and  C_18
REMARK    7  A    between atoms: C_18  and  C_19
REMARK                            x       y       z     vdW  Elec       q    Type
REMARK                         _______ _______ _______ _____ _____    ______ ____
ROOT
ATOM      1  C   UNL     1       3.629   6.297  19.502  0.00  0.00    +0.000 C 
ATOM      2  C   UNL     1       3.432   4.919  20.209  0.00  0.00    +0.000 C 
ATOM      3  C   UNL     1       2.230   4.865  21.171  0.00  0.00    +0.000 C 
ATOM      4  C   UNL     1       2.053   3.452  21.731  0.00  0.00    +0.000 C 
ATOM      5  C   UNL     1       1.995   2.387  20.623  0.00  0.00    +0.000 C 
ATOM      6  N   UNL     1       3.147   2.485  19.741  0.00  0.00    +0.000 NA
ATOM      7  C   UNL     1       3.213   1.440  18.716  0.00  0.00    +0.000 C 
ATOM      8  C   UNL     1       2.488   1.717  17.386  0.00  0.00    +0.000 C 
ATOM      9  C   UNL     1       2.487   3.178  16.924  0.00  0.00    +0.000 C 
ATOM     10  C   UNL     1       2.244   4.138  18.092  0.00  0.00    +0.000 C 
ATOM     11  C   UNL     1       2.220   5.620  17.625  0.00  0.00    +0.000 C 
ATOM     12  N   UNL     1       2.398   6.594  18.716  0.00  0.00    +0.000 NA
ATOM     13  C   UNL     1       3.321   3.821  19.146  0.00  0.00    +0.000 C 
ENDROOT
BRANCH   1  14
ATOM     14  C   UNL     1       5.000   6.286  18.722  0.00  0.00    +0.000 C 
BRANCH  14  15
ATOM     15  C   UNL     1       6.247   5.611  19.310  0.00  0.00    +0.000 C 
BRANCH  15  16
ATOM     16  C   UNL     1       7.534   5.851  18.522  0.00  0.00    +0.000 C 
BRANCH  16  17
ATOM     17  C   UNL     1       7.414   7.028  17.559  0.00  0.00    +0.000 C 
BRANCH  17  18
ATOM     18  O   UNL     1       7.711   6.595  16.230  0.00  0.00    +0.000 OA
ATOM     19  H   UNL     1       8.681   6.503  16.181  0.00  0.00    +0.000 HD
ENDBRANCH  17  18
ENDBRANCH  16  17
ENDBRANCH  15  16
ENDBRANCH  14  15
ENDBRANCH   1  14
BRANCH  12  20
ATOM     20  C   UNL     1       2.421   7.995  18.253  0.00  0.00    +0.000 C 
BRANCH  20  21
ATOM     21  C   UNL     1       1.625   9.065  18.957  0.00  0.00    +0.000 A 
ATOM     22  C   UNL     1       1.091   8.941  20.234  0.00  0.00    +0.000 A 
ATOM     23  C   UNL     1       0.480  10.051  20.800  0.00  0.00    +0.000 A 
ATOM     24  N   UNL     1       0.376  11.259  20.197  0.00  0.00    +0.000 NA
ATOM     25  C   UNL     1       0.917  11.364  18.968  0.00  0.00    +0.000 A 
ATOM     26  C   UNL     1       1.535  10.314  18.318  0.00  0.00    +0.000 A 
ENDBRANCH  20  21
ENDBRANCH  12  20
TORSDOF 7
ENDMDL
MODEL 9
REMARK VINA RESULT:      -6.2      1.065      1.122
REMARK  Name = 
REMARK  7 active torsions:
REMARK  status: ('A' for Active; 'I' for Inactive)
REMARK    1  A    between atoms: O_1  and  C_2
REMARK    2  A    between atoms: C_2  and  C_3
REMARK    3  A    between atoms: C_3  and  C_4
REMARK    4  A    between atoms: C_4  and  C_5
REMARK    5  A    between atoms: C_5  and  C_6
REMARK    6  A    between atoms: N_17  and  C_18
REMARK    7  A    between atoms: C_18  and  C_19
REMARK                            x       y       z     vdW  Elec       q    Type
REMARK                         _______ _______ _______ _____ _____    ______ ____
ROOT
ATOM      1  C   UNL     1       5.303   5.134  17.225  0.00  0.00    +0.000 C 
ATOM      2  C   UNL     1       4.467   6.231  17.957  0.00  0.00    +0.000 C 
ATOM      3  C   UNL     1       3.719   7.192  17.014  0.00  0.00    +0.000 C 
ATOM      4  C   UNL     1       2.845   8.159  17.817  0.00  0.00    +0.000 C 
ATOM      5  C   UNL     1       1.920   7.429  18.804  0.00  0.00    +0.000 C 
ATOM      6  N   UNL     1       2.674   6.533  19.665  0.00  0.00    +0.000 NA
ATOM      7  C   UNL     1       1.872   5.873  20.699  0.00  0.00    +0.000 C 
ATOM      8  C   UNL     1       1.202   4.540  20.321  0.00  0.00    +0.000 C 
ATOM      9  C   UNL     1       1.988   3.655  19.348  0.00  0.00    +0.000 C 
ATOM     10  C   UNL     1       2.632   4.481  18.231  0.00  0.00    +0.000 C 
ATOM     11  C   UNL     1       3.413   3.585  17.228  0.00  0.00    +0.000 C 
ATOM     12  N   UNL     1       4.372   4.323  16.389  0.00  0.00    +0.000 NA
ATOM     13  C   UNL     1       3.490   5.555  18.925  0.00  0.00    +0.000 C 
ENDROOT
BRANCH   1  14
ATOM     14  C   UNL     1       6.181   4.360  18.284  0.00  0.00    +0.000 C 
BRANCH  14  15
ATOM     15  C   UNL     1       7.699   4.576  18.370  0.00  0.00    +0.000 C 
BRANCH  15  16
ATOM     16  C   UNL     1       8.121   6.005  18.709  0.00  0.00    +0.000 C 
BRANCH  16  17
ATOM     17  C   UNL     1       8.090   6.279  20.209  0.00  0.00    +0.000 C 
BRANCH  17  18
ATOM     18  O   UNL     1       8.443   5.093  20.923  0.00  0.00    +0.000 OA
ATOM     19  H   UNL     1       9.392   5.172  21.135  0.00  0.00    +0.000 HD
ENDBRANCH  17  18
ENDBRANCH  16  17
ENDBRANCH  15  16
ENDBRANCH  14  15
ENDBRANCH   1  14
BRANCH  12  20
ATOM     20  C   UNL     1       5.140   3.456  15.475  0.00  0.00    +0.000 C 
BRANCH  20  21
ATOM     21  C   UNL     1       5.983   4.036  14.368  0.00  0.00    +0.000 A 
ATOM     22  C   UNL     1       7.008   4.956  14.554  0.00  0.00    +0.000 A 
ATOM     23  C   UNL     1       7.775   5.315  13.455  0.00  0.00    +0.000 A 
ATOM     24  N   UNL     1       7.603   4.821  12.206  0.00  0.00    +0.000 NA
ATOM     25  C   UNL     1       6.617   3.917  12.050  0.00  0.00    +0.000 A 
ATOM     26  C   UNL     1       5.794   3.504  13.080  0.00  0.00    +0.000 A 
ENDBRANCH  20  21
ENDBRANCH  12  20
TORSDOF 7
ENDMDL
