MODEL 1
REMARK VINA RESULT:      -8.6      0.000      0.000
REMARK  Name = 
REMARK  6 active torsions:
REMARK  status: ('A' for Active; 'I' for Inactive)
REMARK    1  A    between atoms: C_1  and  O_2
REMARK    2  A    between atoms: O_2  and  C_3
REMARK    3  A    between atoms: C_8  and  C_9
REMARK    4  A    between atoms: C_17  and  O_18
REMARK    5  A    between atoms: O_18  and  C_19
REMARK    6  A    between atoms: C_19  and  C_20
REMARK                            x       y       z     vdW  Elec       q    Type
REMARK                         _______ _______ _______ _____ _____    ______ ____
ROOT
ATOM      1  C   UNL     1       0.043   9.745  21.736  0.00  0.00    +0.000 A 
ATOM      2  C   UNL     1      -0.075  10.654  20.702  0.00  0.00    +0.000 A 
ATOM      3  C   UNL     1       0.558  10.408  19.481  0.00  0.00    +0.000 A 
ATOM      4  C   UNL     1       1.301   9.220  19.306  0.00  0.00    +0.000 A 
ATOM      5  S   UNL     1       2.128   8.756  17.881  0.00  0.00    +0.000 S 
ATOM      6  C   UNL     1       2.698   7.298  18.568  0.00  0.00    +0.000 A 
ATOM      7  C   UNL     1       2.268   7.160  19.881  0.00  0.00    +0.000 A 
ATOM      8  C   UNL     1       1.451   8.277  20.329  0.00  0.00    +0.000 A 
ATOM      9  C   UNL     1       0.822   8.595  21.564  0.00  0.00    +0.000 A 
ENDROOT
BRANCH   6  10
ATOM     10  C   UNL     1       3.507   6.417  17.716  0.00  0.00    +0.000 C 
ATOM     11  O   UNL     1       3.113   5.313  17.346  0.00  0.00    +0.000 OA
ATOM     12  N   UNL     1       4.758   6.907  17.413  0.00  0.00    +0.000 N 
ATOM     13  C   UNL     1       5.699   6.228  16.699  0.00  0.00    +0.000 A 
ATOM     14  N   UNL     1       5.502   5.044  16.040  0.00  0.00    +0.000 NA
ATOM     15  N   UNL     1       6.664   4.710  15.494  0.00  0.00    +0.000 NA
ATOM     16  N   UNL     1       7.496   5.687  15.863  0.00  0.00    +0.000 N 
ATOM     17  N   UNL     1       6.958   6.678  16.592  0.00  0.00    +0.000 NA
ATOM     18  H   UNL     1       5.053   7.808  17.763  0.00  0.00    +0.000 HD
ATOM     19  H   UNL     1       8.481   5.667  15.615  0.00  0.00    +0.000 HD
ENDBRANCH   6  10
BRANCH   1  21
ATOM     20  C   UNL     1      -1.317  11.028  23.183  0.00  0.00    +0.000 C 
ATOM     21  O   UNL     1      -0.518   9.869  22.977  0.00  0.00    +0.000 OA
ENDBRANCH   1  21
BRANCH   7  22
ATOM     22  O   UNL     1       2.705   6.078  20.585  0.00  0.00    +0.000 OA
BRANCH  22  23
ATOM     23  C   UNL     1       1.731   5.087  20.887  0.00  0.00    +0.000 C 
BRANCH  23  24
ATOM     24  C   UNL     1       2.062   3.864  20.071  0.00  0.00    +0.000 A 
ATOM     25  C   UNL     1       3.378   3.374  20.060  0.00  0.00    +0.000 A 
ATOM     26  C   UNL     1       3.710   2.247  19.310  0.00  0.00    +0.000 A 
ATOM     27  C   UNL     1       2.731   1.606  18.556  0.00  0.00    +0.000 A 
ATOM     28  C   UNL     1       1.423   2.094  18.548  0.00  0.00    +0.000 A 
ATOM     29  C   UNL     1       1.088   3.221  19.300  0.00  0.00    +0.000 A 
ENDBRANCH  23  24
ENDBRANCH  22  23
ENDBRANCH   7  22
TORSDOF 5
ENDMDL
MODEL 2
REMARK VINA RESULT:      -8.4      0.481      1.033
REMARK  Name = 
REMARK  6 active torsions:
REMARK  status: ('A' for Active; 'I' for Inactive)
REMARK    1  A    between atoms: C_1  and  O_2
REMARK    2  A    between atoms: O_2  and  C_3
REMARK    3  A    between atoms: C_8  and  C_9
REMARK    4  A    between atoms: C_17  and  O_18
REMARK    5  A    between atoms: O_18  and  C_19
REMARK    6  A    between atoms: C_19  and  C_20
REMARK                            x       y       z     vdW  Elec       q    Type
REMARK                         _______ _______ _______ _____ _____    ______ ____
ROOT
ATOM      1  C   UNL     1       0.575   9.731  21.821  0.00  0.00    +0.000 A 
ATOM      2  C   UNL     1       0.361  10.603  20.770  0.00  0.00    +0.000 A 
ATOM      3  C   UNL     1       0.847  10.294  19.498  0.00  0.00    +0.000 A 
ATOM      4  C   UNL     1       1.538   9.081  19.288  0.00  0.00    +0.000 A 
ATOM      5  S   UNL     1       2.187   8.541  17.800  0.00  0.00    +0.000 S 
ATOM      6  C   UNL     1       2.799   7.096  18.476  0.00  0.00    +0.000 A 
ATOM      7  C   UNL     1       2.517   7.019  19.833  0.00  0.00    +0.000 A 
ATOM      8  C   UNL     1       1.782   8.173  20.325  0.00  0.00    +0.000 A 
ATOM      9  C   UNL     1       1.304   8.555  21.609  0.00  0.00    +0.000 A 
ENDROOT
BRANCH   6  10
ATOM     10  C   UNL     1       3.486   6.162  17.575  0.00  0.00    +0.000 C 
ATOM     11  O   UNL     1       3.003   5.078  17.255  0.00  0.00    +0.000 OA
ATOM     12  N   UNL     1       4.733   6.578  17.165  0.00  0.00    +0.000 N 
ATOM     13  C   UNL     1       5.574   5.839  16.387  0.00  0.00    +0.000 A 
ATOM     14  N   UNL     1       5.260   4.662  15.764  0.00  0.00    +0.000 NA
ATOM     15  N   UNL     1       6.353   4.257  15.132  0.00  0.00    +0.000 NA
ATOM     16  N   UNL     1       7.264   5.189  15.417  0.00  0.00    +0.000 N 
ATOM     17  N   UNL     1       6.843   6.217  16.173  0.00  0.00    +0.000 NA
ATOM     18  H   UNL     1       5.105   7.464  17.476  0.00  0.00    +0.000 HD
ATOM     19  H   UNL     1       8.223   5.112  15.090  0.00  0.00    +0.000 HD
ENDBRANCH   6  10
BRANCH   1  21
ATOM     20  C   UNL     1      -1.088  10.577  23.273  0.00  0.00    +0.000 C 
ATOM     21  O   UNL     1       0.162   9.916  23.111  0.00  0.00    +0.000 OA
ENDBRANCH   1  21
BRANCH   7  22
ATOM     22  O   UNL     1       3.007   5.953  20.527  0.00  0.00    +0.000 OA
BRANCH  22  23
ATOM     23  C   UNL     1       2.045   5.048  21.054  0.00  0.00    +0.000 C 
BRANCH  23  24
ATOM     24  C   UNL     1       2.032   3.832  20.164  0.00  0.00    +0.000 A 
ATOM     25  C   UNL     1       0.829   3.426  19.563  0.00  0.00    +0.000 A 
ATOM     26  C   UNL     1       0.791   2.303  18.740  0.00  0.00    +0.000 A 
ATOM     27  C   UNL     1       1.953   1.569  18.517  0.00  0.00    +0.000 A 
ATOM     28  C   UNL     1       3.151   1.955  19.120  0.00  0.00    +0.000 A 
ATOM     29  C   UNL     1       3.192   3.082  19.944  0.00  0.00    +0.000 A 
ENDBRANCH  23  24
ENDBRANCH  22  23
ENDBRANCH   7  22
TORSDOF 5
ENDMDL
MODEL 3
REMARK VINA RESULT:      -8.4      1.186      1.445
REMARK  Name = 
REMARK  6 active torsions:
REMARK  status: ('A' for Active; 'I' for Inactive)
REMARK    1  A    between atoms: C_1  and  O_2
REMARK    2  A    between atoms: O_2  and  C_3
REMARK    3  A    between atoms: C_8  and  C_9
REMARK    4  A    between atoms: C_17  and  O_18
REMARK    5  A    between atoms: O_18  and  C_19
REMARK    6  A    between atoms: C_19  and  C_20
REMARK                            x       y       z     vdW  Elec       q    Type
REMARK                         _______ _______ _______ _____ _____    ______ ____
ROOT
ATOM      1  C   UNL     1      -0.034   9.036  21.296  0.00  0.00    +0.000 A 
ATOM      2  C   UNL     1      -0.242   9.994  20.322  0.00  0.00    +0.000 A 
ATOM      3  C   UNL     1       0.528   9.983  19.157  0.00  0.00    +0.000 A 
ATOM      4  C   UNL     1       1.504   8.979  18.974  0.00  0.00    +0.000 A 
ATOM      5  S   UNL     1       2.523   8.809  17.609  0.00  0.00    +0.000 S 
ATOM      6  C   UNL     1       3.312   7.433  18.245  0.00  0.00    +0.000 A 
ATOM      7  C   UNL     1       2.809   7.099  19.495  0.00  0.00    +0.000 A 
ATOM      8  C   UNL     1       1.752   7.995  19.937  0.00  0.00    +0.000 A 
ATOM      9  C   UNL     1       0.971   8.077  21.123  0.00  0.00    +0.000 A 
ENDROOT
BRANCH   6  10
ATOM     10  C   UNL     1       4.349   6.802  17.418  0.00  0.00    +0.000 C 
ATOM     11  O   UNL     1       4.305   6.805  16.190  0.00  0.00    +0.000 OA
ATOM     12  N   UNL     1       5.339   6.165  18.132  0.00  0.00    +0.000 N 
ATOM     13  C   UNL     1       6.358   5.455  17.571  0.00  0.00    +0.000 A 
ATOM     14  N   UNL     1       6.652   5.398  16.235  0.00  0.00    +0.000 NA
ATOM     15  N   UNL     1       7.693   4.587  16.105  0.00  0.00    +0.000 NA
ATOM     16  N   UNL     1       7.959   4.187  17.350  0.00  0.00    +0.000 N 
ATOM     17  N   UNL     1       7.184   4.707  18.316  0.00  0.00    +0.000 NA
ATOM     18  H   UNL     1       5.320   6.162  19.143  0.00  0.00    +0.000 HD
ATOM     19  H   UNL     1       8.696   3.516  17.546  0.00  0.00    +0.000 HD
ENDBRANCH   6  10
BRANCH   1  21
ATOM     20  C   UNL     1      -0.843  10.149  23.219  0.00  0.00    +0.000 C 
ATOM     21  O   UNL     1      -0.710   8.940  22.481  0.00  0.00    +0.000 OA
ENDBRANCH   1  21
BRANCH   7  22
ATOM     22  O   UNL     1       3.391   6.063  20.161  0.00  0.00    +0.000 OA
BRANCH  22  23
ATOM     23  C   UNL     1       2.535   4.989  20.529  0.00  0.00    +0.000 C 
BRANCH  23  24
ATOM     24  C   UNL     1       2.803   3.851  19.579  0.00  0.00    +0.000 A 
ATOM     25  C   UNL     1       2.174   3.834  18.323  0.00  0.00    +0.000 A 
ATOM     26  C   UNL     1       2.402   2.790  17.429  0.00  0.00    +0.000 A 
ATOM     27  C   UNL     1       3.254   1.748  17.785  0.00  0.00    +0.000 A 
ATOM     28  C   UNL     1       3.873   1.747  19.037  0.00  0.00    +0.000 A 
ATOM     29  C   UNL     1       3.648   2.793  19.933  0.00  0.00    +0.000 A 
ENDBRANCH  23  24
ENDBRANCH  22  23
ENDBRANCH   7  22
TORSDOF 5
ENDMDL
MODEL 4
REMARK VINA RESULT:      -7.9      1.039      1.048
REMARK  Name = 
REMARK  6 active torsions:
REMARK  status: ('A' for Active; 'I' for Inactive)
REMARK    1  A    between atoms: C_1  and  O_2
REMARK    2  A    between atoms: O_2  and  C_3
REMARK    3  A    between atoms: C_8  and  C_9
REMARK    4  A    between atoms: C_17  and  O_18
REMARK    5  A    between atoms: O_18  and  C_19
REMARK    6  A    between atoms: C_19  and  C_20
REMARK                            x       y       z     vdW  Elec       q    Type
REMARK                         _______ _______ _______ _____ _____    ______ ____
ROOT
ATOM      1  C   UNL     1      -0.089   9.717  21.132  0.00  0.00    +0.000 A 
ATOM      2  C   UNL     1      -0.065  10.574  20.048  0.00  0.00    +0.000 A 
ATOM      3  C   UNL     1       0.738  10.279  18.944  0.00  0.00    +0.000 A 
ATOM      4  C   UNL     1       1.508   9.095  18.936  0.00  0.00    +0.000 A 
ATOM      5  S   UNL     1       2.533   8.575  17.668  0.00  0.00    +0.000 S 
ATOM      6  C   UNL     1       3.012   7.161  18.501  0.00  0.00    +0.000 A 
ATOM      7  C   UNL     1       2.399   7.080  19.744  0.00  0.00    +0.000 A 
ATOM      8  C   UNL     1       1.518   8.205  20.015  0.00  0.00    +0.000 A 
ATOM      9  C   UNL     1       0.716   8.573  21.131  0.00  0.00    +0.000 A 
ENDROOT
BRANCH   6  10
ATOM     10  C   UNL     1       3.941   6.252  17.818  0.00  0.00    +0.000 C 
ATOM     11  O   UNL     1       3.602   5.558  16.862  0.00  0.00    +0.000 OA
ATOM     12  N   UNL     1       5.203   6.206  18.369  0.00  0.00    +0.000 N 
ATOM     13  C   UNL     1       6.199   5.381  17.941  0.00  0.00    +0.000 A 
ATOM     14  N   UNL     1       6.166   4.601  16.817  0.00  0.00    +0.000 NA
ATOM     15  N   UNL     1       7.313   3.938  16.774  0.00  0.00    +0.000 NA
ATOM     16  N   UNL     1       7.965   4.333  17.870  0.00  0.00    +0.000 N 
ATOM     17  N   UNL     1       7.343   5.248  18.630  0.00  0.00    +0.000 NA
ATOM     18  H   UNL     1       5.430   6.773  19.174  0.00  0.00    +0.000 HD
ATOM     19  H   UNL     1       8.872   3.947  18.116  0.00  0.00    +0.000 HD
ENDBRANCH   6  10
BRANCH   1  21
ATOM     20  C   UNL     1      -0.176   9.529  23.488  0.00  0.00    +0.000 C 
ATOM     21  O   UNL     1      -0.822   9.892  22.273  0.00  0.00    +0.000 OA
ENDBRANCH   1  21
BRANCH   7  22
ATOM     22  O   UNL     1       2.740   6.040  20.556  0.00  0.00    +0.000 OA
BRANCH  22  23
ATOM     23  C   UNL     1       1.797   4.979  20.652  0.00  0.00    +0.000 C 
BRANCH  23  24
ATOM     24  C   UNL     1       2.301   3.847  19.796  0.00  0.00    +0.000 A 
ATOM     25  C   UNL     1       3.564   3.290  20.057  0.00  0.00    +0.000 A 
ATOM     26  C   UNL     1       4.054   2.245  19.276  0.00  0.00    +0.000 A 
ATOM     27  C   UNL     1       3.290   1.754  18.220  0.00  0.00    +0.000 A 
ATOM     28  C   UNL     1       2.040   2.309  17.943  0.00  0.00    +0.000 A 
ATOM     29  C   UNL     1       1.546   3.355  18.726  0.00  0.00    +0.000 A 
ENDBRANCH  23  24
ENDBRANCH  22  23
ENDBRANCH   7  22
TORSDOF 5
ENDMDL
MODEL 5
REMARK VINA RESULT:      -7.7      3.129      7.067
REMARK  Name = 
REMARK  6 active torsions:
REMARK  status: ('A' for Active; 'I' for Inactive)
REMARK    1  A    between atoms: C_1  and  O_2
REMARK    2  A    between atoms: O_2  and  C_3
REMARK    3  A    between atoms: C_8  and  C_9
REMARK    4  A    between atoms: C_17  and  O_18
REMARK    5  A    between atoms: O_18  and  C_19
REMARK    6  A    between atoms: C_19  and  C_20
REMARK                            x       y       z     vdW  Elec       q    Type
REMARK                         _______ _______ _______ _____ _____    ______ ____
ROOT
ATOM      1  C   UNL     1       6.253   3.950  14.385  0.00  0.00    +0.000 A 
ATOM      2  C   UNL     1       7.226   4.884  14.683  0.00  0.00    +0.000 A 
ATOM      3  C   UNL     1       7.027   5.791  15.727  0.00  0.00    +0.000 A 
ATOM      4  C   UNL     1       5.837   5.734  16.485  0.00  0.00    +0.000 A 
ATOM      5  S   UNL     1       5.435   6.754  17.799  0.00  0.00    +0.000 S 
ATOM      6  C   UNL     1       3.920   6.002  18.049  0.00  0.00    +0.000 A 
ATOM      7  C   UNL     1       3.712   4.977  17.136  0.00  0.00    +0.000 A 
ATOM      8  C   UNL     1       4.823   4.808  16.212  0.00  0.00    +0.000 A 
ATOM      9  C   UNL     1       5.057   3.937  15.113  0.00  0.00    +0.000 A 
ENDROOT
BRANCH   6  10
ATOM     10  C   UNL     1       3.091   6.496  19.156  0.00  0.00    +0.000 C 
ATOM     11  O   UNL     1       2.918   5.853  20.189  0.00  0.00    +0.000 OA
ATOM     12  N   UNL     1       2.486   7.710  18.918  0.00  0.00    +0.000 N 
ATOM     13  C   UNL     1       1.619   8.319  19.774  0.00  0.00    +0.000 A 
ATOM     14  N   UNL     1       1.343   7.917  21.054  0.00  0.00    +0.000 NA
ATOM     15  N   UNL     1       0.438   8.758  21.534  0.00  0.00    +0.000 NA
ATOM     16  N   UNL     1       0.204   9.603  20.528  0.00  0.00    +0.000 N 
ATOM     17  N   UNL     1       0.922   9.406  19.411  0.00  0.00    +0.000 NA
ATOM     18  H   UNL     1       2.632   8.191  18.041  0.00  0.00    +0.000 HD
ATOM     19  H   UNL     1      -0.490  10.341  20.605  0.00  0.00    +0.000 HD
ENDBRANCH   6  10
BRANCH   1  21
ATOM     20  C   UNL     1       5.683   3.368  12.166  0.00  0.00    +0.000 C 
ATOM     21  O   UNL     1       6.319   3.016  13.389  0.00  0.00    +0.000 OA
ENDBRANCH   1  21
BRANCH   7  22
ATOM     22  O   UNL     1       2.513   4.330  17.166  0.00  0.00    +0.000 OA
BRANCH  22  23
ATOM     23  C   UNL     1       2.552   2.944  17.484  0.00  0.00    +0.000 C 
BRANCH  23  24
ATOM     24  C   UNL     1       2.349   2.816  18.971  0.00  0.00    +0.000 A 
ATOM     25  C   UNL     1       1.079   3.058  19.520  0.00  0.00    +0.000 A 
ATOM     26  C   UNL     1       0.867   2.950  20.894  0.00  0.00    +0.000 A 
ATOM     27  C   UNL     1       1.926   2.610  21.732  0.00  0.00    +0.000 A 
ATOM     28  C   UNL     1       3.196   2.382  21.198  0.00  0.00    +0.000 A 
ATOM     29  C   UNL     1       3.409   2.487  19.822  0.00  0.00    +0.000 A 
ENDBRANCH  23  24
ENDBRANCH  22  23
ENDBRANCH   7  22
TORSDOF 5
ENDMDL
MODEL 6
REMARK VINA RESULT:      -7.4      1.329      1.585
REMARK  Name = 
REMARK  6 active torsions:
REMARK  status: ('A' for Active; 'I' for Inactive)
REMARK    1  A    between atoms: C_1  and  O_2
REMARK    2  A    between atoms: O_2  and  C_3
REMARK    3  A    between atoms: C_8  and  C_9
REMARK    4  A    between atoms: C_17  and  O_18
REMARK    5  A    between atoms: O_18  and  C_19
REMARK    6  A    between atoms: C_19  and  C_20
REMARK                            x       y       z     vdW  Elec       q    Type
REMARK                         _______ _______ _______ _____ _____    ______ ____
ROOT
ATOM      1  C   UNL     1      -0.426  10.392  21.703  0.00  0.00    +0.000 A 
ATOM      2  C   UNL     1      -0.469  11.381  20.739  0.00  0.00    +0.000 A 
ATOM      3  C   UNL     1       0.241  11.223  19.546  0.00  0.00    +0.000 A 
ATOM      4  C   UNL     1       0.983  10.042  19.326  0.00  0.00    +0.000 A 
ATOM      5  S   UNL     1       1.896   9.679  17.924  0.00  0.00    +0.000 S 
ATOM      6  C   UNL     1       2.407   8.164  18.529  0.00  0.00    +0.000 A 
ATOM      7  C   UNL     1       1.891   7.930  19.796  0.00  0.00    +0.000 A 
ATOM      8  C   UNL     1       1.057   9.019  20.278  0.00  0.00    +0.000 A 
ATOM      9  C   UNL     1       0.352   9.249  21.491  0.00  0.00    +0.000 A 
ENDROOT
BRANCH   6  10
ATOM     10  C   UNL     1       3.262   7.341  17.663  0.00  0.00    +0.000 C 
ATOM     11  O   UNL     1       3.675   7.737  16.576  0.00  0.00    +0.000 OA
ATOM     12  N   UNL     1       3.516   6.077  18.147  0.00  0.00    +0.000 N 
ATOM     13  C   UNL     1       4.223   5.124  17.477  0.00  0.00    +0.000 A 
ATOM     14  N   UNL     1       4.922   5.315  16.316  0.00  0.00    +0.000 NA
ATOM     15  N   UNL     1       5.445   4.142  15.984  0.00  0.00    +0.000 NA
ATOM     16  N   UNL     1       5.024   3.311  16.940  0.00  0.00    +0.000 N 
ATOM     17  N   UNL     1       4.281   3.858  17.916  0.00  0.00    +0.000 NA
ATOM     18  H   UNL     1       3.131   5.782  19.034  0.00  0.00    +0.000 HD
ATOM     19  H   UNL     1       5.246   2.319  16.916  0.00  0.00    +0.000 HD
ENDBRANCH   6  10
BRANCH   1  21
ATOM     20  C   UNL     1      -1.752  11.635  23.216  0.00  0.00    +0.000 C 
ATOM     21  O   UNL     1      -1.065  10.426  22.912  0.00  0.00    +0.000 OA
ENDBRANCH   1  21
BRANCH   7  22
ATOM     22  O   UNL     1       2.272   6.790  20.438  0.00  0.00    +0.000 OA
BRANCH  22  23
ATOM     23  C   UNL     1       1.226   5.990  20.976  0.00  0.00    +0.000 C 
BRANCH  23  24
ATOM     24  C   UNL     1       1.518   4.558  20.609  0.00  0.00    +0.000 A 
ATOM     25  C   UNL     1       2.481   3.839  21.336  0.00  0.00    +0.000 A 
ATOM     26  C   UNL     1       2.772   2.515  21.013  0.00  0.00    +0.000 A 
ATOM     27  C   UNL     1       2.110   1.900  19.953  0.00  0.00    +0.000 A 
ATOM     28  C   UNL     1       1.162   2.611  19.214  0.00  0.00    +0.000 A 
ATOM     29  C   UNL     1       0.868   3.937  19.537  0.00  0.00    +0.000 A 
ENDBRANCH  23  24
ENDBRANCH  22  23
ENDBRANCH   7  22
TORSDOF 5
ENDMDL
MODEL 7
REMARK VINA RESULT:      -7.4      3.817      6.767
REMARK  Name = 
REMARK  6 active torsions:
REMARK  status: ('A' for Active; 'I' for Inactive)
REMARK    1  A    between atoms: C_1  and  O_2
REMARK    2  A    between atoms: O_2  and  C_3
REMARK    3  A    between atoms: C_8  and  C_9
REMARK    4  A    between atoms: C_17  and  O_18
REMARK    5  A    between atoms: O_18  and  C_19
REMARK    6  A    between atoms: C_19  and  C_20
REMARK                            x       y       z     vdW  Elec       q    Type
REMARK                         _______ _______ _______ _____ _____    ______ ____
ROOT
ATOM      1  C   UNL     1       3.395   2.961  19.842  0.00  0.00    +0.000 A 
ATOM      2  C   UNL     1       2.675   3.027  21.019  0.00  0.00    +0.000 A 
ATOM      3  C   UNL     1       2.037   4.216  21.381  0.00  0.00    +0.000 A 
ATOM      4  C   UNL     1       2.117   5.339  20.530  0.00  0.00    +0.000 A 
ATOM      5  S   UNL     1       1.391   6.863  20.810  0.00  0.00    +0.000 S 
ATOM      6  C   UNL     1       2.002   7.533  19.361  0.00  0.00    +0.000 A 
ATOM      7  C   UNL     1       2.762   6.605  18.662  0.00  0.00    +0.000 A 
ATOM      8  C   UNL     1       2.841   5.317  19.332  0.00  0.00    +0.000 A 
ATOM      9  C   UNL     1       3.506   4.097  19.032  0.00  0.00    +0.000 A 
ENDROOT
BRANCH   6  10
ATOM     10  C   UNL     1       1.642   8.923  19.050  0.00  0.00    +0.000 C 
ATOM     11  O   UNL     1       1.730   9.389  17.917  0.00  0.00    +0.000 OA
ATOM     12  N   UNL     1       1.252   9.668  20.140  0.00  0.00    +0.000 N 
ATOM     13  C   UNL     1       0.944  10.995  20.095  0.00  0.00    +0.000 A 
ATOM     14  N   UNL     1       0.814  11.748  18.959  0.00  0.00    +0.000 NA
ATOM     15  N   UNL     1       0.534  12.985  19.346  0.00  0.00    +0.000 NA
ATOM     16  N   UNL     1       0.527  12.920  20.680  0.00  0.00    +0.000 N 
ATOM     17  N   UNL     1       0.749  11.708  21.214  0.00  0.00    +0.000 NA
ATOM     18  H   UNL     1       1.222   9.252  21.060  0.00  0.00    +0.000 HD
ATOM     19  H   UNL     1       0.376  13.747  21.250  0.00  0.00    +0.000 HD
ENDBRANCH   6  10
BRANCH   1  21
ATOM     20  C   UNL     1       3.697   1.411  18.082  0.00  0.00    +0.000 C 
ATOM     21  O   UNL     1       4.070   1.866  19.378  0.00  0.00    +0.000 OA
ENDBRANCH   1  21
BRANCH   7  22
ATOM     22  O   UNL     1       3.377   7.018  17.517  0.00  0.00    +0.000 OA
BRANCH  22  23
ATOM     23  C   UNL     1       4.760   7.328  17.622  0.00  0.00    +0.000 C 
BRANCH  23  24
ATOM     24  C   UNL     1       5.521   6.264  16.874  0.00  0.00    +0.000 A 
ATOM     25  C   UNL     1       6.563   5.576  17.516  0.00  0.00    +0.000 A 
ATOM     26  C   UNL     1       7.284   4.591  16.844  0.00  0.00    +0.000 A 
ATOM     27  C   UNL     1       6.975   4.291  15.520  0.00  0.00    +0.000 A 
ATOM     28  C   UNL     1       5.950   4.979  14.867  0.00  0.00    +0.000 A 
ATOM     29  C   UNL     1       5.226   5.965  15.539  0.00  0.00    +0.000 A 
ENDBRANCH  23  24
ENDBRANCH  22  23
ENDBRANCH   7  22
TORSDOF 5
ENDMDL
MODEL 8
REMARK VINA RESULT:      -7.3      2.624      4.305
REMARK  Name = 
REMARK  6 active torsions:
REMARK  status: ('A' for Active; 'I' for Inactive)
REMARK    1  A    between atoms: C_1  and  O_2
REMARK    2  A    between atoms: O_2  and  C_3
REMARK    3  A    between atoms: C_8  and  C_9
REMARK    4  A    between atoms: C_17  and  O_18
REMARK    5  A    between atoms: O_18  and  C_19
REMARK    6  A    between atoms: C_19  and  C_20
REMARK                            x       y       z     vdW  Elec       q    Type
REMARK                         _______ _______ _______ _____ _____    ______ ____
ROOT
ATOM      1  C   UNL     1       1.414  11.362  18.728  0.00  0.00    +0.000 A 
ATOM      2  C   UNL     1       0.730  11.331  19.928  0.00  0.00    +0.000 A 
ATOM      3  C   UNL     1       0.641  10.137  20.649  0.00  0.00    +0.000 A 
ATOM      4  C   UNL     1       1.268   8.973  20.153  0.00  0.00    +0.000 A 
ATOM      5  S   UNL     1       1.270   7.437  20.908  0.00  0.00    +0.000 S 
ATOM      6  C   UNL     1       2.192   6.715  19.662  0.00  0.00    +0.000 A 
ATOM      7  C   UNL     1       2.499   7.635  18.669  0.00  0.00    +0.000 A 
ATOM      8  C   UNL     1       1.964   8.960  18.939  0.00  0.00    +0.000 A 
ATOM      9  C   UNL     1       1.988  10.190  18.225  0.00  0.00    +0.000 A 
ENDROOT
BRANCH   6  10
ATOM     10  C   UNL     1       2.542   5.297  19.811  0.00  0.00    +0.000 C 
ATOM     11  O   UNL     1       2.577   4.737  20.905  0.00  0.00    +0.000 OA
ATOM     12  N   UNL     1       2.876   4.665  18.634  0.00  0.00    +0.000 N 
ATOM     13  C   UNL     1       3.301   3.373  18.547  0.00  0.00    +0.000 A 
ATOM     14  N   UNL     1       3.306   2.463  19.569  0.00  0.00    +0.000 NA
ATOM     15  N   UNL     1       3.813   1.339  19.081  0.00  0.00    +0.000 NA
ATOM     16  N   UNL     1       4.101   1.631  17.811  0.00  0.00    +0.000 N 
ATOM     17  N   UNL     1       3.786   2.870  17.402  0.00  0.00    +0.000 NA
ATOM     18  H   UNL     1       2.862   5.172  17.760  0.00  0.00    +0.000 HD
ATOM     19  H   UNL     1       4.547   0.953  17.199  0.00  0.00    +0.000 HD
ENDBRANCH   6  10
BRANCH   1  21
ATOM     20  C   UNL     1       2.362  13.511  18.457  0.00  0.00    +0.000 C 
ATOM     21  O   UNL     1       1.567  12.458  17.925  0.00  0.00    +0.000 OA
ENDBRANCH   1  21
BRANCH   7  22
ATOM     22  O   UNL     1       3.171   7.187  17.571  0.00  0.00    +0.000 OA
BRANCH  22  23
ATOM     23  C   UNL     1       4.522   7.613  17.442  0.00  0.00    +0.000 C 
BRANCH  23  24
ATOM     24  C   UNL     1       5.322   6.437  16.946  0.00  0.00    +0.000 A 
ATOM     25  C   UNL     1       6.240   5.811  17.805  0.00  0.00    +0.000 A 
ATOM     26  C   UNL     1       6.994   4.724  17.368  0.00  0.00    +0.000 A 
ATOM     27  C   UNL     1       6.846   4.259  16.064  0.00  0.00    +0.000 A 
ATOM     28  C   UNL     1       5.947   4.883  15.196  0.00  0.00    +0.000 A 
ATOM     29  C   UNL     1       5.188   5.971  15.633  0.00  0.00    +0.000 A 
ENDBRANCH  23  24
ENDBRANCH  22  23
ENDBRANCH   7  22
TORSDOF 5
ENDMDL
MODEL 9
REMARK VINA RESULT:      -7.3      2.568      4.282
REMARK  Name = 
REMARK  6 active torsions:
REMARK  status: ('A' for Active; 'I' for Inactive)
REMARK    1  A    between atoms: C_1  and  O_2
REMARK    2  A    between atoms: O_2  and  C_3
REMARK    3  A    between atoms: C_8  and  C_9
REMARK    4  A    between atoms: C_17  and  O_18
REMARK    5  A    between atoms: O_18  and  C_19
REMARK    6  A    between atoms: C_19  and  C_20
REMARK                            x       y       z     vdW  Elec       q    Type
REMARK                         _______ _______ _______ _____ _____    ______ ____
ROOT
ATOM      1  C   UNL     1       1.179  11.285  18.942  0.00  0.00    +0.000 A 
ATOM      2  C   UNL     1       0.549  11.224  20.170  0.00  0.00    +0.000 A 
ATOM      3  C   UNL     1       0.521  10.022  20.880  0.00  0.00    +0.000 A 
ATOM      4  C   UNL     1       1.155   8.879  20.346  0.00  0.00    +0.000 A 
ATOM      5  S   UNL     1       1.228   7.336  21.083  0.00  0.00    +0.000 S 
ATOM      6  C   UNL     1       2.114   6.651  19.792  0.00  0.00    +0.000 A 
ATOM      7  C   UNL     1       2.355   7.588  18.796  0.00  0.00    +0.000 A 
ATOM      8  C   UNL     1       1.799   8.896  19.104  0.00  0.00    +0.000 A 
ATOM      9  C   UNL     1       1.761  10.132  18.402  0.00  0.00    +0.000 A 
ENDROOT
BRANCH   6  10
ATOM     10  C   UNL     1       2.505   5.240  19.910  0.00  0.00    +0.000 C 
ATOM     11  O   UNL     1       2.594   4.669  20.995  0.00  0.00    +0.000 OA
ATOM     12  N   UNL     1       2.814   4.631  18.714  0.00  0.00    +0.000 N 
ATOM     13  C   UNL     1       3.268   3.352  18.596  0.00  0.00    +0.000 A 
ATOM     14  N   UNL     1       3.334   2.430  19.606  0.00  0.00    +0.000 NA
ATOM     15  N   UNL     1       3.852   1.326  19.085  0.00  0.00    +0.000 NA
ATOM     16  N   UNL     1       4.087   1.640  17.810  0.00  0.00    +0.000 N 
ATOM     17  N   UNL     1       3.725   2.876  17.428  0.00  0.00    +0.000 NA
ATOM     18  H   UNL     1       2.756   5.148  17.847  0.00  0.00    +0.000 HD
ATOM     19  H   UNL     1       4.528   0.982  17.173  0.00  0.00    +0.000 HD
ENDBRANCH   6  10
BRANCH   1  21
ATOM     20  C   UNL     1       0.438  13.488  18.507  0.00  0.00    +0.000 C 
ATOM     21  O   UNL     1       1.271  12.392  18.144  0.00  0.00    +0.000 OA
ENDBRANCH   1  21
BRANCH   7  22
ATOM     22  O   UNL     1       2.990   7.168  17.666  0.00  0.00    +0.000 OA
BRANCH  22  23
ATOM     23  C   UNL     1       4.286   7.706  17.434  0.00  0.00    +0.000 C 
BRANCH  23  24
ATOM     24  C   UNL     1       5.193   6.560  17.067  0.00  0.00    +0.000 A 
ATOM     25  C   UNL     1       5.172   6.053  15.758  0.00  0.00    +0.000 A 
ATOM     26  C   UNL     1       5.998   4.990  15.396  0.00  0.00    +0.000 A 
ATOM     27  C   UNL     1       6.845   4.418  16.342  0.00  0.00    +0.000 A 
ATOM     28  C   UNL     1       6.863   4.906  17.650  0.00  0.00    +0.000 A 
ATOM     29  C   UNL     1       6.037   5.972  18.014  0.00  0.00    +0.000 A 
ENDBRANCH  23  24
ENDBRANCH  22  23
ENDBRANCH   7  22
TORSDOF 5
ENDMDL
