MODEL 1
REMARK VINA RESULT:      -8.4      0.000      0.000
REMARK  Name = 
REMARK  4 active torsions:
REMARK  status: ('A' for Active; 'I' for Inactive)
REMARK    1  A    between atoms: C_2  and  C_3
REMARK    2  A    between atoms: C_3  and  C_4
REMARK    3  A    between atoms: N_16  and  C_17
REMARK    4  A    between atoms: C_17  and  C_18
REMARK                            x       y       z     vdW  Elec       q    Type
REMARK                         _______ _______ _______ _____ _____    ______ ____
ROOT
ATOM      1  C   UNL     1       5.336   5.930  18.118  0.00  0.00    +0.000 C 
ENDROOT
BRANCH   1   2
ATOM      2  C   UNL     1       3.836   5.659  18.197  0.00  0.00    +0.000 C 
ATOM      3  C   UNL     1       3.009   6.901  18.515  0.00  0.00    +0.000 A 
ATOM      4  C   UNL     1       2.883   8.069  17.785  0.00  0.00    +0.000 A 
ATOM      5  C   UNL     1       2.040   9.060  18.288  0.00  0.00    +0.000 A 
ATOM      6  C   UNL     1       1.347   8.878  19.502  0.00  0.00    +0.000 A 
ATOM      7  C   UNL     1       1.474   7.696  20.237  0.00  0.00    +0.000 A 
ATOM      8  C   UNL     1       2.301   6.723  19.729  0.00  0.00    +0.000 A 
ATOM      9  C   UNL     1       2.576   5.395  20.178  0.00  0.00    +0.000 A 
ATOM     10  C   UNL     1       2.328   4.447  21.128  0.00  0.00    +0.000 A 
ATOM     11  N   UNL     1       2.904   3.245  20.742  0.00  0.00    +0.000 NA
ATOM     12  C   UNL     1       3.477   3.473  19.573  0.00  0.00    +0.000 A 
ATOM     13  N   UNL     1       3.414   4.784  19.280  0.00  0.00    +0.000 N 
ENDBRANCH   1   2
BRANCH   1  15
ATOM     14  O   UNL     1       7.088   4.378  18.633  0.00  0.00    +0.000 OA
ATOM     15  C   UNL     1       6.200   4.710  17.851  0.00  0.00    +0.000 C 
ATOM     16  N   UNL     1       6.009   3.967  16.724  0.00  0.00    +0.000 N 
ATOM     17  H   UNL     1       6.692   3.228  16.628  0.00  0.00    +0.000 HD
BRANCH  16  18
ATOM     18  C   UNL     1       5.177   4.244  15.569  0.00  0.00    +0.000 C 
BRANCH  18  19
ATOM     19  C   UNL     1       5.976   4.213  14.297  0.00  0.00    +0.000 A 
ATOM     20  C   UNL     1       7.121   5.005  14.169  0.00  0.00    +0.000 A 
ATOM     21  C   UNL     1       7.798   5.062  12.952  0.00  0.00    +0.000 A 
ATOM     22  C   UNL     1       7.340   4.328  11.860  0.00  0.00    +0.000 A 
ATOM     23  C   UNL     1       6.224   3.507  11.988  0.00  0.00    +0.000 A 
ATOM     24  C   UNL     1       5.553   3.437  13.205  0.00  0.00    +0.000 A 
ENDBRANCH  18  19
ENDBRANCH  16  18
ENDBRANCH   1  15
TORSDOF 4
ENDMDL
MODEL 2
REMARK VINA RESULT:      -8.3      4.226      6.951
REMARK  Name = 
REMARK  4 active torsions:
REMARK  status: ('A' for Active; 'I' for Inactive)
REMARK    1  A    between atoms: C_2  and  C_3
REMARK    2  A    between atoms: C_3  and  C_4
REMARK    3  A    between atoms: N_16  and  C_17
REMARK    4  A    between atoms: C_17  and  C_18
REMARK                            x       y       z     vdW  Elec       q    Type
REMARK                         _______ _______ _______ _____ _____    ______ ____
ROOT
ATOM      1  C   UNL     1       7.217   6.541  17.323  0.00  0.00    +0.000 C 
ENDROOT
BRANCH   1   2
ATOM      2  C   UNL     1       6.978   5.069  16.996  0.00  0.00    +0.000 C 
ATOM      3  C   UNL     1       6.808   4.797  15.504  0.00  0.00    +0.000 A 
ATOM      4  C   UNL     1       7.711   5.004  14.477  0.00  0.00    +0.000 A 
ATOM      5  C   UNL     1       7.317   4.651  13.186  0.00  0.00    +0.000 A 
ATOM      6  C   UNL     1       6.040   4.108  12.939  0.00  0.00    +0.000 A 
ATOM      7  C   UNL     1       5.130   3.897  13.979  0.00  0.00    +0.000 A 
ATOM      8  C   UNL     1       5.531   4.241  15.248  0.00  0.00    +0.000 A 
ATOM      9  C   UNL     1       4.890   4.076  16.514  0.00  0.00    +0.000 A 
ATOM     10  C   UNL     1       3.779   3.632  17.170  0.00  0.00    +0.000 A 
ATOM     11  N   UNL     1       4.002   3.679  18.539  0.00  0.00    +0.000 NA
ATOM     12  C   UNL     1       5.233   4.133  18.694  0.00  0.00    +0.000 A 
ATOM     13  N   UNL     1       5.735   4.509  17.503  0.00  0.00    +0.000 N 
ENDBRANCH   1   2
BRANCH   1  15
ATOM     14  O   UNL     1       8.140   5.924  19.446  0.00  0.00    +0.000 OA
ATOM     15  C   UNL     1       7.998   6.802  18.598  0.00  0.00    +0.000 C 
ATOM     16  N   UNL     1       8.548   8.029  18.827  0.00  0.00    +0.000 N 
ATOM     17  H   UNL     1       8.979   8.094  19.740  0.00  0.00    +0.000 HD
BRANCH  16  18
ATOM     18  C   UNL     1       8.372   9.267  18.095  0.00  0.00    +0.000 C 
BRANCH  18  19
ATOM     19  C   UNL     1       9.218  10.368  18.669  0.00  0.00    +0.000 A 
ATOM     20  C   UNL     1       9.989  11.174  17.825  0.00  0.00    +0.000 A 
ATOM     21  C   UNL     1      10.858  12.120  18.364  0.00  0.00    +0.000 A 
ATOM     22  C   UNL     1      10.962  12.271  19.745  0.00  0.00    +0.000 A 
ATOM     23  C   UNL     1      10.171  11.501  20.593  0.00  0.00    +0.000 A 
ATOM     24  C   UNL     1       9.292  10.564  20.058  0.00  0.00    +0.000 A 
ENDBRANCH  18  19
ENDBRANCH  16  18
ENDBRANCH   1  15
TORSDOF 4
ENDMDL
MODEL 3
REMARK VINA RESULT:      -8.3      2.930      8.186
REMARK  Name = 
REMARK  4 active torsions:
REMARK  status: ('A' for Active; 'I' for Inactive)
REMARK    1  A    between atoms: C_2  and  C_3
REMARK    2  A    between atoms: C_3  and  C_4
REMARK    3  A    between atoms: N_16  and  C_17
REMARK    4  A    between atoms: C_17  and  C_18
REMARK                            x       y       z     vdW  Elec       q    Type
REMARK                         _______ _______ _______ _____ _____    ______ ____
ROOT
ATOM      1  C   UNL     1       2.843   6.919  18.722  0.00  0.00    +0.000 C 
ENDROOT
BRANCH   1   2
ATOM      2  C   UNL     1       2.971   5.963  17.539  0.00  0.00    +0.000 C 
ATOM      3  C   UNL     1       2.656   4.512  17.892  0.00  0.00    +0.000 A 
ATOM      4  C   UNL     1       1.471   3.971  18.359  0.00  0.00    +0.000 A 
ATOM      5  C   UNL     1       1.434   2.596  18.590  0.00  0.00    +0.000 A 
ATOM      6  C   UNL     1       2.568   1.789  18.363  0.00  0.00    +0.000 A 
ATOM      7  C   UNL     1       3.763   2.337  17.891  0.00  0.00    +0.000 A 
ATOM      8  C   UNL     1       3.787   3.692  17.658  0.00  0.00    +0.000 A 
ATOM      9  C   UNL     1       4.800   4.532  17.102  0.00  0.00    +0.000 A 
ATOM     10  C   UNL     1       6.064   4.596  16.593  0.00  0.00    +0.000 A 
ATOM     11  N   UNL     1       6.290   5.863  16.074  0.00  0.00    +0.000 NA
ATOM     12  C   UNL     1       5.171   6.540  16.263  0.00  0.00    +0.000 A 
ATOM     13  N   UNL     1       4.314   5.811  16.999  0.00  0.00    +0.000 N 
ENDBRANCH   1   2
BRANCH   1  15
ATOM     14  O   UNL     1       2.460   8.827  17.323  0.00  0.00    +0.000 OA
ATOM     15  C   UNL     1       2.236   8.272  18.397  0.00  0.00    +0.000 C 
ATOM     16  N   UNL     1       1.435   8.900  19.304  0.00  0.00    +0.000 N 
ATOM     17  H   UNL     1       1.153   9.822  18.997  0.00  0.00    +0.000 HD
BRANCH  16  18
ATOM     18  C   UNL     1       1.169   8.560  20.688  0.00  0.00    +0.000 C 
BRANCH  18  19
ATOM     19  C   UNL     1       0.233   9.548  21.325  0.00  0.00    +0.000 A 
ATOM     20  C   UNL     1      -0.198  10.669  20.609  0.00  0.00    +0.000 A 
ATOM     21  C   UNL     1      -0.974  11.643  21.234  0.00  0.00    +0.000 A 
ATOM     22  C   UNL     1      -1.328  11.503  22.575  0.00  0.00    +0.000 A 
ATOM     23  C   UNL     1      -0.936  10.373  23.287  0.00  0.00    +0.000 A 
ATOM     24  C   UNL     1      -0.171   9.392  22.661  0.00  0.00    +0.000 A 
ENDBRANCH  18  19
ENDBRANCH  16  18
ENDBRANCH   1  15
TORSDOF 4
ENDMDL
MODEL 4
REMARK VINA RESULT:      -8.3      3.014      8.246
REMARK  Name = 
REMARK  4 active torsions:
REMARK  status: ('A' for Active; 'I' for Inactive)
REMARK    1  A    between atoms: C_2  and  C_3
REMARK    2  A    between atoms: C_3  and  C_4
REMARK    3  A    between atoms: N_16  and  C_17
REMARK    4  A    between atoms: C_17  and  C_18
REMARK                            x       y       z     vdW  Elec       q    Type
REMARK                         _______ _______ _______ _____ _____    ______ ____
ROOT
ATOM      1  C   UNL     1       2.686   6.908  18.806  0.00  0.00    +0.000 C 
ENDROOT
BRANCH   1   2
ATOM      2  C   UNL     1       2.944   6.014  17.596  0.00  0.00    +0.000 C 
ATOM      3  C   UNL     1       2.656   4.538  17.856  0.00  0.00    +0.000 A 
ATOM      4  C   UNL     1       1.459   3.936  18.200  0.00  0.00    +0.000 A 
ATOM      5  C   UNL     1       1.455   2.551  18.365  0.00  0.00    +0.000 A 
ATOM      6  C   UNL     1       2.633   1.795  18.195  0.00  0.00    +0.000 A 
ATOM      7  C   UNL     1       3.841   2.405  17.846  0.00  0.00    +0.000 A 
ATOM      8  C   UNL     1       3.832   3.770  17.678  0.00  0.00    +0.000 A 
ATOM      9  C   UNL     1       4.854   4.669  17.245  0.00  0.00    +0.000 A 
ATOM     10  C   UNL     1       6.152   4.799  16.843  0.00  0.00    +0.000 A 
ATOM     11  N   UNL     1       6.370   6.097  16.402  0.00  0.00    +0.000 NA
ATOM     12  C   UNL     1       5.215   6.726  16.530  0.00  0.00    +0.000 A 
ATOM     13  N   UNL     1       4.330   5.934  17.160  0.00  0.00    +0.000 N 
ENDBRANCH   1   2
BRANCH   1  15
ATOM     14  O   UNL     1       2.322   8.811  17.396  0.00  0.00    +0.000 OA
ATOM     15  C   UNL     1       2.125   8.282  18.488  0.00  0.00    +0.000 C 
ATOM     16  N   UNL     1       1.397   8.959  19.422  0.00  0.00    +0.000 N 
ATOM     17  H   UNL     1       1.142   9.888  19.114  0.00  0.00    +0.000 HD
BRANCH  16  18
ATOM     18  C   UNL     1       1.183   8.651  20.822  0.00  0.00    +0.000 C 
BRANCH  18  19
ATOM     19  C   UNL     1       0.480   9.775  21.529  0.00  0.00    +0.000 A 
ATOM     20  C   UNL     1      -0.373   9.504  22.603  0.00  0.00    +0.000 A 
ATOM     21  C   UNL     1      -1.111  10.532  23.186  0.00  0.00    +0.000 A 
ATOM     22  C   UNL     1      -1.000  11.835  22.705  0.00  0.00    +0.000 A 
ATOM     23  C   UNL     1      -0.126  12.122  21.661  0.00  0.00    +0.000 A 
ATOM     24  C   UNL     1       0.623  11.100  21.085  0.00  0.00    +0.000 A 
ENDBRANCH  18  19
ENDBRANCH  16  18
ENDBRANCH   1  15
TORSDOF 4
ENDMDL
MODEL 5
REMARK VINA RESULT:      -8.2      2.635      3.512
REMARK  Name = 
REMARK  4 active torsions:
REMARK  status: ('A' for Active; 'I' for Inactive)
REMARK    1  A    between atoms: C_2  and  C_3
REMARK    2  A    between atoms: C_3  and  C_4
REMARK    3  A    between atoms: N_16  and  C_17
REMARK    4  A    between atoms: C_17  and  C_18
REMARK                            x       y       z     vdW  Elec       q    Type
REMARK                         _______ _______ _______ _____ _____    ______ ____
ROOT
ATOM      1  C   UNL     1       2.311   2.756  17.445  0.00  0.00    +0.000 C 
ENDROOT
BRANCH   1   2
ATOM      2  C   UNL     1       1.486   3.595  18.418  0.00  0.00    +0.000 C 
ATOM      3  C   UNL     1       1.906   5.062  18.464  0.00  0.00    +0.000 A 
ATOM      4  C   UNL     1       1.888   6.001  17.448  0.00  0.00    +0.000 A 
ATOM      5  C   UNL     1       2.309   7.295  17.754  0.00  0.00    +0.000 A 
ATOM      6  C   UNL     1       2.744   7.630  19.053  0.00  0.00    +0.000 A 
ATOM      7  C   UNL     1       2.759   6.680  20.078  0.00  0.00    +0.000 A 
ATOM      8  C   UNL     1       2.335   5.410  19.768  0.00  0.00    +0.000 A 
ATOM      9  C   UNL     1       2.148   4.255  20.588  0.00  0.00    +0.000 A 
ATOM     10  C   UNL     1       2.244   3.732  21.844  0.00  0.00    +0.000 A 
ATOM     11  N   UNL     1       1.670   2.468  21.863  0.00  0.00    +0.000 NA
ATOM     12  C   UNL     1       1.230   2.248  20.637  0.00  0.00    +0.000 A 
ATOM     13  N   UNL     1       1.626   3.243  19.823  0.00  0.00    +0.000 N 
ENDBRANCH   1   2
BRANCH   1  15
ATOM     14  O   UNL     1       3.856   1.443  18.723  0.00  0.00    +0.000 OA
ATOM     15  C   UNL     1       3.696   2.373  17.935  0.00  0.00    +0.000 C 
ATOM     16  N   UNL     1       4.790   3.069  17.513  0.00  0.00    +0.000 N 
ATOM     17  H   UNL     1       5.641   2.762  17.965  0.00  0.00    +0.000 HD
BRANCH  16  18
ATOM     18  C   UNL     1       4.860   4.301  16.751  0.00  0.00    +0.000 C 
BRANCH  18  19
ATOM     19  C   UNL     1       5.949   5.200  17.262  0.00  0.00    +0.000 A 
ATOM     20  C   UNL     1       6.796   4.765  18.286  0.00  0.00    +0.000 A 
ATOM     21  C   UNL     1       7.732   5.638  18.838  0.00  0.00    +0.000 A 
ATOM     22  C   UNL     1       7.832   6.946  18.369  0.00  0.00    +0.000 A 
ATOM     23  C   UNL     1       7.020   7.378  17.324  0.00  0.00    +0.000 A 
ATOM     24  C   UNL     1       6.093   6.505  16.762  0.00  0.00    +0.000 A 
ENDBRANCH  18  19
ENDBRANCH  16  18
ENDBRANCH   1  15
TORSDOF 4
ENDMDL
MODEL 6
REMARK VINA RESULT:      -8.2      1.021      1.536
REMARK  Name = 
REMARK  4 active torsions:
REMARK  status: ('A' for Active; 'I' for Inactive)
REMARK    1  A    between atoms: C_2  and  C_3
REMARK    2  A    between atoms: C_3  and  C_4
REMARK    3  A    between atoms: N_16  and  C_17
REMARK    4  A    between atoms: C_17  and  C_18
REMARK                            x       y       z     vdW  Elec       q    Type
REMARK                         _______ _______ _______ _____ _____    ______ ____
ROOT
ATOM      1  C   UNL     1       6.444   5.434  18.600  0.00  0.00    +0.000 C 
ENDROOT
BRANCH   1   2
ATOM      2  C   UNL     1       5.016   5.008  18.271  0.00  0.00    +0.000 C 
ATOM      3  C   UNL     1       4.016   6.161  18.292  0.00  0.00    +0.000 A 
ATOM      4  C   UNL     1       3.989   7.298  17.505  0.00  0.00    +0.000 A 
ATOM      5  C   UNL     1       2.947   8.203  17.709  0.00  0.00    +0.000 A 
ATOM      6  C   UNL     1       1.962   7.967  18.690  0.00  0.00    +0.000 A 
ATOM      7  C   UNL     1       1.990   6.817  19.483  0.00  0.00    +0.000 A 
ATOM      8  C   UNL     1       3.017   5.928  19.268  0.00  0.00    +0.000 A 
ATOM      9  C   UNL     1       3.282   4.644  19.834  0.00  0.00    +0.000 A 
ATOM     10  C   UNL     1       2.870   3.690  20.719  0.00  0.00    +0.000 A 
ATOM     11  N   UNL     1       3.645   2.549  20.562  0.00  0.00    +0.000 NA
ATOM     12  C   UNL     1       4.498   2.818  19.589  0.00  0.00    +0.000 A 
ATOM     13  N   UNL     1       4.393   4.110  19.233  0.00  0.00    +0.000 N 
ENDBRANCH   1   2
BRANCH   1  15
ATOM     14  O   UNL     1       8.438   4.123  18.381  0.00  0.00    +0.000 OA
ATOM     15  C   UNL     1       7.529   4.723  17.811  0.00  0.00    +0.000 C 
ATOM     16  N   UNL     1       7.515   4.750  16.448  0.00  0.00    +0.000 N 
ATOM     17  H   UNL     1       8.327   4.302  16.044  0.00  0.00    +0.000 HD
BRANCH  16  18
ATOM     18  C   UNL     1       6.683   5.528  15.551  0.00  0.00    +0.000 C 
BRANCH  18  19
ATOM     19  C   UNL     1       6.534   4.852  14.218  0.00  0.00    +0.000 A 
ATOM     20  C   UNL     1       5.459   3.989  13.984  0.00  0.00    +0.000 A 
ATOM     21  C   UNL     1       5.382   3.276  12.789  0.00  0.00    +0.000 A 
ATOM     22  C   UNL     1       6.373   3.423  11.820  0.00  0.00    +0.000 A 
ATOM     23  C   UNL     1       7.427   4.308  12.026  0.00  0.00    +0.000 A 
ATOM     24  C   UNL     1       7.500   5.031  13.213  0.00  0.00    +0.000 A 
ENDBRANCH  18  19
ENDBRANCH  16  18
ENDBRANCH   1  15
TORSDOF 4
ENDMDL
MODEL 7
REMARK VINA RESULT:      -8.1      1.983      3.863
REMARK  Name = 
REMARK  4 active torsions:
REMARK  status: ('A' for Active; 'I' for Inactive)
REMARK    1  A    between atoms: C_2  and  C_3
REMARK    2  A    between atoms: C_3  and  C_4
REMARK    3  A    between atoms: N_16  and  C_17
REMARK    4  A    between atoms: C_17  and  C_18
REMARK                            x       y       z     vdW  Elec       q    Type
REMARK                         _______ _______ _______ _____ _____    ______ ____
ROOT
ATOM      1  C   UNL     1       5.455   4.063  15.959  0.00  0.00    +0.000 C 
ENDROOT
BRANCH   1   2
ATOM      2  C   UNL     1       4.921   4.408  17.347  0.00  0.00    +0.000 C 
ATOM      3  C   UNL     1       3.765   3.517  17.794  0.00  0.00    +0.000 A 
ATOM      4  C   UNL     1       3.753   2.149  17.996  0.00  0.00    +0.000 A 
ATOM      5  C   UNL     1       2.561   1.568  18.429  0.00  0.00    +0.000 A 
ATOM      6  C   UNL     1       1.408   2.351  18.645  0.00  0.00    +0.000 A 
ATOM      7  C   UNL     1       1.423   3.733  18.442  0.00  0.00    +0.000 A 
ATOM      8  C   UNL     1       2.605   4.297  18.023  0.00  0.00    +0.000 A 
ATOM      9  C   UNL     1       2.973   5.661  17.813  0.00  0.00    +0.000 A 
ATOM     10  C   UNL     1       2.561   6.961  17.839  0.00  0.00    +0.000 A 
ATOM     11  N   UNL     1       3.652   7.795  17.640  0.00  0.00    +0.000 NA
ATOM     12  C   UNL     1       4.700   7.002  17.510  0.00  0.00    +0.000 A 
ATOM     13  N   UNL     1       4.300   5.718  17.471  0.00  0.00    +0.000 N 
ENDBRANCH   1   2
BRANCH   1  15
ATOM     14  O   UNL     1       7.730   4.260  16.682  0.00  0.00    +0.000 OA
ATOM     15  C   UNL     1       6.934   4.332  15.749  0.00  0.00    +0.000 C 
ATOM     16  N   UNL     1       7.401   4.672  14.514  0.00  0.00    +0.000 N 
ATOM     17  H   UNL     1       8.388   4.894  14.522  0.00  0.00    +0.000 HD
BRANCH  16  18
ATOM     18  C   UNL     1       6.664   5.005  13.311  0.00  0.00    +0.000 C 
BRANCH  18  19
ATOM     19  C   UNL     1       6.479   3.801  12.431  0.00  0.00    +0.000 A 
ATOM     20  C   UNL     1       5.196   3.304  12.182  0.00  0.00    +0.000 A 
ATOM     21  C   UNL     1       5.032   2.124  11.459  0.00  0.00    +0.000 A 
ATOM     22  C   UNL     1       6.144   1.436  10.977  0.00  0.00    +0.000 A 
ATOM     23  C   UNL     1       7.423   1.943  11.186  0.00  0.00    +0.000 A 
ATOM     24  C   UNL     1       7.590   3.128  11.897  0.00  0.00    +0.000 A 
ENDBRANCH  18  19
ENDBRANCH  16  18
ENDBRANCH   1  15
TORSDOF 4
ENDMDL
MODEL 8
REMARK VINA RESULT:      -8.0      2.586      7.758
REMARK  Name = 
REMARK  4 active torsions:
REMARK  status: ('A' for Active; 'I' for Inactive)
REMARK    1  A    between atoms: C_2  and  C_3
REMARK    2  A    between atoms: C_3  and  C_4
REMARK    3  A    between atoms: N_16  and  C_17
REMARK    4  A    between atoms: C_17  and  C_18
REMARK                            x       y       z     vdW  Elec       q    Type
REMARK                         _______ _______ _______ _____ _____    ______ ____
ROOT
ATOM      1  C   UNL     1       2.184   6.573  18.228  0.00  0.00    +0.000 C 
ENDROOT
BRANCH   1   2
ATOM      2  C   UNL     1       3.534   5.941  18.559  0.00  0.00    +0.000 C 
ATOM      3  C   UNL     1       4.370   5.611  17.326  0.00  0.00    +0.000 A 
ATOM      4  C   UNL     1       4.871   6.469  16.364  0.00  0.00    +0.000 A 
ATOM      5  C   UNL     1       5.632   5.915  15.334  0.00  0.00    +0.000 A 
ATOM      6  C   UNL     1       5.874   4.527  15.276  0.00  0.00    +0.000 A 
ATOM      7  C   UNL     1       5.369   3.662  16.250  0.00  0.00    +0.000 A 
ATOM      8  C   UNL     1       4.628   4.220  17.265  0.00  0.00    +0.000 A 
ATOM      9  C   UNL     1       4.056   3.640  18.439  0.00  0.00    +0.000 A 
ATOM     10  C   UNL     1       3.865   2.497  19.158  0.00  0.00    +0.000 A 
ATOM     11  N   UNL     1       3.291   2.812  20.382  0.00  0.00    +0.000 NA
ATOM     12  C   UNL     1       3.152   4.126  20.393  0.00  0.00    +0.000 A 
ATOM     13  N   UNL     1       3.474   4.630  19.189  0.00  0.00    +0.000 N 
ENDBRANCH   1   2
BRANCH   1  15
ATOM     14  O   UNL     1       2.589   8.701  17.204  0.00  0.00    +0.000 OA
ATOM     15  C   UNL     1       2.173   8.090  18.186  0.00  0.00    +0.000 C 
ATOM     16  N   UNL     1       1.708   8.803  19.251  0.00  0.00    +0.000 N 
ATOM     17  H   UNL     1       1.820   9.801  19.128  0.00  0.00    +0.000 HD
BRANCH  16  18
ATOM     18  C   UNL     1       1.345   8.344  20.578  0.00  0.00    +0.000 C 
BRANCH  18  19
ATOM     19  C   UNL     1       0.489   9.352  21.291  0.00  0.00    +0.000 A 
ATOM     20  C   UNL     1       0.278  10.615  20.731  0.00  0.00    +0.000 A 
ATOM     21  C   UNL     1      -0.421  11.588  21.443  0.00  0.00    +0.000 A 
ATOM     22  C   UNL     1      -0.916  11.306  22.715  0.00  0.00    +0.000 A 
ATOM     23  C   UNL     1      -0.744  10.040  23.266  0.00  0.00    +0.000 A 
ATOM     24  C   UNL     1      -0.058   9.062  22.552  0.00  0.00    +0.000 A 
ENDBRANCH  18  19
ENDBRANCH  16  18
ENDBRANCH   1  15
TORSDOF 4
ENDMDL
MODEL 9
REMARK VINA RESULT:      -8.0      2.598      7.781
REMARK  Name = 
REMARK  4 active torsions:
REMARK  status: ('A' for Active; 'I' for Inactive)
REMARK    1  A    between atoms: C_2  and  C_3
REMARK    2  A    between atoms: C_3  and  C_4
REMARK    3  A    between atoms: N_16  and  C_17
REMARK    4  A    between atoms: C_17  and  C_18
REMARK                            x       y       z     vdW  Elec       q    Type
REMARK                         _______ _______ _______ _____ _____    ______ ____
ROOT
ATOM      1  C   UNL     1       2.138   6.587  18.236  0.00  0.00    +0.000 C 
ENDROOT
BRANCH   1   2
ATOM      2  C   UNL     1       3.480   5.944  18.579  0.00  0.00    +0.000 C 
ATOM      3  C   UNL     1       4.315   5.587  17.353  0.00  0.00    +0.000 A 
ATOM      4  C   UNL     1       4.828   6.425  16.379  0.00  0.00    +0.000 A 
ATOM      5  C   UNL     1       5.585   5.848  15.360  0.00  0.00    +0.000 A 
ATOM      6  C   UNL     1       5.812   4.457  15.322  0.00  0.00    +0.000 A 
ATOM      7  C   UNL     1       5.295   3.612  16.307  0.00  0.00    +0.000 A 
ATOM      8  C   UNL     1       4.557   4.192  17.312  0.00  0.00    +0.000 A 
ATOM      9  C   UNL     1       3.976   3.636  18.492  0.00  0.00    +0.000 A 
ATOM     10  C   UNL     1       3.771   2.505  19.228  0.00  0.00    +0.000 A 
ATOM     11  N   UNL     1       3.197   2.844  20.445  0.00  0.00    +0.000 NA
ATOM     12  C   UNL     1       3.073   4.160  20.437  0.00  0.00    +0.000 A 
ATOM     13  N   UNL     1       3.403   4.643  19.226  0.00  0.00    +0.000 N 
ENDBRANCH   1   2
BRANCH   1  15
ATOM     14  O   UNL     1       2.551   8.713  17.212  0.00  0.00    +0.000 OA
ATOM     15  C   UNL     1       2.139   8.104  18.197  0.00  0.00    +0.000 C 
ATOM     16  N   UNL     1       1.688   8.818  19.267  0.00  0.00    +0.000 N 
ATOM     17  H   UNL     1       1.807   9.815  19.144  0.00  0.00    +0.000 HD
BRANCH  16  18
ATOM     18  C   UNL     1       1.333   8.360  20.596  0.00  0.00    +0.000 C 
BRANCH  18  19
ATOM     19  C   UNL     1       0.628   9.432  21.376  0.00  0.00    +0.000 A 
ATOM     20  C   UNL     1      -0.066   9.109  22.546  0.00  0.00    +0.000 A 
ATOM     21  C   UNL     1      -0.813  10.081  23.207  0.00  0.00    +0.000 A 
ATOM     22  C   UNL     1      -0.868  11.382  22.710  0.00  0.00    +0.000 A 
ATOM     23  C   UNL     1      -0.150  11.724  21.567  0.00  0.00    +0.000 A 
ATOM     24  C   UNL     1       0.607  10.758  20.911  0.00  0.00    +0.000 A 
ENDBRANCH  18  19
ENDBRANCH  16  18
ENDBRANCH   1  15
TORSDOF 4
ENDMDL
