MODEL 1
REMARK VINA RESULT:      -6.8      0.000      0.000
REMARK  Name = 
REMARK  5 active torsions:
REMARK  status: ('A' for Active; 'I' for Inactive)
REMARK    1  A    between atoms: C_1  and  N_2
REMARK    2  A    between atoms: N_2  and  C_3
REMARK    3  A    between atoms: C_3  and  C_4
REMARK    4  A    between atoms: N_6  and  C_7
REMARK    5  A    between atoms: C_12  and  C_13
REMARK                            x       y       z     vdW  Elec       q    Type
REMARK                         _______ _______ _______ _____ _____    ______ ____
ROOT
ATOM      1  C   UNL     1       3.567   3.252  19.506  0.00  0.00    +0.000 A 
ATOM      2  C   UNL     1       3.600   2.674  20.785  0.00  0.00    +0.000 A 
ATOM      3  C   UNL     1       2.443   2.568  21.555  0.00  0.00    +0.000 A 
ATOM      4  C   UNL     1       1.233   3.031  21.049  0.00  0.00    +0.000 A 
ATOM      5  C   UNL     1       1.188   3.600  19.778  0.00  0.00    +0.000 A 
ATOM      6  C   UNL     1       2.353   3.736  18.994  0.00  0.00    +0.000 A 
ENDROOT
BRANCH   1   9
ATOM      7  C   UNL     1       5.581   4.499  18.859  0.00  0.00    +0.000 C 
ATOM      8  O   UNL     1       5.429   5.431  19.646  0.00  0.00    +0.000 OA
ATOM      9  N   UNL     1       4.762   3.382  18.779  0.00  0.00    +0.000 N 
ATOM     10  H   UNL     1       5.195   2.546  18.393  0.00  0.00    +0.000 HD
BRANCH   7  11
ATOM     11  C   UNL     1       6.732   4.483  17.854  0.00  0.00    +0.000 C 
BRANCH  11  13
ATOM     12  C   UNL     1       6.914   4.621  15.444  0.00  0.00    +0.000 C 
ATOM     13  N   UNL     1       6.302   3.907  16.566  0.00  0.00    +0.000 NA
ATOM     14  H   UNL     1       6.609   2.935  16.532  0.00  0.00    +0.000 HD
ENDBRANCH  11  13
ENDBRANCH   7  11
ENDBRANCH   1   9
BRANCH   6  15
ATOM     15  C   UNL     1       2.206   4.280  17.599  0.00  0.00    +0.000 C 
ATOM     16  F   UNL     1       2.893   5.438  17.367  0.00  0.00    +0.000 F 
ATOM     17  F   UNL     1       2.637   3.402  16.649  0.00  0.00    +0.000 F 
ATOM     18  F   UNL     1       0.912   4.562  17.283  0.00  0.00    +0.000 F 
ENDBRANCH   6  15
TORSDOF 4
ENDMDL
MODEL 2
REMARK VINA RESULT:      -6.6      0.930      1.370
REMARK  Name = 
REMARK  5 active torsions:
REMARK  status: ('A' for Active; 'I' for Inactive)
REMARK    1  A    between atoms: C_1  and  N_2
REMARK    2  A    between atoms: N_2  and  C_3
REMARK    3  A    between atoms: C_3  and  C_4
REMARK    4  A    between atoms: N_6  and  C_7
REMARK    5  A    between atoms: C_12  and  C_13
REMARK                            x       y       z     vdW  Elec       q    Type
REMARK                         _______ _______ _______ _____ _____    ______ ____
ROOT
ATOM      1  C   UNL     1       3.547   3.235  19.527  0.00  0.00    +0.000 A 
ATOM      2  C   UNL     1       3.580   2.649  20.802  0.00  0.00    +0.000 A 
ATOM      3  C   UNL     1       2.416   2.506  21.557  0.00  0.00    +0.000 A 
ATOM      4  C   UNL     1       1.201   2.940  21.040  0.00  0.00    +0.000 A 
ATOM      5  C   UNL     1       1.156   3.517  19.771  0.00  0.00    +0.000 A 
ATOM      6  C   UNL     1       2.326   3.690  19.004  0.00  0.00    +0.000 A 
ENDROOT
BRANCH   1   9
ATOM      7  C   UNL     1       5.531   4.543  18.909  0.00  0.00    +0.000 C 
ATOM      8  O   UNL     1       5.341   5.468  19.697  0.00  0.00    +0.000 OA
ATOM      9  N   UNL     1       4.747   3.402  18.816  0.00  0.00    +0.000 N 
ATOM     10  H   UNL     1       5.210   2.581  18.433  0.00  0.00    +0.000 HD
BRANCH   7  11
ATOM     11  C   UNL     1       6.696   4.564  17.919  0.00  0.00    +0.000 C 
BRANCH  11  13
ATOM     12  C   UNL     1       7.398   6.802  17.324  0.00  0.00    +0.000 C 
ATOM     13  N   UNL     1       7.625   5.668  18.221  0.00  0.00    +0.000 NA
ATOM     14  H   UNL     1       7.454   5.978  19.177  0.00  0.00    +0.000 HD
ENDBRANCH  11  13
ENDBRANCH   7  11
ENDBRANCH   1   9
BRANCH   6  15
ATOM     15  C   UNL     1       2.183   4.240  17.611  0.00  0.00    +0.000 C 
ATOM     16  F   UNL     1       2.654   3.419  16.625  0.00  0.00    +0.000 F 
ATOM     17  F   UNL     1       0.885   4.498  17.282  0.00  0.00    +0.000 F 
ATOM     18  F   UNL     1       2.847   5.417  17.444  0.00  0.00    +0.000 F 
ENDBRANCH   6  15
TORSDOF 4
ENDMDL
MODEL 3
REMARK VINA RESULT:      -6.6      2.115      4.647
REMARK  Name = 
REMARK  5 active torsions:
REMARK  status: ('A' for Active; 'I' for Inactive)
REMARK    1  A    between atoms: C_1  and  N_2
REMARK    2  A    between atoms: N_2  and  C_3
REMARK    3  A    between atoms: C_3  and  C_4
REMARK    4  A    between atoms: N_6  and  C_7
REMARK    5  A    between atoms: C_12  and  C_13
REMARK                            x       y       z     vdW  Elec       q    Type
REMARK                         _______ _______ _______ _____ _____    ______ ____
ROOT
ATOM      1  C   UNL     1       6.473   5.099  18.338  0.00  0.00    +0.000 A 
ATOM      2  C   UNL     1       7.468   5.557  19.215  0.00  0.00    +0.000 A 
ATOM      3  C   UNL     1       8.155   6.744  18.964  0.00  0.00    +0.000 A 
ATOM      4  C   UNL     1       7.847   7.494  17.834  0.00  0.00    +0.000 A 
ATOM      5  C   UNL     1       6.855   7.051  16.961  0.00  0.00    +0.000 A 
ATOM      6  C   UNL     1       6.166   5.841  17.187  0.00  0.00    +0.000 A 
ENDROOT
BRANCH   1   9
ATOM      7  C   UNL     1       4.686   3.769  19.371  0.00  0.00    +0.000 C 
ATOM      8  O   UNL     1       4.033   4.718  19.801  0.00  0.00    +0.000 OA
ATOM      9  N   UNL     1       5.835   3.875  18.602  0.00  0.00    +0.000 N 
ATOM     10  H   UNL     1       6.042   3.075  18.008  0.00  0.00    +0.000 HD
BRANCH   7  11
ATOM     11  C   UNL     1       4.275   2.324  19.656  0.00  0.00    +0.000 C 
BRANCH  11  13
ATOM     12  C   UNL     1       2.730   2.151  17.802  0.00  0.00    +0.000 C 
ATOM     13  N   UNL     1       3.948   1.611  18.407  0.00  0.00    +0.000 NA
ATOM     14  H   UNL     1       4.717   1.747  17.751  0.00  0.00    +0.000 HD
ENDBRANCH  11  13
ENDBRANCH   7  11
ENDBRANCH   1   9
BRANCH   6  15
ATOM     15  C   UNL     1       5.051   5.476  16.246  0.00  0.00    +0.000 C 
ATOM     16  F   UNL     1       4.982   6.250  15.121  0.00  0.00    +0.000 F 
ATOM     17  F   UNL     1       5.142   4.191  15.801  0.00  0.00    +0.000 F 
ATOM     18  F   UNL     1       3.824   5.580  16.827  0.00  0.00    +0.000 F 
ENDBRANCH   6  15
TORSDOF 4
ENDMDL
MODEL 4
REMARK VINA RESULT:      -6.4      0.866      1.183
REMARK  Name = 
REMARK  5 active torsions:
REMARK  status: ('A' for Active; 'I' for Inactive)
REMARK    1  A    between atoms: C_1  and  N_2
REMARK    2  A    between atoms: N_2  and  C_3
REMARK    3  A    between atoms: C_3  and  C_4
REMARK    4  A    between atoms: N_6  and  C_7
REMARK    5  A    between atoms: C_12  and  C_13
REMARK                            x       y       z     vdW  Elec       q    Type
REMARK                         _______ _______ _______ _____ _____    ______ ____
ROOT
ATOM      1  C   UNL     1       3.438   3.197  19.530  0.00  0.00    +0.000 A 
ATOM      2  C   UNL     1       3.512   2.623  20.809  0.00  0.00    +0.000 A 
ATOM      3  C   UNL     1       2.373   2.485  21.601  0.00  0.00    +0.000 A 
ATOM      4  C   UNL     1       1.142   2.911  21.118  0.00  0.00    +0.000 A 
ATOM      5  C   UNL     1       1.055   3.476  19.847  0.00  0.00    +0.000 A 
ATOM      6  C   UNL     1       2.200   3.645  19.041  0.00  0.00    +0.000 A 
ENDROOT
BRANCH   1   9
ATOM      7  C   UNL     1       5.326   4.550  18.735  0.00  0.00    +0.000 C 
ATOM      8  O   UNL     1       5.089   5.542  19.423  0.00  0.00    +0.000 OA
ATOM      9  N   UNL     1       4.615   3.360  18.780  0.00  0.00    +0.000 N 
ATOM     10  H   UNL     1       5.123   2.533  18.477  0.00  0.00    +0.000 HD
BRANCH   7  11
ATOM     11  C   UNL     1       6.473   4.536  17.724  0.00  0.00    +0.000 C 
BRANCH  11  13
ATOM     12  C   UNL     1       8.104   5.707  19.075  0.00  0.00    +0.000 C 
ATOM     13  N   UNL     1       7.777   4.447  18.406  0.00  0.00    +0.000 NA
ATOM     14  H   UNL     1       7.718   3.715  19.114  0.00  0.00    +0.000 HD
ENDBRANCH  11  13
ENDBRANCH   7  11
ENDBRANCH   1   9
BRANCH   6  15
ATOM     15  C   UNL     1       2.012   4.182  17.648  0.00  0.00    +0.000 C 
ATOM     16  F   UNL     1       2.603   5.393  17.422  0.00  0.00    +0.000 F 
ATOM     17  F   UNL     1       2.513   3.347  16.694  0.00  0.00    +0.000 F 
ATOM     18  F   UNL     1       0.699   4.360  17.332  0.00  0.00    +0.000 F 
ENDBRANCH   6  15
TORSDOF 4
ENDMDL
MODEL 5
REMARK VINA RESULT:      -6.4      2.144      4.765
REMARK  Name = 
REMARK  5 active torsions:
REMARK  status: ('A' for Active; 'I' for Inactive)
REMARK    1  A    between atoms: C_1  and  N_2
REMARK    2  A    between atoms: N_2  and  C_3
REMARK    3  A    between atoms: C_3  and  C_4
REMARK    4  A    between atoms: N_6  and  C_7
REMARK    5  A    between atoms: C_12  and  C_13
REMARK                            x       y       z     vdW  Elec       q    Type
REMARK                         _______ _______ _______ _____ _____    ______ ____
ROOT
ATOM      1  C   UNL     1       6.448   5.142  18.338  0.00  0.00    +0.000 A 
ATOM      2  C   UNL     1       7.486   5.527  19.200  0.00  0.00    +0.000 A 
ATOM      3  C   UNL     1       8.196   6.708  18.986  0.00  0.00    +0.000 A 
ATOM      4  C   UNL     1       7.868   7.524  17.909  0.00  0.00    +0.000 A 
ATOM      5  C   UNL     1       6.834   7.153  17.050  0.00  0.00    +0.000 A 
ATOM      6  C   UNL     1       6.121   5.951  17.239  0.00  0.00    +0.000 A 
ENDROOT
BRANCH   1   9
ATOM      7  C   UNL     1       4.652   3.808  19.351  0.00  0.00    +0.000 C 
ATOM      8  O   UNL     1       4.031   4.752  19.837  0.00  0.00    +0.000 OA
ATOM      9  N   UNL     1       5.786   3.922  18.562  0.00  0.00    +0.000 N 
ATOM     10  H   UNL     1       5.961   3.146  17.928  0.00  0.00    +0.000 HD
BRANCH   7  11
ATOM     11  C   UNL     1       4.212   2.362  19.580  0.00  0.00    +0.000 C 
BRANCH  11  13
ATOM     12  C   UNL     1       2.616   2.241  17.765  0.00  0.00    +0.000 C 
ATOM     13  N   UNL     1       2.795   2.176  19.216  0.00  0.00    +0.000 NA
ATOM     14  H   UNL     1       2.503   1.251  19.533  0.00  0.00    +0.000 HD
ENDBRANCH  11  13
ENDBRANCH   7  11
ENDBRANCH   1   9
BRANCH   6  15
ATOM     15  C   UNL     1       4.963   5.665  16.322  0.00  0.00    +0.000 C 
ATOM     16  F   UNL     1       3.735   5.751  16.915  0.00  0.00    +0.000 F 
ATOM     17  F   UNL     1       4.916   6.518  15.259  0.00  0.00    +0.000 F 
ATOM     18  F   UNL     1       5.017   4.413  15.790  0.00  0.00    +0.000 F 
ENDBRANCH   6  15
TORSDOF 4
ENDMDL
MODEL 6
REMARK VINA RESULT:      -6.3      1.832      2.331
REMARK  Name = 
REMARK  5 active torsions:
REMARK  status: ('A' for Active; 'I' for Inactive)
REMARK    1  A    between atoms: C_1  and  N_2
REMARK    2  A    between atoms: N_2  and  C_3
REMARK    3  A    between atoms: C_3  and  C_4
REMARK    4  A    between atoms: N_6  and  C_7
REMARK    5  A    between atoms: C_12  and  C_13
REMARK                            x       y       z     vdW  Elec       q    Type
REMARK                         _______ _______ _______ _____ _____    ______ ____
ROOT
ATOM      1  C   UNL     1       3.303   4.735  18.724  0.00  0.00    +0.000 A 
ATOM      2  C   UNL     1       3.112   6.010  19.279  0.00  0.00    +0.000 A 
ATOM      3  C   UNL     1       2.108   6.241  20.219  0.00  0.00    +0.000 A 
ATOM      4  C   UNL     1       1.288   5.194  20.622  0.00  0.00    +0.000 A 
ATOM      5  C   UNL     1       1.473   3.922  20.082  0.00  0.00    +0.000 A 
ATOM      6  C   UNL     1       2.469   3.676  19.114  0.00  0.00    +0.000 A 
ENDROOT
BRANCH   1   9
ATOM      7  C   UNL     1       5.645   4.445  18.046  0.00  0.00    +0.000 C 
ATOM      8  O   UNL     1       6.113   4.372  19.181  0.00  0.00    +0.000 OA
ATOM      9  N   UNL     1       4.296   4.553  17.746  0.00  0.00    +0.000 N 
ATOM     10  H   UNL     1       4.022   4.219  16.825  0.00  0.00    +0.000 HD
BRANCH   7  11
ATOM     11  C   UNL     1       6.544   4.421  16.810  0.00  0.00    +0.000 C 
BRANCH  11  13
ATOM     12  C   UNL     1       6.131   4.024  14.459  0.00  0.00    +0.000 C 
ATOM     13  N   UNL     1       6.040   3.464  15.808  0.00  0.00    +0.000 NA
ATOM     14  H   UNL     1       6.620   2.626  15.846  0.00  0.00    +0.000 HD
ENDBRANCH  11  13
ENDBRANCH   7  11
ENDBRANCH   1   9
BRANCH   6  15
ATOM     15  C   UNL     1       2.663   2.260  18.645  0.00  0.00    +0.000 C 
ATOM     16  F   UNL     1       2.525   2.085  17.296  0.00  0.00    +0.000 F 
ATOM     17  F   UNL     1       3.899   1.773  18.952  0.00  0.00    +0.000 F 
ATOM     18  F   UNL     1       1.774   1.397  19.210  0.00  0.00    +0.000 F 
ENDBRANCH   6  15
TORSDOF 4
ENDMDL
MODEL 7
REMARK VINA RESULT:      -6.3      3.417      4.531
REMARK  Name = 
REMARK  5 active torsions:
REMARK  status: ('A' for Active; 'I' for Inactive)
REMARK    1  A    between atoms: C_1  and  N_2
REMARK    2  A    between atoms: N_2  and  C_3
REMARK    3  A    between atoms: C_3  and  C_4
REMARK    4  A    between atoms: N_6  and  C_7
REMARK    5  A    between atoms: C_12  and  C_13
REMARK                            x       y       z     vdW  Elec       q    Type
REMARK                         _______ _______ _______ _____ _____    ______ ____
ROOT
ATOM      1  C   UNL     1       5.398   4.269  17.018  0.00  0.00    +0.000 A 
ATOM      2  C   UNL     1       4.025   3.981  17.065  0.00  0.00    +0.000 A 
ATOM      3  C   UNL     1       3.297   4.144  18.243  0.00  0.00    +0.000 A 
ATOM      4  C   UNL     1       3.935   4.607  19.389  0.00  0.00    +0.000 A 
ATOM      5  C   UNL     1       5.296   4.902  19.351  0.00  0.00    +0.000 A 
ATOM      6  C   UNL     1       6.053   4.721  18.175  0.00  0.00    +0.000 A 
ENDROOT
BRANCH   1   9
ATOM      7  C   UNL     1       6.144   4.966  14.785  0.00  0.00    +0.000 C 
ATOM      8  O   UNL     1       5.679   6.103  14.829  0.00  0.00    +0.000 OA
ATOM      9  N   UNL     1       6.106   4.049  15.825  0.00  0.00    +0.000 N 
ATOM     10  H   UNL     1       6.832   3.335  15.808  0.00  0.00    +0.000 HD
BRANCH   7  11
ATOM     11  C   UNL     1       6.836   4.435  13.529  0.00  0.00    +0.000 C 
BRANCH  11  13
ATOM     12  C   UNL     1       5.275   3.305  12.066  0.00  0.00    +0.000 C 
ATOM     13  N   UNL     1       6.270   3.134  13.125  0.00  0.00    +0.000 NA
ATOM     14  H   UNL     1       7.028   2.556  12.761  0.00  0.00    +0.000 HD
ENDBRANCH  11  13
ENDBRANCH   7  11
ENDBRANCH   1   9
BRANCH   6  15
ATOM     15  C   UNL     1       7.497   5.144  18.191  0.00  0.00    +0.000 C 
ATOM     16  F   UNL     1       7.974   5.485  19.425  0.00  0.00    +0.000 F 
ATOM     17  F   UNL     1       8.332   4.169  17.732  0.00  0.00    +0.000 F 
ATOM     18  F   UNL     1       7.729   6.231  17.405  0.00  0.00    +0.000 F 
ENDBRANCH   6  15
TORSDOF 4
ENDMDL
MODEL 8
REMARK VINA RESULT:      -6.3      1.671      2.129
REMARK  Name = 
REMARK  5 active torsions:
REMARK  status: ('A' for Active; 'I' for Inactive)
REMARK    1  A    between atoms: C_1  and  N_2
REMARK    2  A    between atoms: N_2  and  C_3
REMARK    3  A    between atoms: C_3  and  C_4
REMARK    4  A    between atoms: N_6  and  C_7
REMARK    5  A    between atoms: C_12  and  C_13
REMARK                            x       y       z     vdW  Elec       q    Type
REMARK                         _______ _______ _______ _____ _____    ______ ____
ROOT
ATOM      1  C   UNL     1       3.277   5.067  18.924  0.00  0.00    +0.000 A 
ATOM      2  C   UNL     1       2.815   5.870  19.977  0.00  0.00    +0.000 A 
ATOM      3  C   UNL     1       1.697   5.500  20.725  0.00  0.00    +0.000 A 
ATOM      4  C   UNL     1       1.033   4.314  20.431  0.00  0.00    +0.000 A 
ATOM      5  C   UNL     1       1.489   3.505  19.391  0.00  0.00    +0.000 A 
ATOM      6  C   UNL     1       2.604   3.875  18.610  0.00  0.00    +0.000 A 
ENDROOT
BRANCH   1   9
ATOM      7  C   UNL     1       5.693   5.199  18.499  0.00  0.00    +0.000 C 
ATOM      8  O   UNL     1       6.037   4.441  19.404  0.00  0.00    +0.000 OA
ATOM      9  N   UNL     1       4.380   5.496  18.165  0.00  0.00    +0.000 N 
ATOM     10  H   UNL     1       4.228   5.797  17.205  0.00  0.00    +0.000 HD
BRANCH   7  11
ATOM     11  C   UNL     1       6.721   5.914  17.622  0.00  0.00    +0.000 C 
BRANCH  11  13
ATOM     12  C   UNL     1       6.783   4.361  15.766  0.00  0.00    +0.000 C 
ATOM     13  N   UNL     1       7.542   4.944  16.873  0.00  0.00    +0.000 NA
ATOM     14  H   UNL     1       8.345   5.439  16.484  0.00  0.00    +0.000 HD
ENDBRANCH  11  13
ENDBRANCH   7  11
ENDBRANCH   1   9
BRANCH   6  15
ATOM     15  C   UNL     1       3.086   2.908  17.564  0.00  0.00    +0.000 C 
ATOM     16  F   UNL     1       2.210   1.899  17.277  0.00  0.00    +0.000 F 
ATOM     17  F   UNL     1       3.346   3.516  16.371  0.00  0.00    +0.000 F 
ATOM     18  F   UNL     1       4.243   2.286  17.923  0.00  0.00    +0.000 F 
ENDBRANCH   6  15
TORSDOF 4
ENDMDL
MODEL 9
REMARK VINA RESULT:      -6.3      2.090      4.834
REMARK  Name = 
REMARK  5 active torsions:
REMARK  status: ('A' for Active; 'I' for Inactive)
REMARK    1  A    between atoms: C_1  and  N_2
REMARK    2  A    between atoms: N_2  and  C_3
REMARK    3  A    between atoms: C_3  and  C_4
REMARK    4  A    between atoms: N_6  and  C_7
REMARK    5  A    between atoms: C_12  and  C_13
REMARK                            x       y       z     vdW  Elec       q    Type
REMARK                         _______ _______ _______ _____ _____    ______ ____
ROOT
ATOM      1  C   UNL     1       6.355   4.785  18.235  0.00  0.00    +0.000 A 
ATOM      2  C   UNL     1       7.153   5.424  19.196  0.00  0.00    +0.000 A 
ATOM      3  C   UNL     1       7.864   6.582  18.883  0.00  0.00    +0.000 A 
ATOM      4  C   UNL     1       7.777   7.120  17.604  0.00  0.00    +0.000 A 
ATOM      5  C   UNL     1       6.982   6.497  16.644  0.00  0.00    +0.000 A 
ATOM      6  C   UNL     1       6.274   5.312  16.936  0.00  0.00    +0.000 A 
ENDROOT
BRANCH   1   9
ATOM      7  C   UNL     1       4.521   3.566  19.324  0.00  0.00    +0.000 C 
ATOM      8  O   UNL     1       3.876   4.556  19.665  0.00  0.00    +0.000 OA
ATOM      9  N   UNL     1       5.689   3.595  18.576  0.00  0.00    +0.000 N 
ATOM     10  H   UNL     1       5.895   2.749  18.049  0.00  0.00    +0.000 HD
BRANCH   7  11
ATOM     11  C   UNL     1       4.079   2.155  19.708  0.00  0.00    +0.000 C 
BRANCH  11  13
ATOM     12  C   UNL     1       1.933   2.033  18.595  0.00  0.00    +0.000 C 
ATOM     13  N   UNL     1       3.306   1.528  18.619  0.00  0.00    +0.000 NA
ATOM     14  H   UNL     1       3.751   1.769  17.732  0.00  0.00    +0.000 HD
ENDBRANCH  11  13
ENDBRANCH   7  11
ENDBRANCH   1   9
BRANCH   6  15
ATOM     15  C   UNL     1       5.369   4.749  15.874  0.00  0.00    +0.000 C 
ATOM     16  F   UNL     1       5.749   3.527  15.395  0.00  0.00    +0.000 F 
ATOM     17  F   UNL     1       4.088   4.588  16.311  0.00  0.00    +0.000 F 
ATOM     18  F   UNL     1       5.289   5.554  14.778  0.00  0.00    +0.000 F 
ENDBRANCH   6  15
TORSDOF 4
ENDMDL
