MODEL 1
REMARK VINA RESULT:      -7.7      0.000      0.000
REMARK  Name = 
REMARK  11 active torsions:
REMARK  status: ('A' for Active; 'I' for Inactive)
REMARK    1  A    between atoms: C_1  and  C_2
REMARK    2  A    between atoms: N_4  and  C_5
REMARK    3  A    between atoms: N_13  and  C_14
REMARK    4  A    between atoms: C_14  and  C_15
REMARK    5  A    between atoms: C_15  and  C_16
REMARK    6  A    between atoms: C_16  and  C_17
REMARK    7  A    between atoms: N_19  and  C_20
REMARK    8  A    between atoms: C_20  and  C_21
REMARK    9  A    between atoms: C_24  and  N_25
REMARK   10  A    between atoms: N_25  and  C_26
REMARK   11  A    between atoms: N_25  and  C_27
REMARK                            x       y       z     vdW  Elec       q    Type
REMARK                         _______ _______ _______ _____ _____    ______ ____
ROOT
ATOM      1  C   UNL     1       4.366   7.559  16.472  0.00  0.00    +0.000 C 
ATOM      2  C   UNL     1       3.583   7.250  17.697  0.00  0.00    +0.000 A 
ATOM      3  N   UNL     1       2.854   8.237  18.239  0.00  0.00    +0.000 NA
ATOM      4  N   UNL     1       2.150   7.664  19.254  0.00  0.00    +0.000 N 
ATOM      5  C   UNL     1       2.476   6.319  19.364  0.00  0.00    +0.000 A 
ATOM      6  C   UNL     1       3.457   6.034  18.428  0.00  0.00    +0.000 A 
ATOM      7  N   UNL     1       4.066   4.764  18.309  0.00  0.00    +0.000 N 
ATOM      8  C   UNL     1       3.672   3.713  19.160  0.00  0.00    +0.000 C 
ATOM      9  O   UNL     1       3.815   2.524  18.860  0.00  0.00    +0.000 OA
ATOM     10  C   UNL     1       3.265   4.097  20.568  0.00  0.00    +0.000 C 
ATOM     11  S   UNL     1       1.877   5.226  20.573  0.00  0.00    +0.000 S 
ENDROOT
BRANCH   4  12
ATOM     12  C   UNL     1       1.334   8.478  20.097  0.00  0.00    +0.000 A 
ATOM     13  C   UNL     1       1.337   8.342  21.491  0.00  0.00    +0.000 A 
ATOM     14  C   UNL     1       0.711   9.291  22.302  0.00  0.00    +0.000 A 
ATOM     15  C   UNL     1       0.038  10.362  21.722  0.00  0.00    +0.000 A 
ATOM     16  C   UNL     1      -0.055  10.453  20.335  0.00  0.00    +0.000 A 
ATOM     17  C   UNL     1       0.575   9.508  19.520  0.00  0.00    +0.000 A 
ENDBRANCH   4  12
BRANCH   7  18
ATOM     18  C   UNL     1       5.094   4.413  17.335  0.00  0.00    +0.000 C 
BRANCH  18  19
ATOM     19  C   UNL     1       6.498   4.411  17.982  0.00  0.00    +0.000 C 
BRANCH  19  20
ATOM     20  C   UNL     1       6.836   5.735  18.664  0.00  0.00    +0.000 C 
BRANCH  20  21
ATOM     21  C   UNL     1       7.435   6.730  17.690  0.00  0.00    +0.000 C 
ATOM     22  O   UNL     1       7.682   6.446  16.525  0.00  0.00    +0.000 OA
ATOM     23  N   UNL     1       7.665   7.966  18.237  0.00  0.00    +0.000 N 
ATOM     24  H   UNL     1       7.298   8.197  19.153  0.00  0.00    +0.000 HD
BRANCH  23  25
ATOM     25  C   UNL     1       8.186   9.046  17.426  0.00  0.00    +0.000 C 
BRANCH  25  26
ATOM     26  C   UNL     1       8.719  10.162  18.275  0.00  0.00    +0.000 A 
ATOM     27  C   UNL     1       8.702  11.477  17.811  0.00  0.00    +0.000 A 
ATOM     28  C   UNL     1       9.204  12.523  18.602  0.00  0.00    +0.000 A 
ATOM     29  C   UNL     1       9.739  12.311  19.884  0.00  0.00    +0.000 A 
ATOM     30  C   UNL     1       9.753  10.977  20.321  0.00  0.00    +0.000 A 
ATOM     31  C   UNL     1       9.263   9.919  19.536  0.00  0.00    +0.000 A 
BRANCH  29  32
ATOM     32  N   UNL     1      10.274  13.355  20.628  0.00  0.00    +0.000 N 
ATOM     33  C   UNL     1      11.304  14.233  20.072  0.00  0.00    +0.000 C 
ATOM     34  C   UNL     1       9.594  13.899  21.802  0.00  0.00    +0.000 C 
ENDBRANCH  29  32
ENDBRANCH  25  26
ENDBRANCH  23  25
ENDBRANCH  20  21
ENDBRANCH  19  20
ENDBRANCH  18  19
ENDBRANCH   7  18
TORSDOF 8
ENDMDL
MODEL 2
REMARK VINA RESULT:      -7.2      4.156      7.634
REMARK  Name = 
REMARK  11 active torsions:
REMARK  status: ('A' for Active; 'I' for Inactive)
REMARK    1  A    between atoms: C_1  and  C_2
REMARK    2  A    between atoms: N_4  and  C_5
REMARK    3  A    between atoms: N_13  and  C_14
REMARK    4  A    between atoms: C_14  and  C_15
REMARK    5  A    between atoms: C_15  and  C_16
REMARK    6  A    between atoms: C_16  and  C_17
REMARK    7  A    between atoms: N_19  and  C_20
REMARK    8  A    between atoms: C_20  and  C_21
REMARK    9  A    between atoms: C_24  and  N_25
REMARK   10  A    between atoms: N_25  and  C_26
REMARK   11  A    between atoms: N_25  and  C_27
REMARK                            x       y       z     vdW  Elec       q    Type
REMARK                         _______ _______ _______ _____ _____    ______ ____
ROOT
ATOM      1  C   UNL     1       2.155   4.815  21.286  0.00  0.00    +0.000 C 
ATOM      2  C   UNL     1       2.691   5.554  20.112  0.00  0.00    +0.000 A 
ATOM      3  N   UNL     1       3.654   4.963  19.389  0.00  0.00    +0.000 NA
ATOM      4  N   UNL     1       3.871   5.782  18.322  0.00  0.00    +0.000 N 
ATOM      5  C   UNL     1       3.061   6.905  18.407  0.00  0.00    +0.000 A 
ATOM      6  C   UNL     1       2.343   6.832  19.590  0.00  0.00    +0.000 A 
ATOM      7  N   UNL     1       1.464   7.850  20.025  0.00  0.00    +0.000 N 
ATOM      8  C   UNL     1       1.277   9.002  19.235  0.00  0.00    +0.000 C 
ATOM      9  O   UNL     1       0.260   9.698  19.304  0.00  0.00    +0.000 OA
ATOM     10  C   UNL     1       2.478   9.488  18.450  0.00  0.00    +0.000 C 
ATOM     11  S   UNL     1       3.068   8.247  17.303  0.00  0.00    +0.000 S 
ENDROOT
BRANCH   4  12
ATOM     12  C   UNL     1       4.914   5.475  17.395  0.00  0.00    +0.000 A 
ATOM     13  C   UNL     1       6.244   5.851  17.622  0.00  0.00    +0.000 A 
ATOM     14  C   UNL     1       7.274   5.348  16.825  0.00  0.00    +0.000 A 
ATOM     15  C   UNL     1       6.976   4.497  15.764  0.00  0.00    +0.000 A 
ATOM     16  C   UNL     1       5.649   4.195  15.469  0.00  0.00    +0.000 A 
ATOM     17  C   UNL     1       4.615   4.693  16.269  0.00  0.00    +0.000 A 
ENDBRANCH   4  12
BRANCH   7  18
ATOM     18  C   UNL     1       0.681   7.815  21.255  0.00  0.00    +0.000 C 
BRANCH  18  19
ATOM     19  C   UNL     1       1.057   8.989  22.189  0.00  0.00    +0.000 C 
BRANCH  19  20
ATOM     20  C   UNL     1      -0.063   9.350  23.163  0.00  0.00    +0.000 C 
BRANCH  20  21
ATOM     21  C   UNL     1      -0.724  10.662  22.794  0.00  0.00    +0.000 C 
ATOM     22  O   UNL     1      -1.738  11.068  23.347  0.00  0.00    +0.000 OA
ATOM     23  N   UNL     1      -0.077  11.344  21.795  0.00  0.00    +0.000 N 
ATOM     24  H   UNL     1       0.840  11.046  21.484  0.00  0.00    +0.000 HD
BRANCH  23  25
ATOM     25  C   UNL     1      -0.552  12.640  21.360  0.00  0.00    +0.000 C 
BRANCH  25  26
ATOM     26  C   UNL     1       0.464  13.336  20.502  0.00  0.00    +0.000 A 
ATOM     27  C   UNL     1       0.075  14.342  19.617  0.00  0.00    +0.000 A 
ATOM     28  C   UNL     1       1.022  14.991  18.809  0.00  0.00    +0.000 A 
ATOM     29  C   UNL     1       2.391  14.673  18.845  0.00  0.00    +0.000 A 
ATOM     30  C   UNL     1       2.752  13.650  19.737  0.00  0.00    +0.000 A 
ATOM     31  C   UNL     1       1.812  12.986  20.544  0.00  0.00    +0.000 A 
BRANCH  29  32
ATOM     32  N   UNL     1       3.302  15.296  18.001  0.00  0.00    +0.000 N 
ATOM     33  C   UNL     1       3.067  16.649  17.498  0.00  0.00    +0.000 C 
ATOM     34  C   UNL     1       4.689  14.849  17.893  0.00  0.00    +0.000 C 
ENDBRANCH  29  32
ENDBRANCH  25  26
ENDBRANCH  23  25
ENDBRANCH  20  21
ENDBRANCH  19  20
ENDBRANCH  18  19
ENDBRANCH   7  18
TORSDOF 8
ENDMDL
MODEL 3
REMARK VINA RESULT:      -7.1      4.782      9.363
REMARK  Name = 
REMARK  11 active torsions:
REMARK  status: ('A' for Active; 'I' for Inactive)
REMARK    1  A    between atoms: C_1  and  C_2
REMARK    2  A    between atoms: N_4  and  C_5
REMARK    3  A    between atoms: N_13  and  C_14
REMARK    4  A    between atoms: C_14  and  C_15
REMARK    5  A    between atoms: C_15  and  C_16
REMARK    6  A    between atoms: C_16  and  C_17
REMARK    7  A    between atoms: N_19  and  C_20
REMARK    8  A    between atoms: C_20  and  C_21
REMARK    9  A    between atoms: C_24  and  N_25
REMARK   10  A    between atoms: N_25  and  C_26
REMARK   11  A    between atoms: N_25  and  C_27
REMARK                            x       y       z     vdW  Elec       q    Type
REMARK                         _______ _______ _______ _____ _____    ______ ____
ROOT
ATOM      1  C   UNL     1       2.247   8.351  17.995  0.00  0.00    +0.000 C 
ATOM      2  C   UNL     1       3.008   7.075  17.937  0.00  0.00    +0.000 A 
ATOM      3  N   UNL     1       3.859   6.901  16.914  0.00  0.00    +0.000 NA
ATOM      4  N   UNL     1       4.505   5.729  17.166  0.00  0.00    +0.000 N 
ATOM      5  C   UNL     1       4.023   5.157  18.334  0.00  0.00    +0.000 A 
ATOM      6  C   UNL     1       2.999   5.956  18.817  0.00  0.00    +0.000 A 
ATOM      7  N   UNL     1       2.240   5.631  19.965  0.00  0.00    +0.000 N 
ATOM      8  C   UNL     1       2.519   4.451  20.682  0.00  0.00    +0.000 C 
ATOM      9  O   UNL     1       2.229   4.312  21.873  0.00  0.00    +0.000 OA
ATOM     10  C   UNL     1       2.992   3.262  19.871  0.00  0.00    +0.000 C 
ATOM     11  S   UNL     1       4.506   3.620  18.986  0.00  0.00    +0.000 S 
ENDROOT
BRANCH   4  12
ATOM     12  C   UNL     1       5.428   5.209  16.207  0.00  0.00    +0.000 A 
ATOM     13  C   UNL     1       5.012   4.416  15.130  0.00  0.00    +0.000 A 
ATOM     14  C   UNL     1       5.889   4.111  14.088  0.00  0.00    +0.000 A 
ATOM     15  C   UNL     1       7.204   4.564  14.134  0.00  0.00    +0.000 A 
ATOM     16  C   UNL     1       7.655   5.271  15.247  0.00  0.00    +0.000 A 
ATOM     17  C   UNL     1       6.778   5.581  16.291  0.00  0.00    +0.000 A 
ENDBRANCH   4  12
BRANCH   7  18
ATOM     18  C   UNL     1       1.162   6.444  20.516  0.00  0.00    +0.000 C 
BRANCH  18  19
ATOM     19  C   UNL     1       1.711   7.733  21.168  0.00  0.00    +0.000 C 
BRANCH  19  20
ATOM     20  C   UNL     1       0.638   8.521  21.916  0.00  0.00    +0.000 C 
BRANCH  20  21
ATOM     21  C   UNL     1       0.167   9.721  21.120  0.00  0.00    +0.000 C 
ATOM     22  O   UNL     1      -0.270   9.627  19.981  0.00  0.00    +0.000 OA
ATOM     23  N   UNL     1       0.274  10.909  21.798  0.00  0.00    +0.000 N 
ATOM     24  H   UNL     1       0.490  10.915  22.788  0.00  0.00    +0.000 HD
BRANCH  23  25
ATOM     25  C   UNL     1      -0.181  12.145  21.197  0.00  0.00    +0.000 C 
BRANCH  25  26
ATOM     26  C   UNL     1      -1.625  12.407  21.510  0.00  0.00    +0.000 A 
ATOM     27  C   UNL     1      -2.500  12.837  20.513  0.00  0.00    +0.000 A 
ATOM     28  C   UNL     1      -3.850  13.088  20.804  0.00  0.00    +0.000 A 
ATOM     29  C   UNL     1      -4.390  12.921  22.091  0.00  0.00    +0.000 A 
ATOM     30  C   UNL     1      -3.484  12.496  23.076  0.00  0.00    +0.000 A 
ATOM     31  C   UNL     1      -2.128  12.252  22.801  0.00  0.00    +0.000 A 
BRANCH  29  32
ATOM     32  N   UNL     1      -5.718  13.221  22.365  0.00  0.00    +0.000 N 
ATOM     33  C   UNL     1      -6.805  12.382  21.861  0.00  0.00    +0.000 C 
ATOM     34  C   UNL     1      -6.103  14.101  23.467  0.00  0.00    +0.000 C 
ENDBRANCH  29  32
ENDBRANCH  25  26
ENDBRANCH  23  25
ENDBRANCH  20  21
ENDBRANCH  19  20
ENDBRANCH  18  19
ENDBRANCH   7  18
TORSDOF 8
ENDMDL
MODEL 4
REMARK VINA RESULT:      -7.1      4.643      9.924
REMARK  Name = 
REMARK  11 active torsions:
REMARK  status: ('A' for Active; 'I' for Inactive)
REMARK    1  A    between atoms: C_1  and  C_2
REMARK    2  A    between atoms: N_4  and  C_5
REMARK    3  A    between atoms: N_13  and  C_14
REMARK    4  A    between atoms: C_14  and  C_15
REMARK    5  A    between atoms: C_15  and  C_16
REMARK    6  A    between atoms: C_16  and  C_17
REMARK    7  A    between atoms: N_19  and  C_20
REMARK    8  A    between atoms: C_20  and  C_21
REMARK    9  A    between atoms: C_24  and  N_25
REMARK   10  A    between atoms: N_25  and  C_26
REMARK   11  A    between atoms: N_25  and  C_27
REMARK                            x       y       z     vdW  Elec       q    Type
REMARK                         _______ _______ _______ _____ _____    ______ ____
ROOT
ATOM      1  C   UNL     1       3.734  15.406  17.599  0.00  0.00    +0.000 C 
ATOM      2  C   UNL     1       4.940  15.085  18.407  0.00  0.00    +0.000 A 
ATOM      3  N   UNL     1       6.114  14.990  17.765  0.00  0.00    +0.000 NA
ATOM      4  N   UNL     1       7.054  14.818  18.736  0.00  0.00    +0.000 N 
ATOM      5  C   UNL     1       6.450  14.770  19.985  0.00  0.00    +0.000 A 
ATOM      6  C   UNL     1       5.079  14.858  19.806  0.00  0.00    +0.000 A 
ATOM      7  N   UNL     1       4.153  14.776  20.871  0.00  0.00    +0.000 N 
ATOM      8  C   UNL     1       4.614  14.608  22.192  0.00  0.00    +0.000 C 
ATOM      9  O   UNL     1       3.953  14.949  23.176  0.00  0.00    +0.000 OA
ATOM     10  C   UNL     1       5.869  13.778  22.371  0.00  0.00    +0.000 C 
ATOM     11  S   UNL     1       7.261  14.482  21.494  0.00  0.00    +0.000 S 
ENDROOT
BRANCH   4  12
ATOM     12  C   UNL     1       8.416  14.592  18.370  0.00  0.00    +0.000 A 
ATOM     13  C   UNL     1       8.910  13.310  18.098  0.00  0.00    +0.000 A 
ATOM     14  C   UNL     1      10.172  13.139  17.526  0.00  0.00    +0.000 A 
ATOM     15  C   UNL     1      10.969  14.248  17.262  0.00  0.00    +0.000 A 
ATOM     16  C   UNL     1      10.529  15.520  17.620  0.00  0.00    +0.000 A 
ATOM     17  C   UNL     1       9.263  15.696  18.188  0.00  0.00    +0.000 A 
ENDBRANCH   4  12
BRANCH   7  18
ATOM     18  C   UNL     1       2.704  14.873  20.734  0.00  0.00    +0.000 C 
BRANCH  18  19
ATOM     19  C   UNL     1       2.072  13.482  20.497  0.00  0.00    +0.000 C 
BRANCH  19  20
ATOM     20  C   UNL     1       0.545  13.518  20.507  0.00  0.00    +0.000 C 
BRANCH  20  21
ATOM     21  C   UNL     1      -0.045  12.160  20.828  0.00  0.00    +0.000 C 
ATOM     22  O   UNL     1      -1.204  12.013  21.194  0.00  0.00    +0.000 OA
ATOM     23  N   UNL     1       0.838  11.123  20.665  0.00  0.00    +0.000 N 
ATOM     24  H   UNL     1       1.730  11.277  20.210  0.00  0.00    +0.000 HD
BRANCH  23  25
ATOM     25  C   UNL     1       0.417   9.755  20.882  0.00  0.00    +0.000 C 
BRANCH  25  26
ATOM     26  C   UNL     1       1.226   8.796  20.059  0.00  0.00    +0.000 A 
ATOM     27  C   UNL     1       1.546   9.092  18.734  0.00  0.00    +0.000 A 
ATOM     28  C   UNL     1       2.299   8.195  17.960  0.00  0.00    +0.000 A 
ATOM     29  C   UNL     1       2.767   6.970  18.466  0.00  0.00    +0.000 A 
ATOM     30  C   UNL     1       2.422   6.693  19.799  0.00  0.00    +0.000 A 
ATOM     31  C   UNL     1       1.661   7.578  20.581  0.00  0.00    +0.000 A 
BRANCH  29  32
ATOM     32  N   UNL     1       3.469   6.076  17.667  0.00  0.00    +0.000 N 
ATOM     33  C   UNL     1       4.799   6.403  17.151  0.00  0.00    +0.000 C 
ATOM     34  C   UNL     1       3.145   4.652  17.626  0.00  0.00    +0.000 C 
ENDBRANCH  29  32
ENDBRANCH  25  26
ENDBRANCH  23  25
ENDBRANCH  20  21
ENDBRANCH  19  20
ENDBRANCH  18  19
ENDBRANCH   7  18
TORSDOF 8
ENDMDL
MODEL 5
REMARK VINA RESULT:      -7.1      3.934      7.426
REMARK  Name = 
REMARK  11 active torsions:
REMARK  status: ('A' for Active; 'I' for Inactive)
REMARK    1  A    between atoms: C_1  and  C_2
REMARK    2  A    between atoms: N_4  and  C_5
REMARK    3  A    between atoms: N_13  and  C_14
REMARK    4  A    between atoms: C_14  and  C_15
REMARK    5  A    between atoms: C_15  and  C_16
REMARK    6  A    between atoms: C_16  and  C_17
REMARK    7  A    between atoms: N_19  and  C_20
REMARK    8  A    between atoms: C_20  and  C_21
REMARK    9  A    between atoms: C_24  and  N_25
REMARK   10  A    between atoms: N_25  and  C_26
REMARK   11  A    between atoms: N_25  and  C_27
REMARK                            x       y       z     vdW  Elec       q    Type
REMARK                         _______ _______ _______ _____ _____    ______ ____
ROOT
ATOM      1  C   UNL     1       2.199   4.525  21.368  0.00  0.00    +0.000 C 
ATOM      2  C   UNL     1       2.792   5.168  20.166  0.00  0.00    +0.000 A 
ATOM      3  N   UNL     1       3.724   4.484  19.486  0.00  0.00    +0.000 NA
ATOM      4  N   UNL     1       4.001   5.232  18.382  0.00  0.00    +0.000 N 
ATOM      5  C   UNL     1       3.260   6.405  18.400  0.00  0.00    +0.000 A 
ATOM      6  C   UNL     1       2.528   6.437  19.576  0.00  0.00    +0.000 A 
ATOM      7  N   UNL     1       1.708   7.528  19.947  0.00  0.00    +0.000 N 
ATOM      8  C   UNL     1       1.600   8.647  19.097  0.00  0.00    +0.000 C 
ATOM      9  O   UNL     1       0.628   9.406  19.118  0.00  0.00    +0.000 OA
ATOM     10  C   UNL     1       2.837   9.017  18.305  0.00  0.00    +0.000 C 
ATOM     11  S   UNL     1       3.361   7.686  17.230  0.00  0.00    +0.000 S 
ENDROOT
BRANCH   4  12
ATOM     12  C   UNL     1       5.033   4.815  17.486  0.00  0.00    +0.000 A 
ATOM     13  C   UNL     1       4.752   4.353  16.194  0.00  0.00    +0.000 A 
ATOM     14  C   UNL     1       5.777   4.168  15.265  0.00  0.00    +0.000 A 
ATOM     15  C   UNL     1       7.098   4.404  15.634  0.00  0.00    +0.000 A 
ATOM     16  C   UNL     1       7.397   4.769  16.944  0.00  0.00    +0.000 A 
ATOM     17  C   UNL     1       6.372   4.959  17.877  0.00  0.00    +0.000 A 
ENDBRANCH   4  12
BRANCH   7  18
ATOM     18  C   UNL     1       0.913   7.604  21.167  0.00  0.00    +0.000 C 
BRANCH  18  19
ATOM     19  C   UNL     1       1.236   8.887  21.965  0.00  0.00    +0.000 C 
BRANCH  19  20
ATOM     20  C   UNL     1       0.108   9.296  22.910  0.00  0.00    +0.000 C 
BRANCH  20  21
ATOM     21  C   UNL     1      -0.468  10.648  22.542  0.00  0.00    +0.000 C 
ATOM     22  O   UNL     1      -1.428  11.137  23.123  0.00  0.00    +0.000 OA
ATOM     23  N   UNL     1       0.190  11.265  21.508  0.00  0.00    +0.000 N 
ATOM     24  H   UNL     1       1.070  10.895  21.170  0.00  0.00    +0.000 HD
BRANCH  23  25
ATOM     25  C   UNL     1      -0.203  12.587  21.068  0.00  0.00    +0.000 C 
BRANCH  25  26
ATOM     26  C   UNL     1       0.925  13.291  20.374  0.00  0.00    +0.000 A 
ATOM     27  C   UNL     1       1.477  12.765  19.206  0.00  0.00    +0.000 A 
ATOM     28  C   UNL     1       2.536  13.419  18.556  0.00  0.00    +0.000 A 
ATOM     29  C   UNL     1       3.089  14.620  19.033  0.00  0.00    +0.000 A 
ATOM     30  C   UNL     1       2.520  15.121  20.216  0.00  0.00    +0.000 A 
ATOM     31  C   UNL     1       1.467  14.471  20.882  0.00  0.00    +0.000 A 
BRANCH  29  32
ATOM     32  N   UNL     1       4.168  15.224  18.400  0.00  0.00    +0.000 N 
ATOM     33  C   UNL     1       4.447  16.649  18.572  0.00  0.00    +0.000 C 
ATOM     34  C   UNL     1       5.295  14.451  17.883  0.00  0.00    +0.000 C 
ENDBRANCH  29  32
ENDBRANCH  25  26
ENDBRANCH  23  25
ENDBRANCH  20  21
ENDBRANCH  19  20
ENDBRANCH  18  19
ENDBRANCH   7  18
TORSDOF 8
ENDMDL
MODEL 6
REMARK VINA RESULT:      -7.1      5.576      9.521
REMARK  Name = 
REMARK  11 active torsions:
REMARK  status: ('A' for Active; 'I' for Inactive)
REMARK    1  A    between atoms: C_1  and  C_2
REMARK    2  A    between atoms: N_4  and  C_5
REMARK    3  A    between atoms: N_13  and  C_14
REMARK    4  A    between atoms: C_14  and  C_15
REMARK    5  A    between atoms: C_15  and  C_16
REMARK    6  A    between atoms: C_16  and  C_17
REMARK    7  A    between atoms: N_19  and  C_20
REMARK    8  A    between atoms: C_20  and  C_21
REMARK    9  A    between atoms: C_24  and  N_25
REMARK   10  A    between atoms: N_25  and  C_26
REMARK   11  A    between atoms: N_25  and  C_27
REMARK                            x       y       z     vdW  Elec       q    Type
REMARK                         _______ _______ _______ _____ _____    ______ ____
ROOT
ATOM      1  C   UNL     1      -1.093  12.168  22.212  0.00  0.00    +0.000 C 
ATOM      2  C   UNL     1      -2.476  12.387  21.713  0.00  0.00    +0.000 A 
ATOM      3  N   UNL     1      -3.384  12.866  22.578  0.00  0.00    +0.000 NA
ATOM      4  N   UNL     1      -4.511  13.089  21.846  0.00  0.00    +0.000 N 
ATOM      5  C   UNL     1      -4.308  12.711  20.526  0.00  0.00    +0.000 A 
ATOM      6  C   UNL     1      -3.033  12.178  20.420  0.00  0.00    +0.000 A 
ATOM      7  N   UNL     1      -2.521  11.634  19.220  0.00  0.00    +0.000 N 
ATOM      8  C   UNL     1      -3.314  11.627  18.056  0.00  0.00    +0.000 C 
ATOM      9  O   UNL     1      -2.831  11.583  16.921  0.00  0.00    +0.000 OA
ATOM     10  C   UNL     1      -4.805  11.446  18.253  0.00  0.00    +0.000 C 
ATOM     11  S   UNL     1      -5.503  12.747  19.266  0.00  0.00    +0.000 S 
ENDROOT
BRANCH   4  12
ATOM     12  C   UNL     1      -5.705  13.522  22.500  0.00  0.00    +0.000 A 
ATOM     13  C   UNL     1      -6.784  12.658  22.725  0.00  0.00    +0.000 A 
ATOM     14  C   UNL     1      -7.838  13.036  23.559  0.00  0.00    +0.000 A 
ATOM     15  C   UNL     1      -7.842  14.300  24.142  0.00  0.00    +0.000 A 
ATOM     16  C   UNL     1      -6.823  15.203  23.846  0.00  0.00    +0.000 A 
ATOM     17  C   UNL     1      -5.763  14.826  23.014  0.00  0.00    +0.000 A 
ENDBRANCH   4  12
BRANCH   7  18
ATOM     18  C   UNL     1      -1.185  11.071  19.056  0.00  0.00    +0.000 C 
BRANCH  18  19
ATOM     19  C   UNL     1      -0.127  12.186  18.889  0.00  0.00    +0.000 C 
BRANCH  19  20
ATOM     20  C   UNL     1       1.265  11.752  19.344  0.00  0.00    +0.000 C 
BRANCH  20  21
ATOM     21  C   UNL     1       1.926  10.838  18.332  0.00  0.00    +0.000 C 
ATOM     22  O   UNL     1       2.526  11.262  17.354  0.00  0.00    +0.000 OA
ATOM     23  N   UNL     1       1.788   9.505  18.623  0.00  0.00    +0.000 N 
ATOM     24  H   UNL     1       1.424   9.212  19.521  0.00  0.00    +0.000 HD
BRANCH  23  25
ATOM     25  C   UNL     1       2.406   8.500  17.783  0.00  0.00    +0.000 C 
BRANCH  25  26
ATOM     26  C   UNL     1       2.519   7.184  18.495  0.00  0.00    +0.000 A 
ATOM     27  C   UNL     1       2.094   7.055  19.817  0.00  0.00    +0.000 A 
ATOM     28  C   UNL     1       2.204   5.826  20.488  0.00  0.00    +0.000 A 
ATOM     29  C   UNL     1       2.736   4.677  19.878  0.00  0.00    +0.000 A 
ATOM     30  C   UNL     1       3.165   4.840  18.551  0.00  0.00    +0.000 A 
ATOM     31  C   UNL     1       3.070   6.066  17.871  0.00  0.00    +0.000 A 
BRANCH  29  32
ATOM     32  N   UNL     1       2.879   3.485  20.578  0.00  0.00    +0.000 N 
ATOM     33  C   UNL     1       1.842   3.017  21.498  0.00  0.00    +0.000 C 
ATOM     34  C   UNL     1       3.821   2.449  20.160  0.00  0.00    +0.000 C 
ENDBRANCH  29  32
ENDBRANCH  25  26
ENDBRANCH  23  25
ENDBRANCH  20  21
ENDBRANCH  19  20
ENDBRANCH  18  19
ENDBRANCH   7  18
TORSDOF 8
ENDMDL
MODEL 7
REMARK VINA RESULT:      -7.0      3.627      8.798
REMARK  Name = 
REMARK  11 active torsions:
REMARK  status: ('A' for Active; 'I' for Inactive)
REMARK    1  A    between atoms: C_1  and  C_2
REMARK    2  A    between atoms: N_4  and  C_5
REMARK    3  A    between atoms: N_13  and  C_14
REMARK    4  A    between atoms: C_14  and  C_15
REMARK    5  A    between atoms: C_15  and  C_16
REMARK    6  A    between atoms: C_16  and  C_17
REMARK    7  A    between atoms: N_19  and  C_20
REMARK    8  A    between atoms: C_20  and  C_21
REMARK    9  A    between atoms: C_24  and  N_25
REMARK   10  A    between atoms: N_25  and  C_26
REMARK   11  A    between atoms: N_25  and  C_27
REMARK                            x       y       z     vdW  Elec       q    Type
REMARK                         _______ _______ _______ _____ _____    ______ ____
ROOT
ATOM      1  C   UNL     1       9.219  12.151  22.352  0.00  0.00    +0.000 C 
ATOM      2  C   UNL     1       8.550  13.104  21.428  0.00  0.00    +0.000 A 
ATOM      3  N   UNL     1       7.690  13.988  21.957  0.00  0.00    +0.000 NA
ATOM      4  N   UNL     1       7.324  14.807  20.932  0.00  0.00    +0.000 N 
ATOM      5  C   UNL     1       7.935  14.403  19.753  0.00  0.00    +0.000 A 
ATOM      6  C   UNL     1       8.671  13.259  20.018  0.00  0.00    +0.000 A 
ATOM      7  N   UNL     1       9.373  12.544  19.020  0.00  0.00    +0.000 N 
ATOM      8  C   UNL     1       9.352  12.995  17.686  0.00  0.00    +0.000 C 
ATOM      9  O   UNL     1      10.238  12.713  16.875  0.00  0.00    +0.000 OA
ATOM     10  C   UNL     1       8.076  13.662  17.215  0.00  0.00    +0.000 C 
ATOM     11  S   UNL     1       7.687  15.113  18.187  0.00  0.00    +0.000 S 
ENDROOT
BRANCH   4  12
ATOM     12  C   UNL     1       6.335  15.814  21.150  0.00  0.00    +0.000 A 
ATOM     13  C   UNL     1       6.675  17.154  21.372  0.00  0.00    +0.000 A 
ATOM     14  C   UNL     1       5.698  18.151  21.356  0.00  0.00    +0.000 A 
ATOM     15  C   UNL     1       4.363  17.809  21.160  0.00  0.00    +0.000 A 
ATOM     16  C   UNL     1       4.001  16.469  21.037  0.00  0.00    +0.000 A 
ATOM     17  C   UNL     1       4.979  15.469  21.048  0.00  0.00    +0.000 A 
ENDBRANCH   4  12
BRANCH   7  18
ATOM     18  C   UNL     1      10.167  11.342  19.250  0.00  0.00    +0.000 C 
BRANCH  18  19
ATOM     19  C   UNL     1       9.262  10.109  19.477  0.00  0.00    +0.000 C 
BRANCH  19  20
ATOM     20  C   UNL     1       8.414   9.766  18.253  0.00  0.00    +0.000 C 
BRANCH  20  21
ATOM     21  C   UNL     1       8.212   8.271  18.114  0.00  0.00    +0.000 C 
ATOM     22  O   UNL     1       8.641   7.468  18.933  0.00  0.00    +0.000 OA
ATOM     23  N   UNL     1       7.506   7.912  16.994  0.00  0.00    +0.000 N 
ATOM     24  H   UNL     1       7.039   8.617  16.437  0.00  0.00    +0.000 HD
BRANCH  23  25
ATOM     25  C   UNL     1       7.182   6.524  16.740  0.00  0.00    +0.000 C 
BRANCH  25  26
ATOM     26  C   UNL     1       5.930   6.113  17.458  0.00  0.00    +0.000 A 
ATOM     27  C   UNL     1       5.998   5.358  18.628  0.00  0.00    +0.000 A 
ATOM     28  C   UNL     1       4.828   4.967  19.299  0.00  0.00    +0.000 A 
ATOM     29  C   UNL     1       3.545   5.311  18.841  0.00  0.00    +0.000 A 
ATOM     30  C   UNL     1       3.506   6.063  17.655  0.00  0.00    +0.000 A 
ATOM     31  C   UNL     1       4.669   6.451  16.969  0.00  0.00    +0.000 A 
BRANCH  29  32
ATOM     32  N   UNL     1       2.400   4.872  19.495  0.00  0.00    +0.000 N 
ATOM     33  C   UNL     1       1.894   5.562  20.681  0.00  0.00    +0.000 C 
ATOM     34  C   UNL     1       1.424   3.999  18.848  0.00  0.00    +0.000 C 
ENDBRANCH  29  32
ENDBRANCH  25  26
ENDBRANCH  23  25
ENDBRANCH  20  21
ENDBRANCH  19  20
ENDBRANCH  18  19
ENDBRANCH   7  18
TORSDOF 8
ENDMDL
MODEL 8
REMARK VINA RESULT:      -6.9      3.927      7.167
REMARK  Name = 
REMARK  11 active torsions:
REMARK  status: ('A' for Active; 'I' for Inactive)
REMARK    1  A    between atoms: C_1  and  C_2
REMARK    2  A    between atoms: N_4  and  C_5
REMARK    3  A    between atoms: N_13  and  C_14
REMARK    4  A    between atoms: C_14  and  C_15
REMARK    5  A    between atoms: C_15  and  C_16
REMARK    6  A    between atoms: C_16  and  C_17
REMARK    7  A    between atoms: N_19  and  C_20
REMARK    8  A    between atoms: C_20  and  C_21
REMARK    9  A    between atoms: C_24  and  N_25
REMARK   10  A    between atoms: N_25  and  C_26
REMARK   11  A    between atoms: N_25  and  C_27
REMARK                            x       y       z     vdW  Elec       q    Type
REMARK                         _______ _______ _______ _____ _____    ______ ____
ROOT
ATOM      1  C   UNL     1       2.213   8.740  17.976  0.00  0.00    +0.000 C 
ATOM      2  C   UNL     1       2.971   7.464  17.896  0.00  0.00    +0.000 A 
ATOM      3  N   UNL     1       3.808   7.299  16.860  0.00  0.00    +0.000 NA
ATOM      4  N   UNL     1       4.457   6.124  17.091  0.00  0.00    +0.000 N 
ATOM      5  C   UNL     1       3.991   5.542  18.261  0.00  0.00    +0.000 A 
ATOM      6  C   UNL     1       2.975   6.337  18.766  0.00  0.00    +0.000 A 
ATOM      7  N   UNL     1       2.233   6.002  19.922  0.00  0.00    +0.000 N 
ATOM      8  C   UNL     1       2.522   4.816  20.624  0.00  0.00    +0.000 C 
ATOM      9  O   UNL     1       2.250   4.666  21.818  0.00  0.00    +0.000 OA
ATOM     10  C   UNL     1       2.982   3.634  19.796  0.00  0.00    +0.000 C 
ATOM     11  S   UNL     1       4.483   4.000  18.892  0.00  0.00    +0.000 S 
ENDROOT
BRANCH   4  12
ATOM     12  C   UNL     1       5.365   5.613  16.114  0.00  0.00    +0.000 A 
ATOM     13  C   UNL     1       6.754   5.693  16.277  0.00  0.00    +0.000 A 
ATOM     14  C   UNL     1       7.612   4.991  15.428  0.00  0.00    +0.000 A 
ATOM     15  C   UNL     1       7.090   4.238  14.381  0.00  0.00    +0.000 A 
ATOM     16  C   UNL     1       5.716   4.231  14.151  0.00  0.00    +0.000 A 
ATOM     17  C   UNL     1       4.852   4.929  15.002  0.00  0.00    +0.000 A 
ENDBRANCH   4  12
BRANCH   7  18
ATOM     18  C   UNL     1       1.163   6.811  20.496  0.00  0.00    +0.000 C 
BRANCH  18  19
ATOM     19  C   UNL     1       1.703   8.161  21.019  0.00  0.00    +0.000 C 
BRANCH  19  20
ATOM     20  C   UNL     1       0.896   8.705  22.196  0.00  0.00    +0.000 C 
BRANCH  20  21
ATOM     21  C   UNL     1       0.204  10.007  21.848  0.00  0.00    +0.000 C 
ATOM     22  O   UNL     1      -0.007  10.884  22.675  0.00  0.00    +0.000 OA
ATOM     23  N   UNL     1      -0.154  10.104  20.527  0.00  0.00    +0.000 N 
ATOM     24  H   UNL     1       0.183   9.426  19.854  0.00  0.00    +0.000 HD
BRANCH  23  25
ATOM     25  C   UNL     1      -0.778  11.307  20.019  0.00  0.00    +0.000 C 
BRANCH  25  26
ATOM     26  C   UNL     1       0.245  12.313  19.581  0.00  0.00    +0.000 A 
ATOM     27  C   UNL     1       1.451  11.898  19.016  0.00  0.00    +0.000 A 
ATOM     28  C   UNL     1       2.413  12.837  18.610  0.00  0.00    +0.000 A 
ATOM     29  C   UNL     1       2.219  14.223  18.742  0.00  0.00    +0.000 A 
ATOM     30  C   UNL     1       1.001  14.611  19.322  0.00  0.00    +0.000 A 
ATOM     31  C   UNL     1       0.034  13.682  19.743  0.00  0.00    +0.000 A 
BRANCH  29  32
ATOM     32  N   UNL     1       3.205  15.131  18.377  0.00  0.00    +0.000 N 
ATOM     33  C   UNL     1       3.102  16.546  18.734  0.00  0.00    +0.000 C 
ATOM     34  C   UNL     1       4.551  14.704  18.001  0.00  0.00    +0.000 C 
ENDBRANCH  29  32
ENDBRANCH  25  26
ENDBRANCH  23  25
ENDBRANCH  20  21
ENDBRANCH  19  20
ENDBRANCH  18  19
ENDBRANCH   7  18
TORSDOF 8
ENDMDL
MODEL 9
REMARK VINA RESULT:      -6.9      3.683      6.853
REMARK  Name = 
REMARK  11 active torsions:
REMARK  status: ('A' for Active; 'I' for Inactive)
REMARK    1  A    between atoms: C_1  and  C_2
REMARK    2  A    between atoms: N_4  and  C_5
REMARK    3  A    between atoms: N_13  and  C_14
REMARK    4  A    between atoms: C_14  and  C_15
REMARK    5  A    between atoms: C_15  and  C_16
REMARK    6  A    between atoms: C_16  and  C_17
REMARK    7  A    between atoms: N_19  and  C_20
REMARK    8  A    between atoms: C_20  and  C_21
REMARK    9  A    between atoms: C_24  and  N_25
REMARK   10  A    between atoms: N_25  and  C_26
REMARK   11  A    between atoms: N_25  and  C_27
REMARK                            x       y       z     vdW  Elec       q    Type
REMARK                         _______ _______ _______ _____ _____    ______ ____
ROOT
ATOM      1  C   UNL     1       2.337   8.487  17.979  0.00  0.00    +0.000 C 
ATOM      2  C   UNL     1       3.058   7.188  17.917  0.00  0.00    +0.000 A 
ATOM      3  N   UNL     1       3.896   6.987  16.889  0.00  0.00    +0.000 NA
ATOM      4  N   UNL     1       4.508   5.795  17.138  0.00  0.00    +0.000 N 
ATOM      5  C   UNL     1       4.017   5.240  18.312  0.00  0.00    +0.000 A 
ATOM      6  C   UNL     1       3.022   6.072  18.800  0.00  0.00    +0.000 A 
ATOM      7  N   UNL     1       2.262   5.772  19.954  0.00  0.00    +0.000 N 
ATOM      8  C   UNL     1       2.511   4.585  20.671  0.00  0.00    +0.000 C 
ATOM      9  O   UNL     1       2.226   4.457  21.865  0.00  0.00    +0.000 OA
ATOM     10  C   UNL     1       2.941   3.381  19.860  0.00  0.00    +0.000 C 
ATOM     11  S   UNL     1       4.458   3.692  18.963  0.00  0.00    +0.000 S 
ENDROOT
BRANCH   4  12
ATOM     12  C   UNL     1       5.407   5.247  16.173  0.00  0.00    +0.000 A 
ATOM     13  C   UNL     1       4.961   4.447  15.113  0.00  0.00    +0.000 A 
ATOM     14  C   UNL     1       5.818   4.113  14.062  0.00  0.00    +0.000 A 
ATOM     15  C   UNL     1       7.142   4.541  14.085  0.00  0.00    +0.000 A 
ATOM     16  C   UNL     1       7.621   5.253  15.182  0.00  0.00    +0.000 A 
ATOM     17  C   UNL     1       6.765   5.594  16.234  0.00  0.00    +0.000 A 
ENDBRANCH   4  12
BRANCH   7  18
ATOM     18  C   UNL     1       1.213   6.618  20.512  0.00  0.00    +0.000 C 
BRANCH  18  19
ATOM     19  C   UNL     1       1.795   7.942  21.059  0.00  0.00    +0.000 C 
BRANCH  19  20
ATOM     20  C   UNL     1       0.916   8.573  22.137  0.00  0.00    +0.000 C 
BRANCH  20  21
ATOM     21  C   UNL     1       0.255   9.845  21.647  0.00  0.00    +0.000 C 
ATOM     22  O   UNL     1      -0.458  10.536  22.362  0.00  0.00    +0.000 OA
ATOM     23  N   UNL     1       0.536  10.143  20.337  0.00  0.00    +0.000 N 
ATOM     24  H   UNL     1       1.254   9.631  19.839  0.00  0.00    +0.000 HD
BRANCH  23  25
ATOM     25  C   UNL     1       0.023  11.353  19.730  0.00  0.00    +0.000 C 
BRANCH  25  26
ATOM     26  C   UNL     1       1.105  12.378  19.552  0.00  0.00    +0.000 A 
ATOM     27  C   UNL     1       1.978  12.306  18.467  0.00  0.00    +0.000 A 
ATOM     28  C   UNL     1       2.994  13.261  18.301  0.00  0.00    +0.000 A 
ATOM     29  C   UNL     1       3.185  14.325  19.198  0.00  0.00    +0.000 A 
ATOM     30  C   UNL     1       2.298  14.367  20.286  0.00  0.00    +0.000 A 
ATOM     31  C   UNL     1       1.283  13.412  20.470  0.00  0.00    +0.000 A 
BRANCH  29  32
ATOM     32  N   UNL     1       4.227  15.230  19.039  0.00  0.00    +0.000 N 
ATOM     33  C   UNL     1       4.050  16.462  18.271  0.00  0.00    +0.000 C 
ATOM     34  C   UNL     1       5.389  15.238  19.925  0.00  0.00    +0.000 C 
ENDBRANCH  29  32
ENDBRANCH  25  26
ENDBRANCH  23  25
ENDBRANCH  20  21
ENDBRANCH  19  20
ENDBRANCH  18  19
ENDBRANCH   7  18
TORSDOF 8
ENDMDL
