MODEL 1
REMARK VINA RESULT:      -7.7      0.000      0.000
REMARK  Name = 
REMARK  8 active torsions:
REMARK  status: ('A' for Active; 'I' for Inactive)
REMARK    1  A    between atoms: C_1  and  C_2
REMARK    2  A    between atoms: C_2  and  C_3
REMARK    3  A    between atoms: C_2  and  S_4
REMARK    4  A    between atoms: S_4  and  N_7
REMARK    5  A    between atoms: C_11  and  C_12
REMARK    6  A    between atoms: C_12  and  C_13
REMARK    7  A    between atoms: C_13  and  C_14
REMARK    8  A    between atoms: C_17  and  C_18
REMARK                            x       y       z     vdW  Elec       q    Type
REMARK                         _______ _______ _______ _____ _____    ______ ____
ROOT
ATOM      1  C   UNL     1       3.187   6.680  18.027  0.00  0.00    +0.000 C 
ENDROOT
BRANCH   1   6
ATOM      2  N   UNL     1       4.294   3.966  18.968  0.00  0.00    +0.000 NA
ATOM      3  C   UNL     1       5.761   4.212  19.129  0.00  0.00    +0.000 C 
ATOM      4  C   UNL     1       6.164   5.619  18.703  0.00  0.00    +0.000 C 
ATOM      5  C   UNL     1       5.578   6.056  17.364  0.00  0.00    +0.000 C 
ATOM      6  C   UNL     1       4.085   5.720  17.215  0.00  0.00    +0.000 C 
ATOM      7  C   UNL     1       3.862   4.239  17.561  0.00  0.00    +0.000 C 
BRANCH   2   8
ATOM      8  S   UNL     1       3.817   2.420  19.572  0.00  0.00    +0.000 S 
ATOM      9  O   UNL     1       4.792   2.007  20.564  0.00  0.00    +0.000 OA
ATOM     10  O   UNL     1       3.516   1.579  18.437  0.00  0.00    +0.000 OA
BRANCH   8  12
ATOM     11  C   UNL     1       2.351   4.113  21.115  0.00  0.00    +0.000 C 
ATOM     12  C   UNL     1       2.258   2.737  20.440  0.00  0.00    +0.000 C 
ATOM     13  C   UNL     1       1.035   2.698  19.532  0.00  0.00    +0.000 C 
ENDBRANCH   8  12
ENDBRANCH   2   8
ENDBRANCH   1   6
BRANCH   1  14
ATOM     14  C   UNL     1       2.877   7.984  17.280  0.00  0.00    +0.000 C 
BRANCH  14  15
ATOM     15  C   UNL     1       2.079   8.931  18.093  0.00  0.00    +0.000 A 
ATOM     16  N   UNL     1       1.667  10.112  17.616  0.00  0.00    +0.000 NA
ATOM     17  O   UNL     1       0.974  10.662  18.700  0.00  0.00    +0.000 OA
ATOM     18  C   UNL     1       1.049   9.748  19.714  0.00  0.00    +0.000 A 
ATOM     19  N   UNL     1       1.735   8.669  19.389  0.00  0.00    +0.000 NA
BRANCH  18  20
ATOM     20  C   UNL     1       0.343  10.064  20.946  0.00  0.00    +0.000 A 
ATOM     21  C   UNL     1       0.203   9.100  21.942  0.00  0.00    +0.000 A 
ATOM     22  C   UNL     1      -0.549   9.411  23.072  0.00  0.00    +0.000 A 
ATOM     23  C   UNL     1      -1.129  10.670  23.174  0.00  0.00    +0.000 A 
ATOM     24  C   UNL     1      -0.925  11.576  22.147  0.00  0.00    +0.000 A 
ATOM     25  N   UNL     1      -0.202  11.303  21.041  0.00  0.00    +0.000 NA
ENDBRANCH  18  20
ENDBRANCH  14  15
ENDBRANCH   1  14
TORSDOF 6
ENDMDL
MODEL 2
REMARK VINA RESULT:      -7.4      4.718      6.220
REMARK  Name = 
REMARK  8 active torsions:
REMARK  status: ('A' for Active; 'I' for Inactive)
REMARK    1  A    between atoms: C_1  and  C_2
REMARK    2  A    between atoms: C_2  and  C_3
REMARK    3  A    between atoms: C_2  and  S_4
REMARK    4  A    between atoms: S_4  and  N_7
REMARK    5  A    between atoms: C_11  and  C_12
REMARK    6  A    between atoms: C_12  and  C_13
REMARK    7  A    between atoms: C_13  and  C_14
REMARK    8  A    between atoms: C_17  and  C_18
REMARK                            x       y       z     vdW  Elec       q    Type
REMARK                         _______ _______ _______ _____ _____    ______ ____
ROOT
ATOM      1  C   UNL     1       6.595   5.667  19.065  0.00  0.00    +0.000 C 
ENDROOT
BRANCH   1   6
ATOM      2  N   UNL     1       4.411   3.510  18.831  0.00  0.00    +0.000 NA
ATOM      3  C   UNL     1       4.215   3.354  17.356  0.00  0.00    +0.000 C 
ATOM      4  C   UNL     1       5.059   4.336  16.551  0.00  0.00    +0.000 C 
ATOM      5  C   UNL     1       5.004   5.772  17.063  0.00  0.00    +0.000 C 
ATOM      6  C   UNL     1       5.140   5.878  18.591  0.00  0.00    +0.000 C 
ATOM      7  C   UNL     1       4.138   4.919  19.257  0.00  0.00    +0.000 C 
BRANCH   2   8
ATOM      8  S   UNL     1       3.555   2.314  19.737  0.00  0.00    +0.000 S 
ATOM      9  O   UNL     1       4.229   2.153  21.012  0.00  0.00    +0.000 OA
ATOM     10  O   UNL     1       3.334   1.181  18.870  0.00  0.00    +0.000 OA
BRANCH   8  12
ATOM     11  C   UNL     1       0.945   2.559  19.014  0.00  0.00    +0.000 C 
ATOM     12  C   UNL     1       1.940   3.069  20.066  0.00  0.00    +0.000 C 
ATOM     13  C   UNL     1       1.402   2.774  21.460  0.00  0.00    +0.000 C 
ENDBRANCH   8  12
ENDBRANCH   2   8
ENDBRANCH   1   6
BRANCH   1  14
ATOM     14  C   UNL     1       7.631   6.092  18.015  0.00  0.00    +0.000 C 
BRANCH  14  15
ATOM     15  C   UNL     1       7.847   7.557  17.988  0.00  0.00    +0.000 A 
ATOM     16  N   UNL     1       7.237   8.354  17.103  0.00  0.00    +0.000 NA
ATOM     17  O   UNL     1       7.730   9.622  17.432  0.00  0.00    +0.000 OA
ATOM     18  C   UNL     1       8.588   9.445  18.482  0.00  0.00    +0.000 A 
ATOM     19  N   UNL     1       8.704   8.184  18.850  0.00  0.00    +0.000 NA
BRANCH  18  20
ATOM     20  C   UNL     1       9.191  10.639  19.055  0.00  0.00    +0.000 A 
ATOM     21  C   UNL     1       9.624  10.641  20.379  0.00  0.00    +0.000 A 
ATOM     22  C   UNL     1      10.120  11.824  20.918  0.00  0.00    +0.000 A 
ATOM     23  C   UNL     1      10.174  12.962  20.120  0.00  0.00    +0.000 A 
ATOM     24  C   UNL     1       9.740  12.869  18.808  0.00  0.00    +0.000 A 
ATOM     25  N   UNL     1       9.255  11.737  18.259  0.00  0.00    +0.000 NA
ENDBRANCH  18  20
ENDBRANCH  14  15
ENDBRANCH   1  14
TORSDOF 6
ENDMDL
MODEL 3
REMARK VINA RESULT:      -7.4      2.448      2.938
REMARK  Name = 
REMARK  8 active torsions:
REMARK  status: ('A' for Active; 'I' for Inactive)
REMARK    1  A    between atoms: C_1  and  C_2
REMARK    2  A    between atoms: C_2  and  C_3
REMARK    3  A    between atoms: C_2  and  S_4
REMARK    4  A    between atoms: S_4  and  N_7
REMARK    5  A    between atoms: C_11  and  C_12
REMARK    6  A    between atoms: C_12  and  C_13
REMARK    7  A    between atoms: C_13  and  C_14
REMARK    8  A    between atoms: C_17  and  C_18
REMARK                            x       y       z     vdW  Elec       q    Type
REMARK                         _______ _______ _______ _____ _____    ______ ____
ROOT
ATOM      1  C   UNL     1       2.634   6.788  18.366  0.00  0.00    +0.000 C 
ENDROOT
BRANCH   1   6
ATOM      2  N   UNL     1       3.976   4.081  18.955  0.00  0.00    +0.000 NA
ATOM      3  C   UNL     1       5.435   4.406  19.008  0.00  0.00    +0.000 C 
ATOM      4  C   UNL     1       5.717   5.867  18.678  0.00  0.00    +0.000 C 
ATOM      5  C   UNL     1       4.984   6.379  17.441  0.00  0.00    +0.000 C 
ATOM      6  C   UNL     1       3.505   5.961  17.394  0.00  0.00    +0.000 C 
ATOM      7  C   UNL     1       3.400   4.444  17.622  0.00  0.00    +0.000 C 
BRANCH   2   8
ATOM      8  S   UNL     1       3.646   2.461  19.455  0.00  0.00    +0.000 S 
ATOM      9  O   UNL     1       4.709   2.043  20.349  0.00  0.00    +0.000 OA
ATOM     10  O   UNL     1       3.329   1.692  18.275  0.00  0.00    +0.000 OA
BRANCH   8  12
ATOM     11  C   UNL     1       2.276   3.785  21.396  0.00  0.00    +0.000 C 
ATOM     12  C   UNL     1       2.129   2.594  20.439  0.00  0.00    +0.000 C 
ATOM     13  C   UNL     1       0.870   2.769  19.598  0.00  0.00    +0.000 C 
ENDBRANCH   8  12
ENDBRANCH   2   8
ENDBRANCH   1   6
BRANCH   1  14
ATOM     14  C   UNL     1       2.724   8.298  18.111  0.00  0.00    +0.000 C 
BRANCH  14  15
ATOM     15  C   UNL     1       1.459   9.005  18.421  0.00  0.00    +0.000 A 
ATOM     16  N   UNL     1       1.178   9.464  19.647  0.00  0.00    +0.000 NA
ATOM     17  O   UNL     1      -0.087  10.038  19.482  0.00  0.00    +0.000 OA
ATOM     18  C   UNL     1      -0.429   9.858  18.171  0.00  0.00    +0.000 A 
ATOM     19  N   UNL     1       0.490   9.211  17.480  0.00  0.00    +0.000 NA
BRANCH  18  20
ATOM     20  C   UNL     1      -1.692  10.430  17.729  0.00  0.00    +0.000 A 
ATOM     21  C   UNL     1      -2.411  11.277  18.569  0.00  0.00    +0.000 A 
ATOM     22  C   UNL     1      -3.653  11.740  18.147  0.00  0.00    +0.000 A 
ATOM     23  C   UNL     1      -4.135  11.350  16.902  0.00  0.00    +0.000 A 
ATOM     24  C   UNL     1      -3.348  10.520  16.121  0.00  0.00    +0.000 A 
ATOM     25  N   UNL     1      -2.140  10.056  16.504  0.00  0.00    +0.000 NA
ENDBRANCH  18  20
ENDBRANCH  14  15
ENDBRANCH   1  14
TORSDOF 6
ENDMDL
MODEL 4
REMARK VINA RESULT:      -7.4      1.882      3.450
REMARK  Name = 
REMARK  8 active torsions:
REMARK  status: ('A' for Active; 'I' for Inactive)
REMARK    1  A    between atoms: C_1  and  C_2
REMARK    2  A    between atoms: C_2  and  C_3
REMARK    3  A    between atoms: C_2  and  S_4
REMARK    4  A    between atoms: S_4  and  N_7
REMARK    5  A    between atoms: C_11  and  C_12
REMARK    6  A    between atoms: C_12  and  C_13
REMARK    7  A    between atoms: C_13  and  C_14
REMARK    8  A    between atoms: C_17  and  C_18
REMARK                            x       y       z     vdW  Elec       q    Type
REMARK                         _______ _______ _______ _____ _____    ______ ____
ROOT
ATOM      1  C   UNL     1       2.116   6.288  18.091  0.00  0.00    +0.000 C 
ENDROOT
BRANCH   1   6
ATOM      2  N   UNL     1       4.527   4.460  17.521  0.00  0.00    +0.000 NA
ATOM      3  C   UNL     1       3.931   3.090  17.446  0.00  0.00    +0.000 C 
ATOM      4  C   UNL     1       2.437   3.089  17.754  0.00  0.00    +0.000 C 
ATOM      5  C   UNL     1       2.056   3.894  18.992  0.00  0.00    +0.000 C 
ATOM      6  C   UNL     1       2.747   5.266  19.063  0.00  0.00    +0.000 C 
ATOM      7  C   UNL     1       4.260   5.083  18.856  0.00  0.00    +0.000 C 
BRANCH   2   8
ATOM      8  S   UNL     1       6.187   4.480  17.046  0.00  0.00    +0.000 S 
ATOM      9  O   UNL     1       6.351   3.540  15.954  0.00  0.00    +0.000 OA
ATOM     10  O   UNL     1       6.988   4.370  18.243  0.00  0.00    +0.000 OA
BRANCH   8  12
ATOM     11  C   UNL     1       5.145   6.594  15.689  0.00  0.00    +0.000 C 
ATOM     12  C   UNL     1       6.443   6.145  16.375  0.00  0.00    +0.000 C 
ATOM     13  C   UNL     1       6.845   7.171  17.426  0.00  0.00    +0.000 C 
ENDBRANCH   8  12
ENDBRANCH   2   8
ENDBRANCH   1   6
BRANCH   1  14
ATOM     14  C   UNL     1       2.805   7.659  18.137  0.00  0.00    +0.000 C 
BRANCH  14  15
ATOM     15  C   UNL     1       1.909   8.730  18.633  0.00  0.00    +0.000 A 
ATOM     16  N   UNL     1       1.549   9.771  17.871  0.00  0.00    +0.000 NA
ATOM     17  O   UNL     1       0.729  10.514  18.727  0.00  0.00    +0.000 OA
ATOM     18  C   UNL     1       0.689   9.836  19.914  0.00  0.00    +0.000 A 
ATOM     19  N   UNL     1       1.416   8.736  19.907  0.00  0.00    +0.000 NA
BRANCH  18  20
ATOM     20  C   UNL     1      -0.160  10.382  20.962  0.00  0.00    +0.000 A 
ATOM     21  C   UNL     1      -0.910  11.534  20.729  0.00  0.00    +0.000 A 
ATOM     22  C   UNL     1      -1.648  12.074  21.779  0.00  0.00    +0.000 A 
ATOM     23  C   UNL     1      -1.618  11.448  23.020  0.00  0.00    +0.000 A 
ATOM     24  C   UNL     1      -0.861  10.297  23.161  0.00  0.00    +0.000 A 
ATOM     25  N   UNL     1      -0.138   9.750  22.163  0.00  0.00    +0.000 NA
ENDBRANCH  18  20
ENDBRANCH  14  15
ENDBRANCH   1  14
TORSDOF 6
ENDMDL
MODEL 5
REMARK VINA RESULT:      -7.3      0.947      1.442
REMARK  Name = 
REMARK  8 active torsions:
REMARK  status: ('A' for Active; 'I' for Inactive)
REMARK    1  A    between atoms: C_1  and  C_2
REMARK    2  A    between atoms: C_2  and  C_3
REMARK    3  A    between atoms: C_2  and  S_4
REMARK    4  A    between atoms: S_4  and  N_7
REMARK    5  A    between atoms: C_11  and  C_12
REMARK    6  A    between atoms: C_12  and  C_13
REMARK    7  A    between atoms: C_13  and  C_14
REMARK    8  A    between atoms: C_17  and  C_18
REMARK                            x       y       z     vdW  Elec       q    Type
REMARK                         _______ _______ _______ _____ _____    ______ ____
ROOT
ATOM      1  C   UNL     1       4.368   7.280  17.326  0.00  0.00    +0.000 C 
ENDROOT
BRANCH   1   6
ATOM      2  N   UNL     1       4.492   4.455  18.541  0.00  0.00    +0.000 NA
ATOM      3  C   UNL     1       5.888   4.349  19.067  0.00  0.00    +0.000 C 
ATOM      4  C   UNL     1       6.725   5.583  18.745  0.00  0.00    +0.000 C 
ATOM      5  C   UNL     1       6.612   6.051  17.297  0.00  0.00    +0.000 C 
ATOM      6  C   UNL     1       5.165   6.076  16.777  0.00  0.00    +0.000 C 
ATOM      7  C   UNL     1       4.498   4.721  17.068  0.00  0.00    +0.000 C 
BRANCH   2   8
ATOM      8  S   UNL     1       3.507   3.118  19.018  0.00  0.00    +0.000 S 
ATOM      9  O   UNL     1       4.093   2.534  20.210  0.00  0.00    +0.000 OA
ATOM     10  O   UNL     1       3.262   2.313  17.845  0.00  0.00    +0.000 OA
BRANCH   8  12
ATOM     11  C   UNL     1       0.853   2.776  19.498  0.00  0.00    +0.000 C 
ATOM     12  C   UNL     1       1.929   3.870  19.499  0.00  0.00    +0.000 C 
ATOM     13  C   UNL     1       1.967   4.546  20.864  0.00  0.00    +0.000 C 
ENDBRANCH   8  12
ENDBRANCH   2   8
ENDBRANCH   1   6
BRANCH   1  14
ATOM     14  C   UNL     1       2.932   6.914  17.726  0.00  0.00    +0.000 C 
BRANCH  14  15
ATOM     15  C   UNL     1       2.203   8.049  18.337  0.00  0.00    +0.000 A 
ATOM     16  N   UNL     1       1.987   9.197  17.682  0.00  0.00    +0.000 NA
ATOM     17  O   UNL     1       1.289   9.964  18.620  0.00  0.00    +0.000 OA
ATOM     18  C   UNL     1       1.163   9.191  19.740  0.00  0.00    +0.000 A 
ATOM     19  N   UNL     1       1.726   8.005  19.617  0.00  0.00    +0.000 NA
BRANCH  18  20
ATOM     20  C   UNL     1       0.408   9.750  20.852  0.00  0.00    +0.000 A 
ATOM     21  C   UNL     1      -0.254  10.968  20.709  0.00  0.00    +0.000 A 
ATOM     22  C   UNL     1      -0.897  11.512  21.816  0.00  0.00    +0.000 A 
ATOM     23  C   UNL     1      -0.864  10.826  23.025  0.00  0.00    +0.000 A 
ATOM     24  C   UNL     1      -0.199   9.612  23.076  0.00  0.00    +0.000 A 
ATOM     25  N   UNL     1       0.432   9.059  22.020  0.00  0.00    +0.000 NA
ENDBRANCH  18  20
ENDBRANCH  14  15
ENDBRANCH   1  14
TORSDOF 6
ENDMDL
MODEL 6
REMARK VINA RESULT:      -7.3      2.509      2.957
REMARK  Name = 
REMARK  8 active torsions:
REMARK  status: ('A' for Active; 'I' for Inactive)
REMARK    1  A    between atoms: C_1  and  C_2
REMARK    2  A    between atoms: C_2  and  C_3
REMARK    3  A    between atoms: C_2  and  S_4
REMARK    4  A    between atoms: S_4  and  N_7
REMARK    5  A    between atoms: C_11  and  C_12
REMARK    6  A    between atoms: C_12  and  C_13
REMARK    7  A    between atoms: C_13  and  C_14
REMARK    8  A    between atoms: C_17  and  C_18
REMARK                            x       y       z     vdW  Elec       q    Type
REMARK                         _______ _______ _______ _____ _____    ______ ____
ROOT
ATOM      1  C   UNL     1       2.937   7.195  18.462  0.00  0.00    +0.000 C 
ENDROOT
BRANCH   1   6
ATOM      2  N   UNL     1       3.727   4.277  19.045  0.00  0.00    +0.000 NA
ATOM      3  C   UNL     1       5.222   4.310  19.088  0.00  0.00    +0.000 C 
ATOM      4  C   UNL     1       5.782   5.689  18.754  0.00  0.00    +0.000 C 
ATOM      5  C   UNL     1       5.156   6.333  17.522  0.00  0.00    +0.000 C 
ATOM      6  C   UNL     1       3.623   6.214  17.485  0.00  0.00    +0.000 C 
ATOM      7  C   UNL     1       3.224   4.747  17.716  0.00  0.00    +0.000 C 
BRANCH   2   8
ATOM      8  S   UNL     1       3.090   2.754  19.550  0.00  0.00    +0.000 S 
ATOM      9  O   UNL     1       3.993   2.197  20.539  0.00  0.00    +0.000 OA
ATOM     10  O   UNL     1       2.743   2.008  18.364  0.00  0.00    +0.000 OA
BRANCH   8  12
ATOM     11  C   UNL     1       1.531   2.461  21.759  0.00  0.00    +0.000 C 
ATOM     12  C   UNL     1       1.543   3.172  20.399  0.00  0.00    +0.000 C 
ATOM     13  C   UNL     1       1.346   4.668  20.605  0.00  0.00    +0.000 C 
ENDBRANCH   8  12
ENDBRANCH   2   8
ENDBRANCH   1   6
BRANCH   1  14
ATOM     14  C   UNL     1       2.684   8.575  17.841  0.00  0.00    +0.000 C 
BRANCH  14  15
ATOM     15  C   UNL     1       1.397   9.168  18.274  0.00  0.00    +0.000 A 
ATOM     16  N   UNL     1       1.162   9.519  19.544  0.00  0.00    +0.000 NA
ATOM     17  O   UNL     1      -0.147  10.012  19.494  0.00  0.00    +0.000 OA
ATOM     18  C   UNL     1      -0.556   9.899  18.194  0.00  0.00    +0.000 A 
ATOM     19  N   UNL     1       0.359   9.369  17.407  0.00  0.00    +0.000 NA
BRANCH  18  20
ATOM     20  C   UNL     1      -1.879  10.410  17.869  0.00  0.00    +0.000 A 
ATOM     21  C   UNL     1      -2.484  10.072  16.660  0.00  0.00    +0.000 A 
ATOM     22  C   UNL     1      -3.714  10.644  16.345  0.00  0.00    +0.000 A 
ATOM     23  C   UNL     1      -4.301  11.525  17.246  0.00  0.00    +0.000 A 
ATOM     24  C   UNL     1      -3.641  11.793  18.434  0.00  0.00    +0.000 A 
ATOM     25  N   UNL     1      -2.450  11.254  18.766  0.00  0.00    +0.000 NA
ENDBRANCH  18  20
ENDBRANCH  14  15
ENDBRANCH   1  14
TORSDOF 6
ENDMDL
MODEL 7
REMARK VINA RESULT:      -7.3      1.247      1.528
REMARK  Name = 
REMARK  8 active torsions:
REMARK  status: ('A' for Active; 'I' for Inactive)
REMARK    1  A    between atoms: C_1  and  C_2
REMARK    2  A    between atoms: C_2  and  C_3
REMARK    3  A    between atoms: C_2  and  S_4
REMARK    4  A    between atoms: S_4  and  N_7
REMARK    5  A    between atoms: C_11  and  C_12
REMARK    6  A    between atoms: C_12  and  C_13
REMARK    7  A    between atoms: C_13  and  C_14
REMARK    8  A    between atoms: C_17  and  C_18
REMARK                            x       y       z     vdW  Elec       q    Type
REMARK                         _______ _______ _______ _____ _____    ______ ____
ROOT
ATOM      1  C   UNL     1       4.336   7.460  17.062  0.00  0.00    +0.000 C 
ENDROOT
BRANCH   1   6
ATOM      2  N   UNL     1       4.898   4.906  18.685  0.00  0.00    +0.000 NA
ATOM      3  C   UNL     1       6.344   5.022  19.051  0.00  0.00    +0.000 C 
ATOM      4  C   UNL     1       7.000   6.256  18.440  0.00  0.00    +0.000 C 
ATOM      5  C   UNL     1       6.689   6.459  16.961  0.00  0.00    +0.000 C 
ATOM      6  C   UNL     1       5.203   6.260  16.619  0.00  0.00    +0.000 C 
ATOM      7  C   UNL     1       4.725   4.918  17.198  0.00  0.00    +0.000 C 
BRANCH   2   8
ATOM      8  S   UNL     1       4.124   3.583  19.481  0.00  0.00    +0.000 S 
ATOM      9  O   UNL     1       3.094   4.123  20.347  0.00  0.00    +0.000 OA
ATOM     10  O   UNL     1       5.157   2.723  20.009  0.00  0.00    +0.000 OA
BRANCH   8  12
ATOM     11  C   UNL     1       3.634   1.188  18.290  0.00  0.00    +0.000 C 
ATOM     12  C   UNL     1       3.295   2.678  18.147  0.00  0.00    +0.000 C 
ATOM     13  C   UNL     1       1.782   2.856  18.138  0.00  0.00    +0.000 C 
ENDBRANCH   8  12
ENDBRANCH   2   8
ENDBRANCH   1   6
BRANCH   1  14
ATOM     14  C   UNL     1       2.966   7.037  17.609  0.00  0.00    +0.000 C 
BRANCH  14  15
ATOM     15  C   UNL     1       2.249   8.150  18.274  0.00  0.00    +0.000 A 
ATOM     16  N   UNL     1       1.985   9.305  17.650  0.00  0.00    +0.000 NA
ATOM     17  O   UNL     1       1.320  10.045  18.634  0.00  0.00    +0.000 OA
ATOM     18  C   UNL     1       1.260   9.251  19.745  0.00  0.00    +0.000 A 
ATOM     19  N   UNL     1       1.834   8.076  19.575  0.00  0.00    +0.000 NA
BRANCH  18  20
ATOM     20  C   UNL     1       0.550   9.779  20.901  0.00  0.00    +0.000 A 
ATOM     21  C   UNL     1       0.634   9.132  22.132  0.00  0.00    +0.000 A 
ATOM     22  C   UNL     1      -0.122   9.618  23.195  0.00  0.00    +0.000 A 
ATOM     23  C   UNL     1      -0.929  10.732  22.998  0.00  0.00    +0.000 A 
ATOM     24  C   UNL     1      -0.941  11.327  21.747  0.00  0.00    +0.000 A 
ATOM     25  N   UNL     1      -0.218  10.879  20.699  0.00  0.00    +0.000 NA
ENDBRANCH  18  20
ENDBRANCH  14  15
ENDBRANCH   1  14
TORSDOF 6
ENDMDL
MODEL 8
REMARK VINA RESULT:      -7.3      1.146      1.498
REMARK  Name = 
REMARK  8 active torsions:
REMARK  status: ('A' for Active; 'I' for Inactive)
REMARK    1  A    between atoms: C_1  and  C_2
REMARK    2  A    between atoms: C_2  and  C_3
REMARK    3  A    between atoms: C_2  and  S_4
REMARK    4  A    between atoms: S_4  and  N_7
REMARK    5  A    between atoms: C_11  and  C_12
REMARK    6  A    between atoms: C_12  and  C_13
REMARK    7  A    between atoms: C_13  and  C_14
REMARK    8  A    between atoms: C_17  and  C_18
REMARK                            x       y       z     vdW  Elec       q    Type
REMARK                         _______ _______ _______ _____ _____    ______ ____
ROOT
ATOM      1  C   UNL     1       2.376   6.385  18.052  0.00  0.00    +0.000 C 
ENDROOT
BRANCH   1   6
ATOM      2  N   UNL     1       3.944   3.873  18.894  0.00  0.00    +0.000 NA
ATOM      3  C   UNL     1       5.289   4.401  19.282  0.00  0.00    +0.000 C 
ATOM      4  C   UNL     1       5.415   5.902  19.043  0.00  0.00    +0.000 C 
ATOM      5  C   UNL     1       4.908   6.360  17.679  0.00  0.00    +0.000 C 
ATOM      6  C   UNL     1       3.556   5.738  17.292  0.00  0.00    +0.000 C 
ATOM      7  C   UNL     1       3.630   4.212  17.471  0.00  0.00    +0.000 C 
BRANCH   2   8
ATOM      8  S   UNL     1       3.757   2.201  19.286  0.00  0.00    +0.000 S 
ATOM      9  O   UNL     1       4.798   1.844  20.231  0.00  0.00    +0.000 OA
ATOM     10  O   UNL     1       3.604   1.475  18.047  0.00  0.00    +0.000 OA
BRANCH   8  12
ATOM     11  C   UNL     1       2.287   2.951  21.447  0.00  0.00    +0.000 C 
ATOM     12  C   UNL     1       2.172   2.119  20.163  0.00  0.00    +0.000 C 
ATOM     13  C   UNL     1       0.992   2.616  19.337  0.00  0.00    +0.000 C 
ENDBRANCH   8  12
ENDBRANCH   2   8
ENDBRANCH   1   6
BRANCH   1  14
ATOM     14  C   UNL     1       2.561   7.893  18.269  0.00  0.00    +0.000 C 
BRANCH  14  15
ATOM     15  C   UNL     1       1.780   8.403  19.420  0.00  0.00    +0.000 A 
ATOM     16  N   UNL     1       1.779   7.792  20.611  0.00  0.00    +0.000 NA
ATOM     17  O   UNL     1       0.923   8.595  21.372  0.00  0.00    +0.000 OA
ATOM     18  C   UNL     1       0.500   9.603  20.550  0.00  0.00    +0.000 A 
ATOM     19  N   UNL     1       0.992   9.516  19.329  0.00  0.00    +0.000 NA
BRANCH  18  20
ATOM     20  C   UNL     1      -0.363  10.618  21.134  0.00  0.00    +0.000 A 
ATOM     21  C   UNL     1      -0.561  10.664  22.512  0.00  0.00    +0.000 A 
ATOM     22  C   UNL     1      -1.456  11.596  23.028  0.00  0.00    +0.000 A 
ATOM     23  C   UNL     1      -2.119  12.453  22.157  0.00  0.00    +0.000 A 
ATOM     24  C   UNL     1      -1.851  12.354  20.802  0.00  0.00    +0.000 A 
ATOM     25  N   UNL     1      -0.988  11.461  20.273  0.00  0.00    +0.000 NA
ENDBRANCH  18  20
ENDBRANCH  14  15
ENDBRANCH   1  14
TORSDOF 6
ENDMDL
MODEL 9
REMARK VINA RESULT:      -7.3      1.392      1.878
REMARK  Name = 
REMARK  8 active torsions:
REMARK  status: ('A' for Active; 'I' for Inactive)
REMARK    1  A    between atoms: C_1  and  C_2
REMARK    2  A    between atoms: C_2  and  C_3
REMARK    3  A    between atoms: C_2  and  S_4
REMARK    4  A    between atoms: S_4  and  N_7
REMARK    5  A    between atoms: C_11  and  C_12
REMARK    6  A    between atoms: C_12  and  C_13
REMARK    7  A    between atoms: C_13  and  C_14
REMARK    8  A    between atoms: C_17  and  C_18
REMARK                            x       y       z     vdW  Elec       q    Type
REMARK                         _______ _______ _______ _____ _____    ______ ____
ROOT
ATOM      1  C   UNL     1       3.204   7.073  18.949  0.00  0.00    +0.000 C 
ENDROOT
BRANCH   1   6
ATOM      2  N   UNL     1       3.596   4.033  18.658  0.00  0.00    +0.000 NA
ATOM      3  C   UNL     1       5.082   3.863  18.627  0.00  0.00    +0.000 C 
ATOM      4  C   UNL     1       5.820   5.197  18.657  0.00  0.00    +0.000 C 
ATOM      5  C   UNL     1       5.267   6.237  17.687  0.00  0.00    +0.000 C 
ATOM      6  C   UNL     1       3.732   6.327  17.703  0.00  0.00    +0.000 C 
ATOM      7  C   UNL     1       3.139   4.918  17.540  0.00  0.00    +0.000 C 
BRANCH   2   8
ATOM      8  S   UNL     1       2.764   2.523  18.756  0.00  0.00    +0.000 S 
ATOM      9  O   UNL     1       3.747   1.486  19.007  0.00  0.00    +0.000 OA
ATOM     10  O   UNL     1       1.874   2.438  17.622  0.00  0.00    +0.000 OA
BRANCH   8  12
ATOM     11  C   UNL     1       2.656   2.649  21.471  0.00  0.00    +0.000 C 
ATOM     12  C   UNL     1       1.736   2.671  20.242  0.00  0.00    +0.000 C 
ATOM     13  C   UNL     1       0.881   3.931  20.270  0.00  0.00    +0.000 C 
ENDBRANCH   8  12
ENDBRANCH   2   8
ENDBRANCH   1   6
BRANCH   1  14
ATOM     14  C   UNL     1       2.112   8.098  18.613  0.00  0.00    +0.000 C 
BRANCH  14  15
ATOM     15  C   UNL     1       1.477   8.672  19.822  0.00  0.00    +0.000 A 
ATOM     16  N   UNL     1       1.333   7.973  20.955  0.00  0.00    +0.000 NA
ATOM     17  O   UNL     1       0.693   8.883  21.803  0.00  0.00    +0.000 OA
ATOM     18  C   UNL     1       0.520  10.032  21.082  0.00  0.00    +0.000 A 
ATOM     19  N   UNL     1       0.975   9.943  19.848  0.00  0.00    +0.000 NA
BRANCH  18  20
ATOM     20  C   UNL     1      -0.077  11.166  21.773  0.00  0.00    +0.000 A 
ATOM     21  C   UNL     1      -1.171  10.978  22.615  0.00  0.00    +0.000 A 
ATOM     22  C   UNL     1      -1.767  12.094  23.195  0.00  0.00    +0.000 A 
ATOM     23  C   UNL     1      -1.251  13.356  22.922  0.00  0.00    +0.000 A 
ATOM     24  C   UNL     1      -0.149  13.453  22.089  0.00  0.00    +0.000 A 
ATOM     25  N   UNL     1       0.450  12.389  21.513  0.00  0.00    +0.000 NA
ENDBRANCH  18  20
ENDBRANCH  14  15
ENDBRANCH   1  14
TORSDOF 6
ENDMDL
