MODEL 1
REMARK VINA RESULT:      -5.8      0.000      0.000
REMARK  Name = 
REMARK  2 active torsions:
REMARK  status: ('A' for Active; 'I' for Inactive)
REMARK    1  A    between atoms: C_2  and  C_5
REMARK    2  A    between atoms: N_3  and  O_4
REMARK                            x       y       z     vdW  Elec       q    Type
REMARK                         _______ _______ _______ _____ _____    ______ ____
ROOT
ATOM      1  C   UNL     1       5.650   4.643  17.253  0.00  0.00    +0.000 A 
ATOM      2  C   UNL     1       4.508   4.019  16.741  0.00  0.00    +0.000 A 
ATOM      3  C   UNL     1       3.364   3.892  17.536  0.00  0.00    +0.000 A 
ATOM      4  C   UNL     1       3.363   4.406  18.834  0.00  0.00    +0.000 A 
ATOM      5  I   UNL     1       1.670   4.207  20.024  0.00  0.00    +0.000 I 
ATOM      6  C   UNL     1       4.490   5.055  19.341  0.00  0.00    +0.000 A 
ATOM      7  C   UNL     1       5.635   5.175  18.550  0.00  0.00    +0.000 A 
ENDROOT
BRANCH   1   9
ATOM      8  O   UNL     1       7.961   4.386  16.789  0.00  0.00    +0.000 OA
ATOM      9  C   UNL     1       6.858   4.751  16.395  0.00  0.00    +0.000 C 
ATOM     10  N   UNL     1       6.664   5.327  15.158  0.00  0.00    +0.000 N 
ATOM     11  H   UNL     1       5.889   5.953  14.972  0.00  0.00    +0.000 HD
BRANCH  10  12
ATOM     12  O   UNL     1       7.842   5.555  14.408  0.00  0.00    +0.000 OA
ATOM     13  H   UNL     1       7.547   6.230  13.757  0.00  0.00    +0.000 HD
ENDBRANCH  10  12
ENDBRANCH   1   9
TORSDOF 2
ENDMDL
MODEL 2
REMARK VINA RESULT:      -5.8      0.095      1.462
REMARK  Name = 
REMARK  2 active torsions:
REMARK  status: ('A' for Active; 'I' for Inactive)
REMARK    1  A    between atoms: C_2  and  C_5
REMARK    2  A    between atoms: N_3  and  O_4
REMARK                            x       y       z     vdW  Elec       q    Type
REMARK                         _______ _______ _______ _____ _____    ______ ____
ROOT
ATOM      1  C   UNL     1       5.648   4.574  17.231  0.00  0.00    +0.000 A 
ATOM      2  C   UNL     1       5.687   4.985  18.568  0.00  0.00    +0.000 A 
ATOM      3  C   UNL     1       4.547   4.869  19.369  0.00  0.00    +0.000 A 
ATOM      4  C   UNL     1       3.377   4.326  18.834  0.00  0.00    +0.000 A 
ATOM      5  I   UNL     1       1.676   4.166  20.016  0.00  0.00    +0.000 I 
ATOM      6  C   UNL     1       3.341   3.888  17.509  0.00  0.00    +0.000 A 
ATOM      7  C   UNL     1       4.477   4.010  16.707  0.00  0.00    +0.000 A 
ENDROOT
BRANCH   1   9
ATOM      8  O   UNL     1       7.973   4.384  16.808  0.00  0.00    +0.000 OA
ATOM      9  C   UNL     1       6.868   4.722  16.396  0.00  0.00    +0.000 C 
ATOM     10  N   UNL     1       6.681   5.299  15.159  0.00  0.00    +0.000 N 
ATOM     11  H   UNL     1       5.893   5.905  14.962  0.00  0.00    +0.000 HD
BRANCH  10  12
ATOM     12  O   UNL     1       7.866   5.564  14.432  0.00  0.00    +0.000 OA
ATOM     13  H   UNL     1       8.097   6.471  14.733  0.00  0.00    +0.000 HD
ENDBRANCH  10  12
ENDBRANCH   1   9
TORSDOF 2
ENDMDL
MODEL 3
REMARK VINA RESULT:      -5.6      1.400      1.663
REMARK  Name = 
REMARK  2 active torsions:
REMARK  status: ('A' for Active; 'I' for Inactive)
REMARK    1  A    between atoms: C_2  and  C_5
REMARK    2  A    between atoms: N_3  and  O_4
REMARK                            x       y       z     vdW  Elec       q    Type
REMARK                         _______ _______ _______ _____ _____    ______ ____
ROOT
ATOM      1  C   UNL     1       4.515   5.307  16.900  0.00  0.00    +0.000 A 
ATOM      2  C   UNL     1       4.183   3.948  16.900  0.00  0.00    +0.000 A 
ATOM      3  C   UNL     1       3.250   3.456  17.819  0.00  0.00    +0.000 A 
ATOM      4  C   UNL     1       2.641   4.330  18.722  0.00  0.00    +0.000 A 
ATOM      5  I   UNL     1       1.265   3.600  20.098  0.00  0.00    +0.000 I 
ATOM      6  C   UNL     1       2.947   5.691  18.707  0.00  0.00    +0.000 A 
ATOM      7  C   UNL     1       3.884   6.182  17.795  0.00  0.00    +0.000 A 
ENDROOT
BRANCH   1   9
ATOM      8  O   UNL     1       5.293   6.769  15.203  0.00  0.00    +0.000 OA
ATOM      9  C   UNL     1       5.520   5.804  15.925  0.00  0.00    +0.000 C 
ATOM     10  N   UNL     1       6.695   5.085  15.857  0.00  0.00    +0.000 N 
ATOM     11  H   UNL     1       6.749   4.115  16.146  0.00  0.00    +0.000 HD
BRANCH  10  12
ATOM     12  O   UNL     1       7.584   5.479  14.829  0.00  0.00    +0.000 OA
ATOM     13  H   UNL     1       7.290   6.398  14.640  0.00  0.00    +0.000 HD
ENDBRANCH  10  12
ENDBRANCH   1   9
TORSDOF 2
ENDMDL
MODEL 4
REMARK VINA RESULT:      -5.6      1.384      2.001
REMARK  Name = 
REMARK  2 active torsions:
REMARK  status: ('A' for Active; 'I' for Inactive)
REMARK    1  A    between atoms: C_2  and  C_5
REMARK    2  A    between atoms: N_3  and  O_4
REMARK                            x       y       z     vdW  Elec       q    Type
REMARK                         _______ _______ _______ _____ _____    ______ ____
ROOT
ATOM      1  C   UNL     1       4.558   5.236  16.854  0.00  0.00    +0.000 A 
ATOM      2  C   UNL     1       3.900   6.131  17.705  0.00  0.00    +0.000 A 
ATOM      3  C   UNL     1       2.952   5.659  18.619  0.00  0.00    +0.000 A 
ATOM      4  C   UNL     1       2.679   4.292  18.689  0.00  0.00    +0.000 A 
ATOM      5  I   UNL     1       1.260   3.589  20.035  0.00  0.00    +0.000 I 
ATOM      6  C   UNL     1       3.352   3.391  17.863  0.00  0.00    +0.000 A 
ATOM      7  C   UNL     1       4.294   3.862  16.945  0.00  0.00    +0.000 A 
ENDROOT
BRANCH   1   9
ATOM      8  O   UNL     1       5.324   6.766  15.215  0.00  0.00    +0.000 OA
ATOM      9  C   UNL     1       5.549   5.762  15.882  0.00  0.00    +0.000 C 
ATOM     10  N   UNL     1       6.707   5.027  15.749  0.00  0.00    +0.000 N 
ATOM     11  H   UNL     1       6.750   4.042  15.987  0.00  0.00    +0.000 HD
BRANCH  10  12
ATOM     12  O   UNL     1       7.580   5.456  14.722  0.00  0.00    +0.000 OA
ATOM     13  H   UNL     1       7.175   6.308  14.446  0.00  0.00    +0.000 HD
ENDBRANCH  10  12
ENDBRANCH   1   9
TORSDOF 2
ENDMDL
MODEL 5
REMARK VINA RESULT:      -5.5      1.893      2.208
REMARK  Name = 
REMARK  2 active torsions:
REMARK  status: ('A' for Active; 'I' for Inactive)
REMARK    1  A    between atoms: C_2  and  C_5
REMARK    2  A    between atoms: N_3  and  O_4
REMARK                            x       y       z     vdW  Elec       q    Type
REMARK                         _______ _______ _______ _____ _____    ______ ____
ROOT
ATOM      1  C   UNL     1       5.609   4.957  15.599  0.00  0.00    +0.000 A 
ATOM      2  C   UNL     1       4.981   3.923  16.302  0.00  0.00    +0.000 A 
ATOM      3  C   UNL     1       4.143   4.218  17.381  0.00  0.00    +0.000 A 
ATOM      4  C   UNL     1       3.923   5.549  17.742  0.00  0.00    +0.000 A 
ATOM      5  I   UNL     1       2.689   5.993  19.355  0.00  0.00    +0.000 I 
ATOM      6  C   UNL     1       4.524   6.587  17.027  0.00  0.00    +0.000 A 
ATOM      7  C   UNL     1       5.367   6.291  15.954  0.00  0.00    +0.000 A 
ENDROOT
BRANCH   1   9
ATOM      8  O   UNL     1       7.519   5.270  14.229  0.00  0.00    +0.000 OA
ATOM      9  C   UNL     1       6.508   4.617  14.466  0.00  0.00    +0.000 C 
ATOM     10  N   UNL     1       6.107   3.558  13.680  0.00  0.00    +0.000 N 
ATOM     11  H   UNL     1       5.138   3.267  13.624  0.00  0.00    +0.000 HD
BRANCH  10  12
ATOM     12  O   UNL     1       6.892   3.334  12.525  0.00  0.00    +0.000 OA
ATOM     13  H   UNL     1       7.768   3.686  12.796  0.00  0.00    +0.000 HD
ENDBRANCH  10  12
ENDBRANCH   1   9
TORSDOF 2
ENDMDL
MODEL 6
REMARK VINA RESULT:      -5.5      1.888      2.397
REMARK  Name = 
REMARK  2 active torsions:
REMARK  status: ('A' for Active; 'I' for Inactive)
REMARK    1  A    between atoms: C_2  and  C_5
REMARK    2  A    between atoms: N_3  and  O_4
REMARK                            x       y       z     vdW  Elec       q    Type
REMARK                         _______ _______ _______ _____ _____    ______ ____
ROOT
ATOM      1  C   UNL     1       5.628   4.905  15.612  0.00  0.00    +0.000 A 
ATOM      2  C   UNL     1       5.398   6.243  15.951  0.00  0.00    +0.000 A 
ATOM      3  C   UNL     1       4.554   6.559  17.020  0.00  0.00    +0.000 A 
ATOM      4  C   UNL     1       3.956   5.534  17.757  0.00  0.00    +0.000 A 
ATOM      5  I   UNL     1       2.689   6.000  19.337  0.00  0.00    +0.000 I 
ATOM      6  C   UNL     1       4.204   4.197  17.442  0.00  0.00    +0.000 A 
ATOM      7  C   UNL     1       5.042   3.881  16.369  0.00  0.00    +0.000 A 
ENDROOT
BRANCH   1   9
ATOM      8  O   UNL     1       7.516   5.264  14.225  0.00  0.00    +0.000 OA
ATOM      9  C   UNL     1       6.516   4.594  14.463  0.00  0.00    +0.000 C 
ATOM     10  N   UNL     1       6.120   3.542  13.666  0.00  0.00    +0.000 N 
ATOM     11  H   UNL     1       5.154   3.238  13.617  0.00  0.00    +0.000 HD
BRANCH  10  12
ATOM     12  O   UNL     1       6.893   3.346  12.498  0.00  0.00    +0.000 OA
ATOM     13  H   UNL     1       7.786   3.160  12.867  0.00  0.00    +0.000 HD
ENDBRANCH  10  12
ENDBRANCH   1   9
TORSDOF 2
ENDMDL
MODEL 7
REMARK VINA RESULT:      -5.5      1.313      1.512
REMARK  Name = 
REMARK  2 active torsions:
REMARK  status: ('A' for Active; 'I' for Inactive)
REMARK    1  A    between atoms: C_2  and  C_5
REMARK    2  A    between atoms: N_3  and  O_4
REMARK                            x       y       z     vdW  Elec       q    Type
REMARK                         _______ _______ _______ _____ _____    ______ ____
ROOT
ATOM      1  C   UNL     1       4.971   4.990  16.421  0.00  0.00    +0.000 A 
ATOM      2  C   UNL     1       4.453   3.772  16.875  0.00  0.00    +0.000 A 
ATOM      3  C   UNL     1       3.614   3.742  17.994  0.00  0.00    +0.000 A 
ATOM      4  C   UNL     1       3.284   4.933  18.643  0.00  0.00    +0.000 A 
ATOM      5  I   UNL     1       2.050   4.891  20.315  0.00  0.00    +0.000 I 
ATOM      6  C   UNL     1       3.774   6.154  18.178  0.00  0.00    +0.000 A 
ATOM      7  C   UNL     1       4.618   6.184  17.065  0.00  0.00    +0.000 A 
ENDROOT
BRANCH   1   9
ATOM      8  O   UNL     1       5.569   4.422  14.198  0.00  0.00    +0.000 OA
ATOM      9  C   UNL     1       5.872   4.995  15.240  0.00  0.00    +0.000 C 
ATOM     10  N   UNL     1       7.077   5.642  15.408  0.00  0.00    +0.000 N 
ATOM     11  H   UNL     1       7.491   5.779  16.323  0.00  0.00    +0.000 HD
BRANCH  10  12
ATOM     12  O   UNL     1       7.983   5.519  14.328  0.00  0.00    +0.000 OA
ATOM     13  H   UNL     1       7.519   4.884  13.738  0.00  0.00    +0.000 HD
ENDBRANCH  10  12
ENDBRANCH   1   9
TORSDOF 2
ENDMDL
MODEL 8
REMARK VINA RESULT:      -5.5      1.310      1.850
REMARK  Name = 
REMARK  2 active torsions:
REMARK  status: ('A' for Active; 'I' for Inactive)
REMARK    1  A    between atoms: C_2  and  C_5
REMARK    2  A    between atoms: N_3  and  O_4
REMARK                            x       y       z     vdW  Elec       q    Type
REMARK                         _______ _______ _______ _____ _____    ______ ____
ROOT
ATOM      1  C   UNL     1       4.972   4.939  16.442  0.00  0.00    +0.000 A 
ATOM      2  C   UNL     1       4.605   6.140  17.058  0.00  0.00    +0.000 A 
ATOM      3  C   UNL     1       3.763   6.126  18.175  0.00  0.00    +0.000 A 
ATOM      4  C   UNL     1       3.305   4.908  18.680  0.00  0.00    +0.000 A 
ATOM      5  I   UNL     1       2.042   4.882  20.330  0.00  0.00    +0.000 I 
ATOM      6  C   UNL     1       3.691   3.704  18.087  0.00  0.00    +0.000 A 
ATOM      7  C   UNL     1       4.526   3.719  16.968  0.00  0.00    +0.000 A 
ENDROOT
BRANCH   1   9
ATOM      8  O   UNL     1       5.526   4.460  14.187  0.00  0.00    +0.000 OA
ATOM      9  C   UNL     1       5.855   4.981  15.248  0.00  0.00    +0.000 C 
ATOM     10  N   UNL     1       7.073   5.599  15.426  0.00  0.00    +0.000 N 
ATOM     11  H   UNL     1       7.503   5.689  16.339  0.00  0.00    +0.000 HD
BRANCH  10  12
ATOM     12  O   UNL     1       7.961   5.509  14.328  0.00  0.00    +0.000 OA
ATOM     13  H   UNL     1       8.773   5.143  14.745  0.00  0.00    +0.000 HD
ENDBRANCH  10  12
ENDBRANCH   1   9
TORSDOF 2
ENDMDL
MODEL 9
REMARK VINA RESULT:      -5.4      1.326      1.632
REMARK  Name = 
REMARK  2 active torsions:
REMARK  status: ('A' for Active; 'I' for Inactive)
REMARK    1  A    between atoms: C_2  and  C_5
REMARK    2  A    between atoms: N_3  and  O_4
REMARK                            x       y       z     vdW  Elec       q    Type
REMARK                         _______ _______ _______ _____ _____    ______ ____
ROOT
ATOM      1  C   UNL     1       5.687   5.708  17.326  0.00  0.00    +0.000 A 
ATOM      2  C   UNL     1       5.850   4.796  18.374  0.00  0.00    +0.000 A 
ATOM      3  C   UNL     1       4.797   4.552  19.261  0.00  0.00    +0.000 A 
ATOM      4  C   UNL     1       3.578   5.210  19.085  0.00  0.00    +0.000 A 
ATOM      5  I   UNL     1       2.014   4.863  20.410  0.00  0.00    +0.000 I 
ATOM      6  C   UNL     1       3.399   6.100  18.024  0.00  0.00    +0.000 A 
ATOM      7  C   UNL     1       4.454   6.348  17.142  0.00  0.00    +0.000 A 
ENDROOT
BRANCH   1   9
ATOM      8  O   UNL     1       7.688   6.792  16.665  0.00  0.00    +0.000 OA
ATOM      9  C   UNL     1       6.825   5.960  16.406  0.00  0.00    +0.000 C 
ATOM     10  N   UNL     1       6.820   5.237  15.233  0.00  0.00    +0.000 N 
ATOM     11  H   UNL     1       5.967   4.853  14.841  0.00  0.00    +0.000 HD
BRANCH  10  12
ATOM     12  O   UNL     1       7.828   5.587  14.303  0.00  0.00    +0.000 OA
ATOM     13  H   UNL     1       7.328   5.620  13.457  0.00  0.00    +0.000 HD
ENDBRANCH  10  12
ENDBRANCH   1   9
TORSDOF 2
ENDMDL
