MODEL 1
REMARK VINA RESULT:      -9.1      0.000      0.000
REMARK  Name = 
REMARK  8 active torsions:
REMARK  status: ('A' for Active; 'I' for Inactive)
REMARK    1  A    between atoms: C_2  and  C_24
REMARK    2  A    between atoms: N_3  and  C_4
REMARK    3  A    between atoms: C_9  and  C_10
REMARK    4  A    between atoms: N_12  and  CA_13
REMARK    5  A    between atoms: CA_13  and  CB_14
REMARK    6  A    between atoms: CA_13  and  C_21
REMARK    7  A    between atoms: CB_14  and  CG_15
REMARK    8  A    between atoms: C_21  and  OXT_23
REMARK                            x       y       z     vdW  Elec       q    Type
REMARK                         _______ _______ _______ _____ _____    ______ ____
ROOT
ATOM      1  C   UNK A   0       2.404   4.375  18.771  0.00  0.00    +0.000 A 
ATOM      2  C   UNK A   0       1.357   3.498  19.087  0.00  0.00    +0.000 A 
ATOM      3  C   UNK A   0       1.405   2.161  18.688  0.00  0.00    +0.000 A 
ATOM      4  C   UNK A   0       2.507   1.683  17.985  0.00  0.00    +0.000 A 
ATOM      5  C   UNK A   0       3.564   2.535  17.689  0.00  0.00    +0.000 A 
ATOM      6  C   UNK A   0       3.528   3.886  18.077  0.00  0.00    +0.000 A 
ENDROOT
BRANCH   1   9
ATOM      7  O   UNK A   0       2.379   5.681  21.348  0.00  0.00    +0.000 OA
ATOM      8  C   UNK A   0       2.079   6.276  20.320  0.00  0.00    +0.000 C 
ATOM      9  N   UNK A   0       2.237   5.750  19.047  0.00  0.00    +0.000 N 
ATOM     10  H   UNK A   0       2.452   6.414  18.309  0.00  0.00    +0.000 HD
BRANCH   8  11
ATOM     11  C   UNK A   0       1.618   7.641  20.308  0.00  0.00    +0.000 A 
ATOM     12  C   UNK A   0       1.058   8.365  21.345  0.00  0.00    +0.000 A 
ATOM     13  C   UNK A   0       0.804   9.681  20.886  0.00  0.00    +0.000 A 
ATOM     14  C   UNK A   0       0.260  10.820  21.495  0.00  0.00    +0.000 A 
ATOM     15  C   UNK A   0       0.017  11.943  20.709  0.00  0.00    +0.000 A 
ATOM     16  F   UNK A   0      -0.549  13.019  21.270  0.00  0.00    +0.000 F 
ATOM     17  C   UNK A   0       0.311  11.956  19.350  0.00  0.00    +0.000 A 
ATOM     18  C   UNK A   0       0.902  10.843  18.734  0.00  0.00    +0.000 A 
ATOM     19  C   UNK A   0       1.149   9.720  19.534  0.00  0.00    +0.000 A 
ATOM     20  N   UNK A   0       1.724   8.501  19.233  0.00  0.00    +0.000 N 
ATOM     21  H   UNK A   0       2.126   8.250  18.339  0.00  0.00    +0.000 HD
ENDBRANCH   8  11
ENDBRANCH   1   9
BRANCH   6  22
ATOM     22  C   UNK A   0       4.762   4.686  17.826  0.00  0.00    +0.000 C 
ATOM     23  O   UNK A   0       4.758   5.913  17.840  0.00  0.00    +0.000 OA
ATOM     24  N   PHE A   1       5.886   3.998  17.439  0.00  0.00    +0.000 N 
ATOM     25  H   PHE A   1       5.754   3.057  17.079  0.00  0.00    +0.000 HD
BRANCH  24  26
ATOM     26  CA  PHE A   1       7.145   4.673  17.105  0.00  0.00    +0.000 C 
BRANCH  26  27
ATOM     27  C   PHE A   1       7.635   5.475  18.318  0.00  0.00    +0.000 C 
ATOM     28  O   PHE A   1       7.942   4.993  19.398  0.00  0.00    +0.000 OA
BRANCH  27  29
ATOM     29  OXT PHE A   1       7.637   6.816  18.100  0.00  0.00    +0.000 OA
ATOM     30  HXT PHE A   1       8.531   7.153  17.851  0.00  0.00    +0.000 HD
ENDBRANCH  27  29
ENDBRANCH  26  27
BRANCH  26  31
ATOM     31  CB  PHE A   1       6.978   5.579  15.879  0.00  0.00    +0.000 C 
BRANCH  31  32
ATOM     32  CG  PHE A   1       6.883   4.877  14.537  0.00  0.00    +0.000 A 
ATOM     33  CD1 PHE A   1       5.836   3.970  14.329  0.00  0.00    +0.000 A 
ATOM     34  CE1 PHE A   1       5.621   3.406  13.070  0.00  0.00    +0.000 A 
ATOM     35  CZ  PHE A   1       6.463   3.713  12.008  0.00  0.00    +0.000 A 
ATOM     36  CE2 PHE A   1       7.517   4.599  12.202  0.00  0.00    +0.000 A 
ATOM     37  CD2 PHE A   1       7.722   5.184  13.456  0.00  0.00    +0.000 A 
ENDBRANCH  31  32
ENDBRANCH  26  31
ENDBRANCH  24  26
ENDBRANCH   6  22
TORSDOF 8
ENDMDL
MODEL 2
REMARK VINA RESULT:      -9.1      0.649      1.118
REMARK  Name = 
REMARK  8 active torsions:
REMARK  status: ('A' for Active; 'I' for Inactive)
REMARK    1  A    between atoms: C_2  and  C_24
REMARK    2  A    between atoms: N_3  and  C_4
REMARK    3  A    between atoms: C_9  and  C_10
REMARK    4  A    between atoms: N_12  and  CA_13
REMARK    5  A    between atoms: CA_13  and  CB_14
REMARK    6  A    between atoms: CA_13  and  C_21
REMARK    7  A    between atoms: CB_14  and  CG_15
REMARK    8  A    between atoms: C_21  and  OXT_23
REMARK                            x       y       z     vdW  Elec       q    Type
REMARK                         _______ _______ _______ _____ _____    ______ ____
ROOT
ATOM      1  C   UNK A   0       2.310   4.524  18.670  0.00  0.00    +0.000 A 
ATOM      2  C   UNK A   0       1.246   3.681  19.020  0.00  0.00    +0.000 A 
ATOM      3  C   UNK A   0       1.254   2.335  18.648  0.00  0.00    +0.000 A 
ATOM      4  C   UNK A   0       2.333   1.815  17.939  0.00  0.00    +0.000 A 
ATOM      5  C   UNK A   0       3.407   2.634  17.610  0.00  0.00    +0.000 A 
ATOM      6  C   UNK A   0       3.411   3.992  17.971  0.00  0.00    +0.000 A 
ENDROOT
BRANCH   1   9
ATOM      7  O   UNK A   0       2.236   5.870  21.226  0.00  0.00    +0.000 OA
ATOM      8  C   UNK A   0       1.995   6.459  20.179  0.00  0.00    +0.000 C 
ATOM      9  N   UNK A   0       2.181   5.908  18.921  0.00  0.00    +0.000 N 
ATOM     10  H   UNK A   0       2.446   6.553  18.182  0.00  0.00    +0.000 HD
BRANCH   8  11
ATOM     11  C   UNK A   0       1.584   7.839  20.131  0.00  0.00    +0.000 A 
ATOM     12  C   UNK A   0       1.691   8.728  19.076  0.00  0.00    +0.000 A 
ATOM     13  C   UNK A   0       1.112   9.960  19.469  0.00  0.00    +0.000 A 
ATOM     14  C   UNK A   0       0.939  11.189  18.816  0.00  0.00    +0.000 A 
ATOM     15  C   UNK A   0       0.442  12.264  19.546  0.00  0.00    +0.000 A 
ATOM     16  F   UNK A   0       0.320  13.456  18.946  0.00  0.00    +0.000 F 
ATOM     17  C   UNK A   0       0.108  12.139  20.890  0.00  0.00    +0.000 A 
ATOM     18  C   UNK A   0       0.226  10.905  21.545  0.00  0.00    +0.000 A 
ATOM     19  C   UNK A   0       0.722   9.826  20.802  0.00  0.00    +0.000 A 
ATOM     20  N   UNK A   0       0.934   8.506  21.151  0.00  0.00    +0.000 N 
ATOM     21  H   UNK A   0       0.693   8.091  22.041  0.00  0.00    +0.000 HD
ENDBRANCH   8  11
ENDBRANCH   1   9
BRANCH   6  22
ATOM     22  C   UNK A   0       4.660   4.756  17.685  0.00  0.00    +0.000 C 
ATOM     23  O   UNK A   0       4.665   5.977  17.560  0.00  0.00    +0.000 OA
ATOM     24  N   PHE A   1       5.794   4.026  17.429  0.00  0.00    +0.000 N 
ATOM     25  H   PHE A   1       5.672   3.050  17.173  0.00  0.00    +0.000 HD
BRANCH  24  26
ATOM     26  CA  PHE A   1       7.072   4.655  17.076  0.00  0.00    +0.000 C 
BRANCH  26  27
ATOM     27  C   PHE A   1       7.603   5.447  18.279  0.00  0.00    +0.000 C 
ATOM     28  O   PHE A   1       7.930   4.958  19.350  0.00  0.00    +0.000 OA
BRANCH  27  29
ATOM     29  OXT PHE A   1       7.618   6.788  18.065  0.00  0.00    +0.000 OA
ATOM     30  HXT PHE A   1       6.887   7.080  17.469  0.00  0.00    +0.000 HD
ENDBRANCH  27  29
ENDBRANCH  26  27
BRANCH  26  31
ATOM     31  CB  PHE A   1       6.922   5.560  15.847  0.00  0.00    +0.000 C 
BRANCH  31  32
ATOM     32  CG  PHE A   1       6.828   4.854  14.507  0.00  0.00    +0.000 A 
ATOM     33  CD1 PHE A   1       5.727   4.023  14.264  0.00  0.00    +0.000 A 
ATOM     34  CE1 PHE A   1       5.520   3.465  13.001  0.00  0.00    +0.000 A 
ATOM     35  CZ  PHE A   1       6.422   3.702  11.970  0.00  0.00    +0.000 A 
ATOM     36  CE2 PHE A   1       7.529   4.512  12.199  0.00  0.00    +0.000 A 
ATOM     37  CD2 PHE A   1       7.727   5.091  13.456  0.00  0.00    +0.000 A 
ENDBRANCH  31  32
ENDBRANCH  26  31
ENDBRANCH  24  26
ENDBRANCH   6  22
TORSDOF 8
ENDMDL
MODEL 3
REMARK VINA RESULT:      -8.8      4.152      6.851
REMARK  Name = 
REMARK  8 active torsions:
REMARK  status: ('A' for Active; 'I' for Inactive)
REMARK    1  A    between atoms: C_2  and  C_24
REMARK    2  A    between atoms: N_3  and  C_4
REMARK    3  A    between atoms: C_9  and  C_10
REMARK    4  A    between atoms: N_12  and  CA_13
REMARK    5  A    between atoms: CA_13  and  CB_14
REMARK    6  A    between atoms: CA_13  and  C_21
REMARK    7  A    between atoms: CB_14  and  CG_15
REMARK    8  A    between atoms: C_21  and  OXT_23
REMARK                            x       y       z     vdW  Elec       q    Type
REMARK                         _______ _______ _______ _____ _____    ______ ____
ROOT
ATOM      1  C   UNK A   0       5.947   3.971  14.530  0.00  0.00    +0.000 A 
ATOM      2  C   UNK A   0       5.606   3.487  13.260  0.00  0.00    +0.000 A 
ATOM      3  C   UNK A   0       6.350   3.853  12.136  0.00  0.00    +0.000 A 
ATOM      4  C   UNK A   0       7.453   4.692  12.274  0.00  0.00    +0.000 A 
ATOM      5  C   UNK A   0       7.818   5.156  13.533  0.00  0.00    +0.000 A 
ATOM      6  C   UNK A   0       7.075   4.802  14.672  0.00  0.00    +0.000 A 
ENDROOT
BRANCH   1   9
ATOM      7  O   UNK A   0       4.428   5.872  16.088  0.00  0.00    +0.000 OA
ATOM      8  C   UNK A   0       4.501   4.691  16.404  0.00  0.00    +0.000 C 
ATOM      9  N   UNK A   0       5.071   3.710  15.606  0.00  0.00    +0.000 N 
ATOM     10  H   UNK A   0       4.665   2.782  15.676  0.00  0.00    +0.000 HD
BRANCH   8  11
ATOM     11  C   UNK A   0       3.908   4.161  17.605  0.00  0.00    +0.000 A 
ATOM     12  C   UNK A   0       2.627   4.358  18.086  0.00  0.00    +0.000 A 
ATOM     13  C   UNK A   0       2.474   3.602  19.275  0.00  0.00    +0.000 A 
ATOM     14  C   UNK A   0       1.407   3.423  20.166  0.00  0.00    +0.000 A 
ATOM     15  C   UNK A   0       1.632   2.705  21.337  0.00  0.00    +0.000 A 
ATOM     16  F   UNK A   0       0.633   2.571  22.219  0.00  0.00    +0.000 F 
ATOM     17  C   UNK A   0       2.879   2.162  21.628  0.00  0.00    +0.000 A 
ATOM     18  C   UNK A   0       3.944   2.288  20.726  0.00  0.00    +0.000 A 
ATOM     19  C   UNK A   0       3.707   3.006  19.546  0.00  0.00    +0.000 A 
ATOM     20  N   UNK A   0       4.530   3.285  18.473  0.00  0.00    +0.000 N 
ATOM     21  H   UNK A   0       5.473   2.938  18.355  0.00  0.00    +0.000 HD
ENDBRANCH   8  11
ENDBRANCH   1   9
BRANCH   6  22
ATOM     22  C   UNK A   0       7.619   5.246  15.989  0.00  0.00    +0.000 C 
ATOM     23  O   UNK A   0       8.094   4.456  16.798  0.00  0.00    +0.000 OA
ATOM     24  N   PHE A   1       7.443   6.566  16.325  0.00  0.00    +0.000 N 
ATOM     25  H   PHE A   1       6.733   7.085  15.816  0.00  0.00    +0.000 HD
BRANCH  24  26
ATOM     26  CA  PHE A   1       7.878   7.114  17.614  0.00  0.00    +0.000 C 
BRANCH  26  27
ATOM     27  C   PHE A   1       7.441   6.172  18.745  0.00  0.00    +0.000 C 
ATOM     28  O   PHE A   1       8.201   5.605  19.517  0.00  0.00    +0.000 OA
BRANCH  27  29
ATOM     29  OXT PHE A   1       6.098   5.968  18.775  0.00  0.00    +0.000 OA
ATOM     30  HXT PHE A   1       5.862   5.015  18.669  0.00  0.00    +0.000 HD
ENDBRANCH  27  29
ENDBRANCH  26  27
BRANCH  26  31
ATOM     31  CB  PHE A   1       7.320   8.526  17.831  0.00  0.00    +0.000 C 
BRANCH  31  32
ATOM     32  CG  PHE A   1       8.330   9.589  18.224  0.00  0.00    +0.000 A 
ATOM     33  CD1 PHE A   1       8.362  10.784  17.494  0.00  0.00    +0.000 A 
ATOM     34  CE1 PHE A   1       9.170  11.847  17.902  0.00  0.00    +0.000 A 
ATOM     35  CZ  PHE A   1       9.981  11.724  19.024  0.00  0.00    +0.000 A 
ATOM     36  CE2 PHE A   1       9.973  10.538  19.751  0.00  0.00    +0.000 A 
ATOM     37  CD2 PHE A   1       9.147   9.480  19.359  0.00  0.00    +0.000 A 
ENDBRANCH  31  32
ENDBRANCH  26  31
ENDBRANCH  24  26
ENDBRANCH   6  22
TORSDOF 8
ENDMDL
MODEL 4
REMARK VINA RESULT:      -8.7      0.185      1.008
REMARK  Name = 
REMARK  8 active torsions:
REMARK  status: ('A' for Active; 'I' for Inactive)
REMARK    1  A    between atoms: C_2  and  C_24
REMARK    2  A    between atoms: N_3  and  C_4
REMARK    3  A    between atoms: C_9  and  C_10
REMARK    4  A    between atoms: N_12  and  CA_13
REMARK    5  A    between atoms: CA_13  and  CB_14
REMARK    6  A    between atoms: CA_13  and  C_21
REMARK    7  A    between atoms: CB_14  and  CG_15
REMARK    8  A    between atoms: C_21  and  OXT_23
REMARK                            x       y       z     vdW  Elec       q    Type
REMARK                         _______ _______ _______ _____ _____    ______ ____
ROOT
ATOM      1  C   UNK A   0       2.380   4.475  18.739  0.00  0.00    +0.000 A 
ATOM      2  C   UNK A   0       1.335   3.589  19.036  0.00  0.00    +0.000 A 
ATOM      3  C   UNK A   0       1.399   2.255  18.629  0.00  0.00    +0.000 A 
ATOM      4  C   UNK A   0       2.513   1.789  17.938  0.00  0.00    +0.000 A 
ATOM      5  C   UNK A   0       3.568   2.652  17.662  0.00  0.00    +0.000 A 
ATOM      6  C   UNK A   0       3.517   3.999  18.058  0.00  0.00    +0.000 A 
ENDROOT
BRANCH   1   9
ATOM      7  O   UNK A   0       2.315   5.765  21.324  0.00  0.00    +0.000 OA
ATOM      8  C   UNK A   0       2.021   6.364  20.296  0.00  0.00    +0.000 C 
ATOM      9  N   UNK A   0       2.198   5.847  19.022  0.00  0.00    +0.000 N 
ATOM     10  H   UNK A   0       2.416   6.517  18.291  0.00  0.00    +0.000 HD
BRANCH   8  11
ATOM     11  C   UNK A   0       1.550   7.725  20.288  0.00  0.00    +0.000 A 
ATOM     12  C   UNK A   0       0.977   8.440  21.324  0.00  0.00    +0.000 A 
ATOM     13  C   UNK A   0       0.716   9.756  20.869  0.00  0.00    +0.000 A 
ATOM     14  C   UNK A   0       0.158  10.888  21.480  0.00  0.00    +0.000 A 
ATOM     15  C   UNK A   0      -0.088  12.012  20.697  0.00  0.00    +0.000 A 
ATOM     16  F   UNK A   0      -0.666  13.081  21.259  0.00  0.00    +0.000 F 
ATOM     17  C   UNK A   0       0.215  12.034  19.340  0.00  0.00    +0.000 A 
ATOM     18  C   UNK A   0       0.820  10.929  18.724  0.00  0.00    +0.000 A 
ATOM     19  C   UNK A   0       1.070   9.804  19.520  0.00  0.00    +0.000 A 
ATOM     20  N   UNK A   0       1.657   8.591  19.217  0.00  0.00    +0.000 N 
ATOM     21  H   UNK A   0       2.068   8.348  18.325  0.00  0.00    +0.000 HD
ENDBRANCH   8  11
ENDBRANCH   1   9
BRANCH   6  22
ATOM     22  C   UNK A   0       4.747   4.810  17.828  0.00  0.00    +0.000 C 
ATOM     23  O   UNK A   0       4.749   6.034  17.921  0.00  0.00    +0.000 OA
ATOM     24  N   PHE A   1       5.859   4.146  17.371  0.00  0.00    +0.000 N 
ATOM     25  H   PHE A   1       5.715   3.229  16.956  0.00  0.00    +0.000 HD
BRANCH  24  26
ATOM     26  CA  PHE A   1       7.112   4.836  17.050  0.00  0.00    +0.000 C 
BRANCH  26  27
ATOM     27  C   PHE A   1       7.575   5.650  18.267  0.00  0.00    +0.000 C 
ATOM     28  O   PHE A   1       8.021   6.787  18.219  0.00  0.00    +0.000 OA
BRANCH  27  29
ATOM     29  OXT PHE A   1       7.503   4.953  19.430  0.00  0.00    +0.000 OA
ATOM     30  HXT PHE A   1       6.607   5.002  19.841  0.00  0.00    +0.000 HD
ENDBRANCH  27  29
ENDBRANCH  26  27
BRANCH  26  31
ATOM     31  CB  PHE A   1       6.948   5.736  15.819  0.00  0.00    +0.000 C 
BRANCH  31  32
ATOM     32  CG  PHE A   1       6.679   5.026  14.505  0.00  0.00    +0.000 A 
ATOM     33  CD1 PHE A   1       7.640   5.109  13.490  0.00  0.00    +0.000 A 
ATOM     34  CE1 PHE A   1       7.507   4.361  12.319  0.00  0.00    +0.000 A 
ATOM     35  CZ  PHE A   1       6.400   3.542  12.128  0.00  0.00    +0.000 A 
ATOM     36  CE2 PHE A   1       5.428   3.461  13.120  0.00  0.00    +0.000 A 
ATOM     37  CD2 PHE A   1       5.570   4.191  14.304  0.00  0.00    +0.000 A 
ENDBRANCH  31  32
ENDBRANCH  26  31
ENDBRANCH  24  26
ENDBRANCH   6  22
TORSDOF 8
ENDMDL
MODEL 5
REMARK VINA RESULT:      -8.7      0.688      1.517
REMARK  Name = 
REMARK  8 active torsions:
REMARK  status: ('A' for Active; 'I' for Inactive)
REMARK    1  A    between atoms: C_2  and  C_24
REMARK    2  A    between atoms: N_3  and  C_4
REMARK    3  A    between atoms: C_9  and  C_10
REMARK    4  A    between atoms: N_12  and  CA_13
REMARK    5  A    between atoms: CA_13  and  CB_14
REMARK    6  A    between atoms: CA_13  and  C_21
REMARK    7  A    between atoms: CB_14  and  CG_15
REMARK    8  A    between atoms: C_21  and  OXT_23
REMARK                            x       y       z     vdW  Elec       q    Type
REMARK                         _______ _______ _______ _____ _____    ______ ____
ROOT
ATOM      1  C   UNK A   0       2.307   4.496  18.747  0.00  0.00    +0.000 A 
ATOM      2  C   UNK A   0       1.308   3.635  19.221  0.00  0.00    +0.000 A 
ATOM      3  C   UNK A   0       1.321   2.280  18.886  0.00  0.00    +0.000 A 
ATOM      4  C   UNK A   0       2.342   1.768  18.090  0.00  0.00    +0.000 A 
ATOM      5  C   UNK A   0       3.354   2.606  17.637  0.00  0.00    +0.000 A 
ATOM      6  C   UNK A   0       3.351   3.974  17.959  0.00  0.00    +0.000 A 
ENDROOT
BRANCH   1   9
ATOM      7  O   UNK A   0       2.332   5.902  21.271  0.00  0.00    +0.000 OA
ATOM      8  C   UNK A   0       2.027   6.460  20.224  0.00  0.00    +0.000 C 
ATOM      9  N   UNK A   0       2.162   5.883  18.971  0.00  0.00    +0.000 N 
ATOM     10  H   UNK A   0       2.376   6.515  18.205  0.00  0.00    +0.000 HD
BRANCH   8  11
ATOM     11  C   UNK A   0       1.585   7.830  20.165  0.00  0.00    +0.000 A 
ATOM     12  C   UNK A   0       1.655   8.707  19.097  0.00  0.00    +0.000 A 
ATOM     13  C   UNK A   0       1.055   9.931  19.483  0.00  0.00    +0.000 A 
ATOM     14  C   UNK A   0       0.845  11.147  18.817  0.00  0.00    +0.000 A 
ATOM     15  C   UNK A   0       0.335  12.221  19.541  0.00  0.00    +0.000 A 
ATOM     16  F   UNK A   0       0.177  13.401  18.928  0.00  0.00    +0.000 F 
ATOM     17  C   UNK A   0       0.024  12.106  20.892  0.00  0.00    +0.000 A 
ATOM     18  C   UNK A   0       0.181  10.884  21.561  0.00  0.00    +0.000 A 
ATOM     19  C   UNK A   0       0.689   9.806  20.824  0.00  0.00    +0.000 A 
ATOM     20  N   UNK A   0       0.936   8.496  21.186  0.00  0.00    +0.000 N 
ATOM     21  H   UNK A   0       0.718   8.088  22.085  0.00  0.00    +0.000 HD
ENDBRANCH   8  11
ENDBRANCH   1   9
BRANCH   6  22
ATOM     22  C   UNK A   0       4.544   4.763  17.533  0.00  0.00    +0.000 C 
ATOM     23  O   UNK A   0       4.481   5.965  17.295  0.00  0.00    +0.000 OA
ATOM     24  N   PHE A   1       5.699   4.064  17.281  0.00  0.00    +0.000 N 
ATOM     25  H   PHE A   1       5.612   3.063  17.123  0.00  0.00    +0.000 HD
BRANCH  24  26
ATOM     26  CA  PHE A   1       6.922   4.714  16.799  0.00  0.00    +0.000 C 
BRANCH  26  27
ATOM     27  C   PHE A   1       7.558   5.521  17.940  0.00  0.00    +0.000 C 
ATOM     28  O   PHE A   1       7.698   6.735  17.944  0.00  0.00    +0.000 OA
BRANCH  27  29
ATOM     29  OXT PHE A   1       8.021   4.738  18.949  0.00  0.00    +0.000 OA
ATOM     30  HXT PHE A   1       7.454   4.790  19.754  0.00  0.00    +0.000 HD
ENDBRANCH  27  29
ENDBRANCH  26  27
BRANCH  26  31
ATOM     31  CB  PHE A   1       6.633   5.610  15.589  0.00  0.00    +0.000 C 
BRANCH  31  32
ATOM     32  CG  PHE A   1       6.515   4.906  14.250  0.00  0.00    +0.000 A 
ATOM     33  CD1 PHE A   1       7.544   5.071  13.314  0.00  0.00    +0.000 A 
ATOM     34  CE1 PHE A   1       7.554   4.335  12.128  0.00  0.00    +0.000 A 
ATOM     35  CZ  PHE A   1       6.524   3.447  11.842  0.00  0.00    +0.000 A 
ATOM     36  CE2 PHE A   1       5.486   3.283  12.753  0.00  0.00    +0.000 A 
ATOM     37  CD2 PHE A   1       5.485   4.001  13.953  0.00  0.00    +0.000 A 
ENDBRANCH  31  32
ENDBRANCH  26  31
ENDBRANCH  24  26
ENDBRANCH   6  22
TORSDOF 8
ENDMDL
MODEL 6
REMARK VINA RESULT:      -8.7      4.156      6.834
REMARK  Name = 
REMARK  8 active torsions:
REMARK  status: ('A' for Active; 'I' for Inactive)
REMARK    1  A    between atoms: C_2  and  C_24
REMARK    2  A    between atoms: N_3  and  C_4
REMARK    3  A    between atoms: C_9  and  C_10
REMARK    4  A    between atoms: N_12  and  CA_13
REMARK    5  A    between atoms: CA_13  and  CB_14
REMARK    6  A    between atoms: CA_13  and  C_21
REMARK    7  A    between atoms: CB_14  and  CG_15
REMARK    8  A    between atoms: C_21  and  OXT_23
REMARK                            x       y       z     vdW  Elec       q    Type
REMARK                         _______ _______ _______ _____ _____    ______ ____
ROOT
ATOM      1  C   UNK A   0       5.997   3.944  14.527  0.00  0.00    +0.000 A 
ATOM      2  C   UNK A   0       5.690   3.414  13.266  0.00  0.00    +0.000 A 
ATOM      3  C   UNK A   0       6.441   3.770  12.144  0.00  0.00    +0.000 A 
ATOM      4  C   UNK A   0       7.517   4.644  12.274  0.00  0.00    +0.000 A 
ATOM      5  C   UNK A   0       7.848   5.154  13.524  0.00  0.00    +0.000 A 
ATOM      6  C   UNK A   0       7.098   4.811  14.662  0.00  0.00    +0.000 A 
ENDROOT
BRANCH   1   9
ATOM      7  O   UNK A   0       4.443   5.850  16.043  0.00  0.00    +0.000 OA
ATOM      8  C   UNK A   0       4.524   4.674  16.375  0.00  0.00    +0.000 C 
ATOM      9  N   UNK A   0       5.111   3.688  15.597  0.00  0.00    +0.000 N 
ATOM     10  H   UNK A   0       4.713   2.757  15.674  0.00  0.00    +0.000 HD
BRANCH   8  11
ATOM     11  C   UNK A   0       3.923   4.153  17.577  0.00  0.00    +0.000 A 
ATOM     12  C   UNK A   0       2.632   4.337  18.037  0.00  0.00    +0.000 A 
ATOM     13  C   UNK A   0       2.475   3.598  19.237  0.00  0.00    +0.000 A 
ATOM     14  C   UNK A   0       1.399   3.416  20.116  0.00  0.00    +0.000 A 
ATOM     15  C   UNK A   0       1.620   2.721  21.301  0.00  0.00    +0.000 A 
ATOM     16  F   UNK A   0       0.611   2.584  22.172  0.00  0.00    +0.000 F 
ATOM     17  C   UNK A   0       2.870   2.203  21.618  0.00  0.00    +0.000 A 
ATOM     18  C   UNK A   0       3.946   2.332  20.728  0.00  0.00    +0.000 A 
ATOM     19  C   UNK A   0       3.714   3.027  19.534  0.00  0.00    +0.000 A 
ATOM     20  N   UNK A   0       4.547   3.302  18.468  0.00  0.00    +0.000 N 
ATOM     21  H   UNK A   0       5.497   2.969  18.368  0.00  0.00    +0.000 HD
ENDBRANCH   8  11
ENDBRANCH   1   9
BRANCH   6  22
ATOM     22  C   UNK A   0       7.608   5.308  15.973  0.00  0.00    +0.000 C 
ATOM     23  O   UNK A   0       8.077   4.553  16.819  0.00  0.00    +0.000 OA
ATOM     24  N   PHE A   1       7.407   6.636  16.259  0.00  0.00    +0.000 N 
ATOM     25  H   PHE A   1       6.700   7.127  15.718  0.00  0.00    +0.000 HD
BRANCH  24  26
ATOM     26  CA  PHE A   1       7.807   7.234  17.537  0.00  0.00    +0.000 C 
BRANCH  26  27
ATOM     27  C   PHE A   1       7.384   6.312  18.690  0.00  0.00    +0.000 C 
ATOM     28  O   PHE A   1       6.231   6.000  18.948  0.00  0.00    +0.000 OA
BRANCH  27  29
ATOM     29  OXT PHE A   1       8.430   5.912  19.459  0.00  0.00    +0.000 OA
ATOM     30  HXT PHE A   1       8.138   5.561  20.334  0.00  0.00    +0.000 HD
ENDBRANCH  27  29
ENDBRANCH  26  27
BRANCH  26  31
ATOM     31  CB  PHE A   1       7.204   8.634  17.706  0.00  0.00    +0.000 C 
BRANCH  31  32
ATOM     32  CG  PHE A   1       8.159   9.723  18.157  0.00  0.00    +0.000 A 
ATOM     33  CD1 PHE A   1       9.055   9.439  19.195  0.00  0.00    +0.000 A 
ATOM     34  CE1 PHE A   1      10.048  10.354  19.551  0.00  0.00    +0.000 A 
ATOM     35  CZ  PHE A   1      10.142  11.578  18.900  0.00  0.00    +0.000 A 
ATOM     36  CE2 PHE A   1       9.250  11.883  17.878  0.00  0.00    +0.000 A 
ATOM     37  CD2 PHE A   1       8.270  10.959  17.503  0.00  0.00    +0.000 A 
ENDBRANCH  31  32
ENDBRANCH  26  31
ENDBRANCH  24  26
ENDBRANCH   6  22
TORSDOF 8
ENDMDL
MODEL 7
REMARK VINA RESULT:      -8.5      1.162      1.796
REMARK  Name = 
REMARK  8 active torsions:
REMARK  status: ('A' for Active; 'I' for Inactive)
REMARK    1  A    between atoms: C_2  and  C_24
REMARK    2  A    between atoms: N_3  and  C_4
REMARK    3  A    between atoms: C_9  and  C_10
REMARK    4  A    between atoms: N_12  and  CA_13
REMARK    5  A    between atoms: CA_13  and  CB_14
REMARK    6  A    between atoms: CA_13  and  C_21
REMARK    7  A    between atoms: CB_14  and  CG_15
REMARK    8  A    between atoms: C_21  and  OXT_23
REMARK                            x       y       z     vdW  Elec       q    Type
REMARK                         _______ _______ _______ _____ _____    ______ ____
ROOT
ATOM      1  C   UNK A   0       2.159   4.278  18.417  0.00  0.00    +0.000 A 
ATOM      2  C   UNK A   0       1.189   3.511  19.077  0.00  0.00    +0.000 A 
ATOM      3  C   UNK A   0       1.185   2.119  18.962  0.00  0.00    +0.000 A 
ATOM      4  C   UNK A   0       2.160   1.480  18.202  0.00  0.00    +0.000 A 
ATOM      5  C   UNK A   0       3.144   2.228  17.565  0.00  0.00    +0.000 A 
ATOM      6  C   UNK A   0       3.158   3.630  17.665  0.00  0.00    +0.000 A 
ENDROOT
BRANCH   1   9
ATOM      7  O   UNK A   0       3.542   6.188  20.087  0.00  0.00    +0.000 OA
ATOM      8  C   UNK A   0       2.607   6.518  19.367  0.00  0.00    +0.000 C 
ATOM      9  N   UNK A   0       2.024   5.683  18.425  0.00  0.00    +0.000 N 
ATOM     10  H   UNK A   0       1.661   6.132  17.590  0.00  0.00    +0.000 HD
BRANCH   8  11
ATOM     11  C   UNK A   0       2.069   7.854  19.341  0.00  0.00    +0.000 A 
ATOM     12  C   UNK A   0       2.096   8.768  18.303  0.00  0.00    +0.000 A 
ATOM     13  C   UNK A   0       1.402   9.933  18.715  0.00  0.00    +0.000 A 
ATOM     14  C   UNK A   0       1.117  11.152  18.084  0.00  0.00    +0.000 A 
ATOM     15  C   UNK A   0       0.517  12.162  18.831  0.00  0.00    +0.000 A 
ATOM     16  F   UNK A   0       0.287  13.348  18.252  0.00  0.00    +0.000 F 
ATOM     17  C   UNK A   0       0.190  11.980  20.170  0.00  0.00    +0.000 A 
ATOM     18  C   UNK A   0       0.422  10.751  20.803  0.00  0.00    +0.000 A 
ATOM     19  C   UNK A   0       1.020   9.737  20.043  0.00  0.00    +0.000 A 
ATOM     20  N   UNK A   0       1.354   8.437  20.369  0.00  0.00    +0.000 N 
ATOM     21  H   UNK A   0       1.150   7.985  21.250  0.00  0.00    +0.000 HD
ENDBRANCH   8  11
ENDBRANCH   1   9
BRANCH   6  22
ATOM     22  C   UNK A   0       4.323   4.332  17.053  0.00  0.00    +0.000 C 
ATOM     23  O   UNK A   0       4.307   5.535  16.813  0.00  0.00    +0.000 OA
ATOM     24  N   PHE A   1       5.375   3.553  16.638  0.00  0.00    +0.000 N 
ATOM     25  H   PHE A   1       5.196   2.560  16.508  0.00  0.00    +0.000 HD
BRANCH  24  26
ATOM     26  CA  PHE A   1       6.553   4.114  15.968  0.00  0.00    +0.000 C 
BRANCH  26  27
ATOM     27  C   PHE A   1       7.351   4.968  16.963  0.00  0.00    +0.000 C 
ATOM     28  O   PHE A   1       7.828   4.559  18.011  0.00  0.00    +0.000 OA
BRANCH  27  29
ATOM     29  OXT PHE A   1       7.429   6.274  16.597  0.00  0.00    +0.000 OA
ATOM     30  HXT PHE A   1       7.943   6.399  15.764  0.00  0.00    +0.000 HD
ENDBRANCH  27  29
ENDBRANCH  26  27
BRANCH  26  31
ATOM     31  CB  PHE A   1       6.150   4.938  14.738  0.00  0.00    +0.000 C 
BRANCH  31  32
ATOM     32  CG  PHE A   1       6.008   4.169  13.437  0.00  0.00    +0.000 A 
ATOM     33  CD1 PHE A   1       7.170   3.797  12.749  0.00  0.00    +0.000 A 
ATOM     34  CE1 PHE A   1       7.100   2.970  11.627  0.00  0.00    +0.000 A 
ATOM     35  CZ  PHE A   1       5.870   2.526  11.155  0.00  0.00    +0.000 A 
ATOM     36  CE2 PHE A   1       4.706   2.899  11.818  0.00  0.00    +0.000 A 
ATOM     37  CD2 PHE A   1       4.774   3.708  12.956  0.00  0.00    +0.000 A 
ENDBRANCH  31  32
ENDBRANCH  26  31
ENDBRANCH  24  26
ENDBRANCH   6  22
TORSDOF 8
ENDMDL
MODEL 8
REMARK VINA RESULT:      -8.5      3.933      7.732
REMARK  Name = 
REMARK  8 active torsions:
REMARK  status: ('A' for Active; 'I' for Inactive)
REMARK    1  A    between atoms: C_2  and  C_24
REMARK    2  A    between atoms: N_3  and  C_4
REMARK    3  A    between atoms: C_9  and  C_10
REMARK    4  A    between atoms: N_12  and  CA_13
REMARK    5  A    between atoms: CA_13  and  CB_14
REMARK    6  A    between atoms: CA_13  and  C_21
REMARK    7  A    between atoms: CB_14  and  CG_15
REMARK    8  A    between atoms: C_21  and  OXT_23
REMARK                            x       y       z     vdW  Elec       q    Type
REMARK                         _______ _______ _______ _____ _____    ______ ____
ROOT
ATOM      1  C   UNK A   0       6.477   5.978  16.417  0.00  0.00    +0.000 A 
ATOM      2  C   UNK A   0       7.079   4.940  15.692  0.00  0.00    +0.000 A 
ATOM      3  C   UNK A   0       6.382   3.758  15.432  0.00  0.00    +0.000 A 
ATOM      4  C   UNK A   0       5.072   3.609  15.878  0.00  0.00    +0.000 A 
ATOM      5  C   UNK A   0       4.455   4.642  16.575  0.00  0.00    +0.000 A 
ATOM      6  C   UNK A   0       5.145   5.835  16.851  0.00  0.00    +0.000 A 
ENDROOT
BRANCH   1   9
ATOM      7  O   UNK A   0       8.021   6.305  18.837  0.00  0.00    +0.000 OA
ATOM      8  C   UNK A   0       7.856   7.226  18.048  0.00  0.00    +0.000 C 
ATOM      9  N   UNK A   0       7.273   7.080  16.798  0.00  0.00    +0.000 N 
ATOM     10  H   UNK A   0       7.615   7.696  16.067  0.00  0.00    +0.000 HD
BRANCH   8  11
ATOM     11  C   UNK A   0       8.345   8.561  18.284  0.00  0.00    +0.000 A 
ATOM     12  C   UNK A   0       8.214   9.676  17.477  0.00  0.00    +0.000 A 
ATOM     13  C   UNK A   0       8.812  10.779  18.138  0.00  0.00    +0.000 A 
ATOM     14  C   UNK A   0       8.966  12.130  17.798  0.00  0.00    +0.000 A 
ATOM     15  C   UNK A   0       9.738  12.939  18.627  0.00  0.00    +0.000 A 
ATOM     16  F   UNK A   0       9.934  14.220  18.285  0.00  0.00    +0.000 F 
ATOM     17  C   UNK A   0      10.340  12.439  19.776  0.00  0.00    +0.000 A 
ATOM     18  C   UNK A   0      10.155  11.103  20.158  0.00  0.00    +0.000 A 
ATOM     19  C   UNK A   0       9.372  10.296  19.321  0.00  0.00    +0.000 A 
ATOM     20  N   UNK A   0       8.997   8.972  19.431  0.00  0.00    +0.000 N 
ATOM     21  H   UNK A   0       9.206   8.368  20.215  0.00  0.00    +0.000 HD
ENDBRANCH   8  11
ENDBRANCH   1   9
BRANCH   6  22
ATOM     22  C   UNK A   0       4.358   6.929  17.490  0.00  0.00    +0.000 C 
ATOM     23  O   UNK A   0       4.658   8.112  17.358  0.00  0.00    +0.000 OA
ATOM     24  N   PHE A   1       3.357   6.558  18.353  0.00  0.00    +0.000 N 
ATOM     25  H   PHE A   1       3.387   5.610  18.721  0.00  0.00    +0.000 HD
BRANCH  24  26
ATOM     26  CA  PHE A   1       2.550   7.536  19.091  0.00  0.00    +0.000 C 
BRANCH  26  27
ATOM     27  C   PHE A   1       1.898   6.854  20.302  0.00  0.00    +0.000 C 
ATOM     28  O   PHE A   1       1.557   5.681  20.345  0.00  0.00    +0.000 OA
BRANCH  27  29
ATOM     29  OXT PHE A   1       1.669   7.709  21.332  0.00  0.00    +0.000 OA
ATOM     30  HXT PHE A   1       1.784   8.653  21.067  0.00  0.00    +0.000 HD
ENDBRANCH  27  29
ENDBRANCH  26  27
BRANCH  26  31
ATOM     31  CB  PHE A   1       1.490   8.174  18.185  0.00  0.00    +0.000 C 
BRANCH  31  32
ATOM     32  CG  PHE A   1       1.145   9.622  18.480  0.00  0.00    +0.000 A 
ATOM     33  CD1 PHE A   1       2.124  10.601  18.264  0.00  0.00    +0.000 A 
ATOM     34  CE1 PHE A   1       1.814  11.957  18.383  0.00  0.00    +0.000 A 
ATOM     35  CZ  PHE A   1       0.534  12.358  18.749  0.00  0.00    +0.000 A 
ATOM     36  CE2 PHE A   1      -0.445  11.398  18.982  0.00  0.00    +0.000 A 
ATOM     37  CD2 PHE A   1      -0.145  10.040  18.841  0.00  0.00    +0.000 A 
ENDBRANCH  31  32
ENDBRANCH  26  31
ENDBRANCH  24  26
ENDBRANCH   6  22
TORSDOF 8
ENDMDL
MODEL 9
REMARK VINA RESULT:      -8.5      5.013     10.783
REMARK  Name = 
REMARK  8 active torsions:
REMARK  status: ('A' for Active; 'I' for Inactive)
REMARK    1  A    between atoms: C_2  and  C_24
REMARK    2  A    between atoms: N_3  and  C_4
REMARK    3  A    between atoms: C_9  and  C_10
REMARK    4  A    between atoms: N_12  and  CA_13
REMARK    5  A    between atoms: CA_13  and  CB_14
REMARK    6  A    between atoms: CA_13  and  C_21
REMARK    7  A    between atoms: CB_14  and  CG_15
REMARK    8  A    between atoms: C_21  and  OXT_23
REMARK                            x       y       z     vdW  Elec       q    Type
REMARK                         _______ _______ _______ _____ _____    ______ ____
ROOT
ATOM      1  C   UNK A   0       0.924  12.053  18.871  0.00  0.00    +0.000 A 
ATOM      2  C   UNK A   0       2.006  12.892  19.170  0.00  0.00    +0.000 A 
ATOM      3  C   UNK A   0       1.862  14.281  19.124  0.00  0.00    +0.000 A 
ATOM      4  C   UNK A   0       0.632  14.843  18.796  0.00  0.00    +0.000 A 
ATOM      5  C   UNK A   0      -0.456  14.021  18.524  0.00  0.00    +0.000 A 
ATOM      6  C   UNK A   0      -0.326  12.622  18.559  0.00  0.00    +0.000 A 
ENDROOT
BRANCH   1   9
ATOM      7  O   UNK A   0       0.633  10.041  20.924  0.00  0.00    +0.000 OA
ATOM      8  C   UNK A   0       1.149   9.789  19.842  0.00  0.00    +0.000 C 
ATOM      9  N   UNK A   0       1.160  10.665  18.767  0.00  0.00    +0.000 N 
ATOM     10  H   UNK A   0       1.127  10.243  17.844  0.00  0.00    +0.000 HD
BRANCH   8  11
ATOM     11  C   UNK A   0       1.719   8.505  19.524  0.00  0.00    +0.000 A 
ATOM     12  C   UNK A   0       2.253   8.080  18.322  0.00  0.00    +0.000 A 
ATOM     13  C   UNK A   0       2.738   6.758  18.489  0.00  0.00    +0.000 A 
ATOM     14  C   UNK A   0       3.370   5.853  17.626  0.00  0.00    +0.000 A 
ATOM     15  C   UNK A   0       3.600   4.556  18.076  0.00  0.00    +0.000 A 
ATOM     16  F   UNK A   0       4.157   3.668  17.242  0.00  0.00    +0.000 F 
ATOM     17  C   UNK A   0       3.229   4.153  19.354  0.00  0.00    +0.000 A 
ATOM     18  C   UNK A   0       2.642   5.060  20.248  0.00  0.00    +0.000 A 
ATOM     19  C   UNK A   0       2.419   6.365  19.790  0.00  0.00    +0.000 A 
ATOM     20  N   UNK A   0       1.885   7.470  20.423  0.00  0.00    +0.000 N 
ATOM     21  H   UNK A   0       1.610   7.509  21.396  0.00  0.00    +0.000 HD
ENDBRANCH   8  11
ENDBRANCH   1   9
BRANCH   6  22
ATOM     22  C   UNK A   0      -1.577  11.830  18.378  0.00  0.00    +0.000 C 
ATOM     23  O   UNK A   0      -2.055  11.150  19.279  0.00  0.00    +0.000 OA
ATOM     24  N   PHE A   1      -2.106  11.779  17.111  0.00  0.00    +0.000 N 
ATOM     25  H   PHE A   1      -1.494  12.030  16.340  0.00  0.00    +0.000 HD
BRANCH  24  26
ATOM     26  CA  PHE A   1      -3.298  10.987  16.788  0.00  0.00    +0.000 C 
BRANCH  26  27
ATOM     27  C   PHE A   1      -3.047  10.183  15.505  0.00  0.00    +0.000 C 
ATOM     28  O   PHE A   1      -2.136   9.384  15.346  0.00  0.00    +0.000 OA
BRANCH  27  29
ATOM     29  OXT PHE A   1      -3.915  10.493  14.507  0.00  0.00    +0.000 OA
ATOM     30  HXT PHE A   1      -4.521   9.744  14.292  0.00  0.00    +0.000 HD
ENDBRANCH  27  29
ENDBRANCH  26  27
BRANCH  26  31
ATOM     31  CB  PHE A   1      -4.534  11.883  16.641  0.00  0.00    +0.000 C 
BRANCH  31  32
ATOM     32  CG  PHE A   1      -5.530  11.839  17.785  0.00  0.00    +0.000 A 
ATOM     33  CD1 PHE A   1      -6.353  12.952  18.000  0.00  0.00    +0.000 A 
ATOM     34  CE1 PHE A   1      -7.380  12.908  18.945  0.00  0.00    +0.000 A 
ATOM     35  CZ  PHE A   1      -7.583  11.766  19.711  0.00  0.00    +0.000 A 
ATOM     36  CE2 PHE A   1      -6.765  10.658  19.521  0.00  0.00    +0.000 A 
ATOM     37  CD2 PHE A   1      -5.751  10.690  18.559  0.00  0.00    +0.000 A 
ENDBRANCH  31  32
ENDBRANCH  26  31
ENDBRANCH  24  26
ENDBRANCH   6  22
TORSDOF 8
ENDMDL
