MODEL 1
REMARK VINA RESULT:      -6.0      0.000      0.000
REMARK  Name = 
REMARK  3 active torsions:
REMARK  status: ('A' for Active; 'I' for Inactive)
REMARK    1  A    between atoms: C_1  and  C_2
REMARK    2  A    between atoms: C_2  and  C_3
REMARK    3  A    between atoms: C_6  and  C_7
REMARK                            x       y       z     vdW  Elec       q    Type
REMARK                         _______ _______ _______ _____ _____    ______ ____
ROOT
ATOM      1  C   UNL     1       4.303   3.648  17.434  0.00  0.00    +0.000 C 
ATOM      2  C   UNL     1       3.795   4.284  18.727  0.00  0.00    +0.000 C 
ATOM      3  C   UNL     1       4.850   5.248  19.278  0.00  0.00    +0.000 C 
ATOM      4  C   UNL     1       3.434   3.221  19.763  0.00  0.00    +0.000 C 
ATOM      5  O   UNL     1       4.192   2.364  20.194  0.00  0.00    +0.000 OA
ATOM      6  C   UNL     1       1.960   3.374  20.144  0.00  0.00    +0.000 C 
ATOM      7  C   UNL     1       1.562   2.762  21.464  0.00  0.00    +0.000 C 
ATOM      8  C   UNL     1       1.154   2.897  18.921  0.00  0.00    +0.000 C 
ATOM      9  C   UNL     1       1.363   4.038  17.906  0.00  0.00    +0.000 C 
ATOM     10  C   UNL     1       2.386   4.957  18.609  0.00  0.00    +0.000 C 
ATOM     11  C   UNL     1       1.843   4.897  20.047  0.00  0.00    +0.000 C 
ENDROOT
TORSDOF 0
ENDMDL
MODEL 2
REMARK VINA RESULT:      -5.8      1.824      2.686
REMARK  Name = 
REMARK  3 active torsions:
REMARK  status: ('A' for Active; 'I' for Inactive)
REMARK    1  A    between atoms: C_1  and  C_2
REMARK    2  A    between atoms: C_2  and  C_3
REMARK    3  A    between atoms: C_6  and  C_7
REMARK                            x       y       z     vdW  Elec       q    Type
REMARK                         _______ _______ _______ _____ _____    ______ ____
ROOT
ATOM      1  C   UNL     1       2.505   6.662  18.321  0.00  0.00    +0.000 C 
ATOM      2  C   UNL     1       2.913   5.190  18.344  0.00  0.00    +0.000 C 
ATOM      3  C   UNL     1       4.034   4.948  17.328  0.00  0.00    +0.000 C 
ATOM      4  C   UNL     1       1.719   4.279  18.067  0.00  0.00    +0.000 C 
ATOM      5  O   UNL     1       1.012   4.321  17.069  0.00  0.00    +0.000 OA
ATOM      6  C   UNL     1       1.523   3.335  19.254  0.00  0.00    +0.000 C 
ATOM      7  C   UNL     1       0.738   2.080  18.965  0.00  0.00    +0.000 C 
ATOM      8  C   UNL     1       0.984   4.205  20.404  0.00  0.00    +0.000 C 
ATOM      9  C   UNL     1       2.220   5.026  20.823  0.00  0.00    +0.000 C 
ATOM     10  C   UNL     1       3.278   4.641  19.764  0.00  0.00    +0.000 C 
ATOM     11  C   UNL     1       2.990   3.134  19.646  0.00  0.00    +0.000 C 
ENDROOT
TORSDOF 0
ENDMDL
MODEL 3
REMARK VINA RESULT:      -5.7      1.253      2.915
REMARK  Name = 
REMARK  3 active torsions:
REMARK  status: ('A' for Active; 'I' for Inactive)
REMARK    1  A    between atoms: C_1  and  C_2
REMARK    2  A    between atoms: C_2  and  C_3
REMARK    3  A    between atoms: C_6  and  C_7
REMARK                            x       y       z     vdW  Elec       q    Type
REMARK                         _______ _______ _______ _____ _____    ______ ____
ROOT
ATOM      1  C   UNL     1       2.187   5.015  20.818  0.00  0.00    +0.000 C 
ATOM      2  C   UNL     1       1.893   3.566  20.429  0.00  0.00    +0.000 C 
ATOM      3  C   UNL     1       1.326   2.812  21.635  0.00  0.00    +0.000 C 
ATOM      4  C   UNL     1       3.144   2.873  19.891  0.00  0.00    +0.000 C 
ATOM      5  O   UNL     1       4.203   2.755  20.491  0.00  0.00    +0.000 OA
ATOM      6  C   UNL     1       2.872   2.387  18.466  0.00  0.00    +0.000 C 
ATOM      7  C   UNL     1       3.777   1.287  17.970  0.00  0.00    +0.000 C 
ATOM      8  C   UNL     1       2.821   3.650  17.588  0.00  0.00    +0.000 C 
ATOM      9  C   UNL     1       1.479   4.294  17.990  0.00  0.00    +0.000 C 
ATOM     10  C   UNL     1       0.994   3.406  19.157  0.00  0.00    +0.000 C 
ATOM     11  C   UNL     1       1.392   2.023  18.614  0.00  0.00    +0.000 C 
ENDROOT
TORSDOF 0
ENDMDL
MODEL 4
REMARK VINA RESULT:      -5.7      2.861      4.125
REMARK  Name = 
REMARK  3 active torsions:
REMARK  status: ('A' for Active; 'I' for Inactive)
REMARK    1  A    between atoms: C_1  and  C_2
REMARK    2  A    between atoms: C_2  and  C_3
REMARK    3  A    between atoms: C_6  and  C_7
REMARK                            x       y       z     vdW  Elec       q    Type
REMARK                         _______ _______ _______ _____ _____    ______ ____
ROOT
ATOM      1  C   UNL     1       7.763   4.553  17.735  0.00  0.00    +0.000 C 
ATOM      2  C   UNL     1       6.813   5.731  17.524  0.00  0.00    +0.000 C 
ATOM      3  C   UNL     1       7.542   7.044  17.827  0.00  0.00    +0.000 C 
ATOM      4  C   UNL     1       5.558   5.592  18.383  0.00  0.00    +0.000 C 
ATOM      5  O   UNL     1       5.542   5.481  19.601  0.00  0.00    +0.000 OA
ATOM      6  C   UNL     1       4.329   5.574  17.474  0.00  0.00    +0.000 C 
ATOM      7  C   UNL     1       3.022   5.930  18.138  0.00  0.00    +0.000 C 
ATOM      8  C   UNL     1       4.356   4.215  16.750  0.00  0.00    +0.000 C 
ATOM      9  C   UNL     1       5.517   4.382  15.749  0.00  0.00    +0.000 C 
ATOM     10  C   UNL     1       6.114   5.757  16.123  0.00  0.00    +0.000 C 
ATOM     11  C   UNL     1       4.816   6.539  16.390  0.00  0.00    +0.000 C 
ENDROOT
TORSDOF 0
ENDMDL
MODEL 5
REMARK VINA RESULT:      -5.7      0.907      3.311
REMARK  Name = 
REMARK  3 active torsions:
REMARK  status: ('A' for Active; 'I' for Inactive)
REMARK    1  A    between atoms: C_1  and  C_2
REMARK    2  A    between atoms: C_2  and  C_3
REMARK    3  A    between atoms: C_6  and  C_7
REMARK                            x       y       z     vdW  Elec       q    Type
REMARK                         _______ _______ _______ _____ _____    ______ ____
ROOT
ATOM      1  C   UNL     1       1.957   2.730  21.060  0.00  0.00    +0.000 C 
ATOM      2  C   UNL     1       1.809   3.089  19.582  0.00  0.00    +0.000 C 
ATOM      3  C   UNL     1       0.662   2.281  18.967  0.00  0.00    +0.000 C 
ATOM      4  C   UNL     1       3.112   2.854  18.822  0.00  0.00    +0.000 C 
ATOM      5  O   UNL     1       3.713   1.790  18.755  0.00  0.00    +0.000 OA
ATOM      6  C   UNL     1       3.567   4.170  18.190  0.00  0.00    +0.000 C 
ATOM      7  C   UNL     1       4.527   4.041  17.033  0.00  0.00    +0.000 C 
ATOM      8  C   UNL     1       4.048   5.056  19.354  0.00  0.00    +0.000 C 
ATOM      9  C   UNL     1       2.731   5.451  20.052  0.00  0.00    +0.000 C 
ATOM     10  C   UNL     1       1.667   4.622  19.299  0.00  0.00    +0.000 C 
ATOM     11  C   UNL     1       2.196   4.766  17.861  0.00  0.00    +0.000 C 
ENDROOT
TORSDOF 0
ENDMDL
MODEL 6
REMARK VINA RESULT:      -5.6      1.133      2.025
REMARK  Name = 
REMARK  3 active torsions:
REMARK  status: ('A' for Active; 'I' for Inactive)
REMARK    1  A    between atoms: C_1  and  C_2
REMARK    2  A    between atoms: C_2  and  C_3
REMARK    3  A    between atoms: C_6  and  C_7
REMARK                            x       y       z     vdW  Elec       q    Type
REMARK                         _______ _______ _______ _____ _____    ______ ____
ROOT
ATOM      1  C   UNL     1       3.652   1.540  18.387  0.00  0.00    +0.000 C 
ATOM      2  C   UNL     1       3.285   2.987  18.061  0.00  0.00    +0.000 C 
ATOM      3  C   UNL     1       4.204   3.517  16.957  0.00  0.00    +0.000 C 
ATOM      4  C   UNL     1       3.361   3.871  19.305  0.00  0.00    +0.000 C 
ATOM      5  O   UNL     1       4.350   4.022  20.009  0.00  0.00    +0.000 OA
ATOM      6  C   UNL     1       1.991   4.504  19.553  0.00  0.00    +0.000 C 
ATOM      7  C   UNL     1       1.992   5.747  20.407  0.00  0.00    +0.000 C 
ATOM      8  C   UNL     1       1.078   3.364  20.042  0.00  0.00    +0.000 C 
ATOM      9  C   UNL     1       0.845   2.537  18.762  0.00  0.00    +0.000 C 
ATOM     10  C   UNL     1       1.772   3.213  17.728  0.00  0.00    +0.000 C 
ATOM     11  C   UNL     1       1.544   4.688  18.100  0.00  0.00    +0.000 C 
ENDROOT
TORSDOF 0
ENDMDL
MODEL 7
REMARK VINA RESULT:      -5.6      1.258      2.911
REMARK  Name = 
REMARK  3 active torsions:
REMARK  status: ('A' for Active; 'I' for Inactive)
REMARK    1  A    between atoms: C_1  and  C_2
REMARK    2  A    between atoms: C_2  and  C_3
REMARK    3  A    between atoms: C_6  and  C_7
REMARK                            x       y       z     vdW  Elec       q    Type
REMARK                         _______ _______ _______ _____ _____    ______ ____
ROOT
ATOM      1  C   UNL     1       3.468   2.189  20.694  0.00  0.00    +0.000 C 
ATOM      2  C   UNL     1       3.038   2.744  19.336  0.00  0.00    +0.000 C 
ATOM      3  C   UNL     1       3.446   1.769  18.228  0.00  0.00    +0.000 C 
ATOM      4  C   UNL     1       3.632   4.130  19.091  0.00  0.00    +0.000 C 
ATOM      5  O   UNL     1       4.824   4.402  19.099  0.00  0.00    +0.000 OA
ATOM      6  C   UNL     1       2.495   5.129  18.873  0.00  0.00    +0.000 C 
ATOM      7  C   UNL     1       2.873   6.399  18.151  0.00  0.00    +0.000 C 
ATOM      8  C   UNL     1       1.829   5.321  20.248  0.00  0.00    +0.000 C 
ATOM      9  C   UNL     1       1.077   3.991  20.454  0.00  0.00    +0.000 C 
ATOM     10  C   UNL     1       1.525   3.138  19.246  0.00  0.00    +0.000 C 
ATOM     11  C   UNL     1       1.505   4.214  18.147  0.00  0.00    +0.000 C 
ENDROOT
TORSDOF 0
ENDMDL
MODEL 8
REMARK VINA RESULT:      -5.6      1.193      3.267
REMARK  Name = 
REMARK  3 active torsions:
REMARK  status: ('A' for Active; 'I' for Inactive)
REMARK    1  A    between atoms: C_1  and  C_2
REMARK    2  A    between atoms: C_2  and  C_3
REMARK    3  A    between atoms: C_6  and  C_7
REMARK                            x       y       z     vdW  Elec       q    Type
REMARK                         _______ _______ _______ _____ _____    ______ ____
ROOT
ATOM      1  C   UNL     1       2.503   4.493  20.842  0.00  0.00    +0.000 C 
ATOM      2  C   UNL     1       2.535   3.682  19.547  0.00  0.00    +0.000 C 
ATOM      3  C   UNL     1       2.004   2.270  19.808  0.00  0.00    +0.000 C 
ATOM      4  C   UNL     1       3.943   3.636  18.957  0.00  0.00    +0.000 C 
ATOM      5  O   UNL     1       4.939   3.218  19.531  0.00  0.00    +0.000 OA
ATOM      6  C   UNL     1       3.916   4.233  17.549  0.00  0.00    +0.000 C 
ATOM      7  C   UNL     1       5.061   3.837  16.651  0.00  0.00    +0.000 C 
ATOM      8  C   UNL     1       3.711   5.748  17.734  0.00  0.00    +0.000 C 
ATOM      9  C   UNL     1       2.237   5.845  18.174  0.00  0.00    +0.000 C 
ATOM     10  C   UNL     1       1.816   4.367  18.336  0.00  0.00    +0.000 C 
ATOM     11  C   UNL     1       2.526   3.760  17.114  0.00  0.00    +0.000 C 
ENDROOT
TORSDOF 0
ENDMDL
MODEL 9
REMARK VINA RESULT:      -5.6      1.439      3.357
REMARK  Name = 
REMARK  3 active torsions:
REMARK  status: ('A' for Active; 'I' for Inactive)
REMARK    1  A    between atoms: C_1  and  C_2
REMARK    2  A    between atoms: C_2  and  C_3
REMARK    3  A    between atoms: C_6  and  C_7
REMARK                            x       y       z     vdW  Elec       q    Type
REMARK                         _______ _______ _______ _____ _____    ______ ____
ROOT
ATOM      1  C   UNL     1       0.700   3.202  19.445  0.00  0.00    +0.000 C 
ATOM      2  C   UNL     1       2.093   3.136  20.070  0.00  0.00    +0.000 C 
ATOM      3  C   UNL     1       1.973   2.880  21.575  0.00  0.00    +0.000 C 
ATOM      4  C   UNL     1       2.885   4.412  19.794  0.00  0.00    +0.000 C 
ATOM      5  O   UNL     1       2.535   5.544  20.098  0.00  0.00    +0.000 OA
ATOM      6  C   UNL     1       4.167   4.053  19.040  0.00  0.00    +0.000 C 
ATOM      7  C   UNL     1       5.274   5.075  19.113  0.00  0.00    +0.000 C 
ATOM      8  C   UNL     1       3.726   3.653  17.620  0.00  0.00    +0.000 C 
ATOM      9  C   UNL     1       3.064   2.279  17.839  0.00  0.00    +0.000 C 
ATOM     10  C   UNL     1       3.067   2.124  19.376  0.00  0.00    +0.000 C 
ATOM     11  C   UNL     1       4.458   2.699  19.693  0.00  0.00    +0.000 C 
ENDROOT
TORSDOF 0
ENDMDL
