MODEL 1
REMARK VINA RESULT:      -8.7      0.000      0.000
REMARK  Name = 
REMARK  10 active torsions:
REMARK  status: ('A' for Active; 'I' for Inactive)
REMARK    1  A    between atoms: C_1  and  O_2
REMARK    2  A    between atoms: O_2  and  C_3
REMARK    3  A    between atoms: C_5  and  C_6
REMARK    4  A    between atoms: C_9  and  O_10
REMARK    5  A    between atoms: O_10  and  C_11
REMARK    6  A    between atoms: C_12  and  O_13
REMARK    7  A    between atoms: O_13  and  C_14
REMARK    8  A    between atoms: C_14  and  C_15
REMARK    9  A    between atoms: N_17  and  C_18
REMARK   10  A    between atoms: C_18  and  C_19
REMARK                            x       y       z     vdW  Elec       q    Type
REMARK                         _______ _______ _______ _____ _____    ______ ____
ROOT
ATOM      1  C   UNL     1       0.284  10.448  19.795  0.00  0.00    +0.000 A 
ATOM      2  C   UNL     1       0.967   9.624  20.647  0.00  0.00    +0.000 A 
ATOM      3  N   UNL     1       1.383   8.611  19.843  0.00  0.00    +0.000 N 
ATOM      4  N   UNL     1       1.123   8.861  18.544  0.00  0.00    +0.000 NA
ATOM      5  N   UNL     1       0.434   9.992  18.501  0.00  0.00    +0.000 NA
ENDROOT
BRANCH   1   6
ATOM      6  C   UNL     1      -0.616  11.573  20.126  0.00  0.00    +0.000 C 
BRANCH   6   7
ATOM      7  O   UNL     1      -1.281  12.062  18.971  0.00  0.00    +0.000 OA
BRANCH   7  13
ATOM      8  C   UNL     1      -3.563  12.530  19.826  0.00  0.00    +0.000 A 
ATOM      9  C   UNL     1      -4.938  12.356  19.648  0.00  0.00    +0.000 A 
ATOM     10  C   UNL     1      -5.414  11.533  18.634  0.00  0.00    +0.000 A 
ATOM     11  C   UNL     1      -4.528  10.944  17.735  0.00  0.00    +0.000 A 
ATOM     12  C   UNL     1      -3.151  11.179  17.847  0.00  0.00    +0.000 A 
ATOM     13  C   UNL     1      -2.646  11.959  18.910  0.00  0.00    +0.000 A 
BRANCH   8  15
ATOM     14  C   UNL     1      -3.578  12.923  22.166  0.00  0.00    +0.000 C 
ATOM     15  O   UNL     1      -3.120  13.306  20.865  0.00  0.00    +0.000 OA
ENDBRANCH   8  15
BRANCH  10  16
ATOM     16  C   UNL     1      -6.863  11.264  18.522  0.00  0.00    +0.000 C 
ATOM     17  O   UNL     1      -7.505  10.787  19.446  0.00  0.00    +0.000 OA
ENDBRANCH  10  16
BRANCH  12  18
ATOM     18  O   UNL     1      -2.425  10.500  16.898  0.00  0.00    +0.000 OA
ATOM     19  C   UNL     1      -2.791  10.684  15.535  0.00  0.00    +0.000 C 
ENDBRANCH  12  18
ENDBRANCH   7  13
ENDBRANCH   6   7
ENDBRANCH   1   6
BRANCH   3  20
ATOM     20  C   UNL     1       1.767   7.288  20.271  0.00  0.00    +0.000 C 
BRANCH  20  21
ATOM     21  C   UNL     1       2.304   6.465  19.115  0.00  0.00    +0.000 A 
ATOM     22  C   UNL     1       1.939   5.113  19.019  0.00  0.00    +0.000 A 
ATOM     23  C   UNL     1       2.764   4.234  18.323  0.00  0.00    +0.000 A 
ATOM     24  C   UNL     1       3.912   4.752  17.731  0.00  0.00    +0.000 A 
ATOM     25  C   UNL     1       3.929   6.086  17.368  0.00  0.00    +0.000 A 
ATOM     26  C   UNL     1       3.269   6.969  18.220  0.00  0.00    +0.000 A 
ATOM     27  C   UNL     1       5.109   6.503  16.595  0.00  0.00    +0.000 C 
ATOM     28  O   UNL     1       5.025   7.011  15.492  0.00  0.00    +0.000 OA
ATOM     29  C   UNL     1       6.367   6.295  17.319  0.00  0.00    +0.000 A 
ATOM     30  C   UNL     1       7.388   7.231  17.187  0.00  0.00    +0.000 A 
ATOM     31  C   UNL     1       8.297   7.352  18.230  0.00  0.00    +0.000 A 
ATOM     32  C   UNL     1       8.171   6.542  19.367  0.00  0.00    +0.000 A 
ATOM     33  C   UNL     1       7.213   5.516  19.420  0.00  0.00    +0.000 A 
ATOM     34  C   UNL     1       6.329   5.359  18.356  0.00  0.00    +0.000 A 
ATOM     35  C   UNL     1       5.224   4.340  18.358  0.00  0.00    +0.000 C 
ATOM     36  O   UNL     1       5.341   3.284  18.963  0.00  0.00    +0.000 OA
ENDBRANCH  20  21
ENDBRANCH   3  20
TORSDOF 8
ENDMDL
MODEL 2
REMARK VINA RESULT:      -8.7      2.428      4.606
REMARK  Name = 
REMARK  10 active torsions:
REMARK  status: ('A' for Active; 'I' for Inactive)
REMARK    1  A    between atoms: C_1  and  O_2
REMARK    2  A    between atoms: O_2  and  C_3
REMARK    3  A    between atoms: C_5  and  C_6
REMARK    4  A    between atoms: C_9  and  O_10
REMARK    5  A    between atoms: O_10  and  C_11
REMARK    6  A    between atoms: C_12  and  O_13
REMARK    7  A    between atoms: O_13  and  C_14
REMARK    8  A    between atoms: C_14  and  C_15
REMARK    9  A    between atoms: N_17  and  C_18
REMARK   10  A    between atoms: C_18  and  C_19
REMARK                            x       y       z     vdW  Elec       q    Type
REMARK                         _______ _______ _______ _____ _____    ______ ____
ROOT
ATOM      1  C   UNL     1       1.291   8.919  18.505  0.00  0.00    +0.000 A 
ATOM      2  C   UNL     1       2.238   8.649  17.555  0.00  0.00    +0.000 A 
ATOM      3  N   UNL     1       3.100   7.816  18.195  0.00  0.00    +0.000 N 
ATOM      4  N   UNL     1       2.641   7.454  19.410  0.00  0.00    +0.000 NA
ATOM      5  N   UNL     1       1.525   8.138  19.618  0.00  0.00    +0.000 NA
ENDROOT
BRANCH   1   6
ATOM      6  C   UNL     1       0.245   9.963  18.491  0.00  0.00    +0.000 C 
BRANCH   6   7
ATOM      7  O   UNL     1       0.625  11.087  19.273  0.00  0.00    +0.000 OA
BRANCH   7  13
ATOM      8  C   UNL     1       0.054  11.173  21.686  0.00  0.00    +0.000 A 
ATOM      9  C   UNL     1      -0.844  11.614  22.661  0.00  0.00    +0.000 A 
ATOM     10  C   UNL     1      -2.028  12.241  22.289  0.00  0.00    +0.000 A 
ATOM     11  C   UNL     1      -2.288  12.510  20.948  0.00  0.00    +0.000 A 
ATOM     12  C   UNL     1      -1.356  12.152  19.964  0.00  0.00    +0.000 A 
ATOM     13  C   UNL     1      -0.179  11.457  20.318  0.00  0.00    +0.000 A 
BRANCH   8  15
ATOM     14  C   UNL     1       0.982   9.296  22.802  0.00  0.00    +0.000 C 
ATOM     15  O   UNL     1       1.190  10.512  22.078  0.00  0.00    +0.000 OA
ENDBRANCH   8  15
BRANCH  10  16
ATOM     16  C   UNL     1      -3.025  12.602  23.319  0.00  0.00    +0.000 C 
ATOM     17  O   UNL     1      -3.940  11.853  23.625  0.00  0.00    +0.000 OA
ENDBRANCH  10  16
BRANCH  12  18
ATOM     18  O   UNL     1      -1.785  12.467  18.698  0.00  0.00    +0.000 OA
ATOM     19  C   UNL     1      -2.948  11.805  18.214  0.00  0.00    +0.000 C 
ENDBRANCH  12  18
ENDBRANCH   7  13
ENDBRANCH   6   7
ENDBRANCH   1   6
BRANCH   3  20
ATOM     20  C   UNL     1       4.473   7.566  17.827  0.00  0.00    +0.000 C 
BRANCH  20  21
ATOM     21  C   UNL     1       4.752   6.079  17.706  0.00  0.00    +0.000 A 
ATOM     22  C   UNL     1       4.832   5.506  16.427  0.00  0.00    +0.000 A 
ATOM     23  C   UNL     1       4.581   4.146  16.275  0.00  0.00    +0.000 A 
ATOM     24  C   UNL     1       4.281   3.409  17.417  0.00  0.00    +0.000 A 
ATOM     25  C   UNL     1       4.759   3.849  18.638  0.00  0.00    +0.000 A 
ATOM     26  C   UNL     1       4.787   5.229  18.830  0.00  0.00    +0.000 A 
ATOM     27  C   UNL     1       4.544   2.922  19.758  0.00  0.00    +0.000 C 
ATOM     28  O   UNL     1       5.458   2.492  20.439  0.00  0.00    +0.000 OA
ATOM     29  C   UNL     1       3.128   2.631  19.994  0.00  0.00    +0.000 A 
ATOM     30  C   UNL     1       2.672   2.487  21.300  0.00  0.00    +0.000 A 
ATOM     31  C   UNL     1       1.336   2.764  21.558  0.00  0.00    +0.000 A 
ATOM     32  C   UNL     1       0.492   3.172  20.515  0.00  0.00    +0.000 A 
ATOM     33  C   UNL     1       0.941   3.184  19.185  0.00  0.00    +0.000 A 
ATOM     34  C   UNL     1       2.268   2.859  18.915  0.00  0.00    +0.000 A 
ATOM     35  C   UNL     1       2.857   2.918  17.533  0.00  0.00    +0.000 C 
ATOM     36  O   UNL     1       2.167   2.712  16.545  0.00  0.00    +0.000 OA
ENDBRANCH  20  21
ENDBRANCH   3  20
TORSDOF 8
ENDMDL
MODEL 3
REMARK VINA RESULT:      -8.6      2.789      4.781
REMARK  Name = 
REMARK  10 active torsions:
REMARK  status: ('A' for Active; 'I' for Inactive)
REMARK    1  A    between atoms: C_1  and  O_2
REMARK    2  A    between atoms: O_2  and  C_3
REMARK    3  A    between atoms: C_5  and  C_6
REMARK    4  A    between atoms: C_9  and  O_10
REMARK    5  A    between atoms: O_10  and  C_11
REMARK    6  A    between atoms: C_12  and  O_13
REMARK    7  A    between atoms: O_13  and  C_14
REMARK    8  A    between atoms: C_14  and  C_15
REMARK    9  A    between atoms: N_17  and  C_18
REMARK   10  A    between atoms: C_18  and  C_19
REMARK                            x       y       z     vdW  Elec       q    Type
REMARK                         _______ _______ _______ _____ _____    ______ ____
ROOT
ATOM      1  C   UNL     1       1.510   8.961  18.623  0.00  0.00    +0.000 A 
ATOM      2  C   UNL     1       2.433   8.750  17.637  0.00  0.00    +0.000 A 
ATOM      3  N   UNL     1       3.246   7.797  18.162  0.00  0.00    +0.000 N 
ATOM      4  N   UNL     1       2.773   7.321  19.330  0.00  0.00    +0.000 NA
ATOM      5  N   UNL     1       1.702   8.040  19.632  0.00  0.00    +0.000 NA
ENDROOT
BRANCH   1   6
ATOM      6  C   UNL     1       0.529  10.061  18.747  0.00  0.00    +0.000 C 
BRANCH   6   7
ATOM      7  O   UNL     1       0.784  10.854  19.898  0.00  0.00    +0.000 OA
BRANCH   7  13
ATOM      8  C   UNL     1      -1.215  12.315  20.062  0.00  0.00    +0.000 A 
ATOM      9  C   UNL     1      -2.268  12.773  20.859  0.00  0.00    +0.000 A 
ATOM     10  C   UNL     1      -2.346  12.400  22.195  0.00  0.00    +0.000 A 
ATOM     11  C   UNL     1      -1.427  11.500  22.728  0.00  0.00    +0.000 A 
ATOM     12  C   UNL     1      -0.417  10.963  21.919  0.00  0.00    +0.000 A 
ATOM     13  C   UNL     1      -0.283  11.381  20.577  0.00  0.00    +0.000 A 
BRANCH   8  15
ATOM     14  C   UNL     1      -0.264  13.852  18.524  0.00  0.00    +0.000 C 
ATOM     15  O   UNL     1      -1.132  12.739  18.761  0.00  0.00    +0.000 OA
ENDBRANCH   8  15
BRANCH  10  16
ATOM     16  C   UNL     1      -3.397  12.978  23.061  0.00  0.00    +0.000 C 
ATOM     17  O   UNL     1      -4.206  12.278  23.651  0.00  0.00    +0.000 OA
ENDBRANCH  10  16
BRANCH  12  18
ATOM     18  O   UNL     1       0.415  10.117  22.611  0.00  0.00    +0.000 OA
ATOM     19  C   UNL     1       0.074   8.736  22.635  0.00  0.00    +0.000 C 
ENDBRANCH  12  18
ENDBRANCH   7  13
ENDBRANCH   6   7
ENDBRANCH   1   6
BRANCH   3  20
ATOM     20  C   UNL     1       4.599   7.511  17.748  0.00  0.00    +0.000 C 
BRANCH  20  21
ATOM     21  C   UNL     1       4.844   6.017  17.650  0.00  0.00    +0.000 A 
ATOM     22  C   UNL     1       4.916   5.424  16.380  0.00  0.00    +0.000 A 
ATOM     23  C   UNL     1       4.634   4.068  16.246  0.00  0.00    +0.000 A 
ATOM     24  C   UNL     1       4.312   3.354  17.397  0.00  0.00    +0.000 A 
ATOM     25  C   UNL     1       4.794   3.801  18.613  0.00  0.00    +0.000 A 
ATOM     26  C   UNL     1       4.854   5.182  18.786  0.00  0.00    +0.000 A 
ATOM     27  C   UNL     1       4.553   2.895  19.746  0.00  0.00    +0.000 C 
ATOM     28  O   UNL     1       5.454   2.453  20.437  0.00  0.00    +0.000 OA
ATOM     29  C   UNL     1       3.129   2.640  19.979  0.00  0.00    +0.000 A 
ATOM     30  C   UNL     1       2.664   2.525  21.285  0.00  0.00    +0.000 A 
ATOM     31  C   UNL     1       1.334   2.838  21.533  0.00  0.00    +0.000 A 
ATOM     32  C   UNL     1       0.505   3.250  20.480  0.00  0.00    +0.000 A 
ATOM     33  C   UNL     1       0.960   3.232  19.152  0.00  0.00    +0.000 A 
ATOM     34  C   UNL     1       2.280   2.873  18.893  0.00  0.00    +0.000 A 
ATOM     35  C   UNL     1       2.876   2.898  17.513  0.00  0.00    +0.000 C 
ATOM     36  O   UNL     1       2.186   2.694  16.525  0.00  0.00    +0.000 OA
ENDBRANCH  20  21
ENDBRANCH   3  20
TORSDOF 8
ENDMDL
MODEL 4
REMARK VINA RESULT:      -8.5      2.348      4.900
REMARK  Name = 
REMARK  10 active torsions:
REMARK  status: ('A' for Active; 'I' for Inactive)
REMARK    1  A    between atoms: C_1  and  O_2
REMARK    2  A    between atoms: O_2  and  C_3
REMARK    3  A    between atoms: C_5  and  C_6
REMARK    4  A    between atoms: C_9  and  O_10
REMARK    5  A    between atoms: O_10  and  C_11
REMARK    6  A    between atoms: C_12  and  O_13
REMARK    7  A    between atoms: O_13  and  C_14
REMARK    8  A    between atoms: C_14  and  C_15
REMARK    9  A    between atoms: N_17  and  C_18
REMARK   10  A    between atoms: C_18  and  C_19
REMARK                            x       y       z     vdW  Elec       q    Type
REMARK                         _______ _______ _______ _____ _____    ______ ____
ROOT
ATOM      1  C   UNL     1       1.844   8.869  18.557  0.00  0.00    +0.000 A 
ATOM      2  C   UNL     1       2.780   8.651  17.583  0.00  0.00    +0.000 A 
ATOM      3  N   UNL     1       3.484   7.588  18.052  0.00  0.00    +0.000 N 
ATOM      4  N   UNL     1       2.927   7.067  19.164  0.00  0.00    +0.000 NA
ATOM      5  N   UNL     1       1.916   7.857  19.493  0.00  0.00    +0.000 NA
ENDROOT
BRANCH   1   6
ATOM      6  C   UNL     1       0.964  10.042  18.742  0.00  0.00    +0.000 C 
BRANCH   6   7
ATOM      7  O   UNL     1      -0.120   9.744  19.609  0.00  0.00    +0.000 OA
BRANCH   7  13
ATOM      8  C   UNL     1      -1.815  11.555  19.524  0.00  0.00    +0.000 A 
ATOM      9  C   UNL     1      -2.457  12.590  20.207  0.00  0.00    +0.000 A 
ATOM     10  C   UNL     1      -2.045  12.943  21.487  0.00  0.00    +0.000 A 
ATOM     11  C   UNL     1      -1.049  12.214  22.130  0.00  0.00    +0.000 A 
ATOM     12  C   UNL     1      -0.455  11.117  21.491  0.00  0.00    +0.000 A 
ATOM     13  C   UNL     1      -0.816  10.784  20.167  0.00  0.00    +0.000 A 
BRANCH   8  15
ATOM     14  C   UNL     1      -3.554  11.609  17.910  0.00  0.00    +0.000 C 
ATOM     15  O   UNL     1      -2.207  11.260  18.243  0.00  0.00    +0.000 OA
ENDBRANCH   8  15
BRANCH  10  16
ATOM     16  C   UNL     1      -2.651  14.112  22.160  0.00  0.00    +0.000 C 
ATOM     17  O   UNL     1      -2.379  14.406  23.315  0.00  0.00    +0.000 OA
ENDBRANCH  10  16
BRANCH  12  18
ATOM     18  O   UNL     1       0.524  10.531  22.257  0.00  0.00    +0.000 OA
ATOM     19  C   UNL     1       0.126   9.507  23.161  0.00  0.00    +0.000 C 
ENDBRANCH  12  18
ENDBRANCH   7  13
ENDBRANCH   6   7
ENDBRANCH   1   6
BRANCH   3  20
ATOM     20  C   UNL     1       4.819   7.210  17.656  0.00  0.00    +0.000 C 
BRANCH  20  21
ATOM     21  C   UNL     1       4.980   5.702  17.618  0.00  0.00    +0.000 A 
ATOM     22  C   UNL     1       5.018   5.055  16.373  0.00  0.00    +0.000 A 
ATOM     23  C   UNL     1       4.661   3.713  16.293  0.00  0.00    +0.000 A 
ATOM     24  C   UNL     1       4.301   3.065  17.472  0.00  0.00    +0.000 A 
ATOM     25  C   UNL     1       4.809   3.532  18.669  0.00  0.00    +0.000 A 
ATOM     26  C   UNL     1       4.946   4.914  18.787  0.00  0.00    +0.000 A 
ATOM     27  C   UNL     1       4.519   2.687  19.837  0.00  0.00    +0.000 C 
ATOM     28  O   UNL     1       5.394   2.225  20.546  0.00  0.00    +0.000 OA
ATOM     29  C   UNL     1       3.083   2.522  20.079  0.00  0.00    +0.000 A 
ATOM     30  C   UNL     1       2.614   2.486  21.388  0.00  0.00    +0.000 A 
ATOM     31  C   UNL     1       1.304   2.882  21.622  0.00  0.00    +0.000 A 
ATOM     32  C   UNL     1       0.497   3.297  20.553  0.00  0.00    +0.000 A 
ATOM     33  C   UNL     1       0.949   3.200  19.227  0.00  0.00    +0.000 A 
ATOM     34  C   UNL     1       2.247   2.758  18.983  0.00  0.00    +0.000 A 
ATOM     35  C   UNL     1       2.842   2.695  17.604  0.00  0.00    +0.000 C 
ATOM     36  O   UNL     1       2.140   2.490  16.625  0.00  0.00    +0.000 OA
ENDBRANCH  20  21
ENDBRANCH   3  20
TORSDOF 8
ENDMDL
MODEL 5
REMARK VINA RESULT:      -8.5      0.420      2.154
REMARK  Name = 
REMARK  10 active torsions:
REMARK  status: ('A' for Active; 'I' for Inactive)
REMARK    1  A    between atoms: C_1  and  O_2
REMARK    2  A    between atoms: O_2  and  C_3
REMARK    3  A    between atoms: C_5  and  C_6
REMARK    4  A    between atoms: C_9  and  O_10
REMARK    5  A    between atoms: O_10  and  C_11
REMARK    6  A    between atoms: C_12  and  O_13
REMARK    7  A    between atoms: O_13  and  C_14
REMARK    8  A    between atoms: C_14  and  C_15
REMARK    9  A    between atoms: N_17  and  C_18
REMARK   10  A    between atoms: C_18  and  C_19
REMARK                            x       y       z     vdW  Elec       q    Type
REMARK                         _______ _______ _______ _____ _____    ______ ____
ROOT
ATOM      1  C   UNL     1       0.277  10.497  19.610  0.00  0.00    +0.000 A 
ATOM      2  C   UNL     1       0.813   9.642  20.533  0.00  0.00    +0.000 A 
ATOM      3  N   UNL     1       1.415   8.691  19.772  0.00  0.00    +0.000 N 
ATOM      4  N   UNL     1       1.402   9.012  18.463  0.00  0.00    +0.000 NA
ATOM      5  N   UNL     1       0.691  10.124  18.348  0.00  0.00    +0.000 NA
ENDROOT
BRANCH   1   6
ATOM      6  C   UNL     1      -0.714  11.575  19.819  0.00  0.00    +0.000 C 
BRANCH   6   7
ATOM      7  O   UNL     1      -1.445  11.843  18.632  0.00  0.00    +0.000 OA
BRANCH   7  13
ATOM      8  C   UNL     1      -3.570  10.896  17.769  0.00  0.00    +0.000 A 
ATOM      9  C   UNL     1      -4.959  10.823  17.903  0.00  0.00    +0.000 A 
ATOM     10  C   UNL     1      -5.614  11.616  18.839  0.00  0.00    +0.000 A 
ATOM     11  C   UNL     1      -4.884  12.425  19.706  0.00  0.00    +0.000 A 
ATOM     12  C   UNL     1      -3.484  12.443  19.642  0.00  0.00    +0.000 A 
ATOM     13  C   UNL     1      -2.807  11.694  18.656  0.00  0.00    +0.000 A 
BRANCH   8  15
ATOM     14  C   UNL     1      -2.833  10.755  15.518  0.00  0.00    +0.000 C 
ATOM     15  O   UNL     1      -2.955  10.140  16.804  0.00  0.00    +0.000 OA
ENDBRANCH   8  15
BRANCH  10  16
ATOM     16  C   UNL     1      -7.091  11.619  18.898  0.00  0.00    +0.000 C 
ATOM     17  O   UNL     1      -7.700  11.179  19.862  0.00  0.00    +0.000 OA
ENDBRANCH  10  16
BRANCH  12  18
ATOM     18  O   UNL     1      -2.930  13.314  20.549  0.00  0.00    +0.000 OA
ATOM     19  C   UNL     1      -3.731  14.406  20.985  0.00  0.00    +0.000 C 
ENDBRANCH  12  18
ENDBRANCH   7  13
ENDBRANCH   6   7
ENDBRANCH   1   6
BRANCH   3  20
ATOM     20  C   UNL     1       1.760   7.355  20.195  0.00  0.00    +0.000 C 
BRANCH  20  21
ATOM     21  C   UNL     1       2.296   6.529  19.041  0.00  0.00    +0.000 A 
ATOM     22  C   UNL     1       1.907   5.185  18.931  0.00  0.00    +0.000 A 
ATOM     23  C   UNL     1       2.724   4.295  18.241  0.00  0.00    +0.000 A 
ATOM     24  C   UNL     1       3.890   4.795  17.668  0.00  0.00    +0.000 A 
ATOM     25  C   UNL     1       3.938   6.130  17.313  0.00  0.00    +0.000 A 
ATOM     26  C   UNL     1       3.283   7.020  18.162  0.00  0.00    +0.000 A 
ATOM     27  C   UNL     1       5.135   6.529  16.559  0.00  0.00    +0.000 C 
ATOM     28  O   UNL     1       5.076   7.046  15.458  0.00  0.00    +0.000 OA
ATOM     29  C   UNL     1       6.379   6.292  17.298  0.00  0.00    +0.000 A 
ATOM     30  C   UNL     1       7.419   7.209  17.186  0.00  0.00    +0.000 A 
ATOM     31  C   UNL     1       8.317   7.307  18.242  0.00  0.00    +0.000 A 
ATOM     32  C   UNL     1       8.160   6.491  19.372  0.00  0.00    +0.000 A 
ATOM     33  C   UNL     1       7.182   5.484  19.406  0.00  0.00    +0.000 A 
ATOM     34  C   UNL     1       6.309   5.351  18.329  0.00  0.00    +0.000 A 
ATOM     35  C   UNL     1       5.185   4.353  18.310  0.00  0.00    +0.000 C 
ATOM     36  O   UNL     1       5.274   3.292  18.909  0.00  0.00    +0.000 OA
ENDBRANCH  20  21
ENDBRANCH   3  20
TORSDOF 8
ENDMDL
MODEL 6
REMARK VINA RESULT:      -8.4      2.521      3.004
REMARK  Name = 
REMARK  10 active torsions:
REMARK  status: ('A' for Active; 'I' for Inactive)
REMARK    1  A    between atoms: C_1  and  O_2
REMARK    2  A    between atoms: O_2  and  C_3
REMARK    3  A    between atoms: C_5  and  C_6
REMARK    4  A    between atoms: C_9  and  O_10
REMARK    5  A    between atoms: O_10  and  C_11
REMARK    6  A    between atoms: C_12  and  O_13
REMARK    7  A    between atoms: O_13  and  C_14
REMARK    8  A    between atoms: C_14  and  C_15
REMARK    9  A    between atoms: N_17  and  C_18
REMARK   10  A    between atoms: C_18  and  C_19
REMARK                            x       y       z     vdW  Elec       q    Type
REMARK                         _______ _______ _______ _____ _____    ______ ____
ROOT
ATOM      1  C   UNL     1       0.714  11.138  19.327  0.00  0.00    +0.000 A 
ATOM      2  C   UNL     1       1.530  10.326  20.066  0.00  0.00    +0.000 A 
ATOM      3  N   UNL     1       1.449   9.130  19.428  0.00  0.00    +0.000 N 
ATOM      4  N   UNL     1       0.763   9.222  18.271  0.00  0.00    +0.000 NA
ATOM      5  N   UNL     1       0.294  10.459  18.202  0.00  0.00    +0.000 NA
ENDROOT
BRANCH   1   6
ATOM      6  C   UNL     1       0.191  12.477  19.670  0.00  0.00    +0.000 C 
BRANCH   6   7
ATOM      7  O   UNL     1       0.234  12.706  21.071  0.00  0.00    +0.000 OA
BRANCH   7  13
ATOM      8  C   UNL     1      -1.994  13.649  21.621  0.00  0.00    +0.000 A 
ATOM      9  C   UNL     1      -3.154  13.539  22.392  0.00  0.00    +0.000 A 
ATOM     10  C   UNL     1      -3.243  12.572  23.387  0.00  0.00    +0.000 A 
ATOM     11  C   UNL     1      -2.212  11.652  23.565  0.00  0.00    +0.000 A 
ATOM     12  C   UNL     1      -1.080  11.695  22.741  0.00  0.00    +0.000 A 
ATOM     13  C   UNL     1      -0.944  12.710  21.769  0.00  0.00    +0.000 A 
BRANCH   8  15
ATOM     14  C   UNL     1      -2.768  15.771  20.894  0.00  0.00    +0.000 C 
ATOM     15  O   UNL     1      -1.913  14.644  20.681  0.00  0.00    +0.000 OA
ENDBRANCH   8  15
BRANCH  10  16
ATOM     16  C   UNL     1      -4.425  12.533  24.274  0.00  0.00    +0.000 C 
ATOM     17  O   UNL     1      -5.551  12.336  23.843  0.00  0.00    +0.000 OA
ENDBRANCH  10  16
BRANCH  12  18
ATOM     18  O   UNL     1      -0.155  10.735  23.072  0.00  0.00    +0.000 OA
ATOM     19  C   UNL     1      -0.520   9.374  22.875  0.00  0.00    +0.000 C 
ENDBRANCH  12  18
ENDBRANCH   7  13
ENDBRANCH   6   7
ENDBRANCH   1   6
BRANCH   3  20
ATOM     20  C   UNL     1       1.754   7.839  19.998  0.00  0.00    +0.000 C 
BRANCH  20  21
ATOM     21  C   UNL     1       2.253   6.871  18.942  0.00  0.00    +0.000 A 
ATOM     22  C   UNL     1       1.807   5.541  18.977  0.00  0.00    +0.000 A 
ATOM     23  C   UNL     1       2.585   4.547  18.389  0.00  0.00    +0.000 A 
ATOM     24  C   UNL     1       3.770   4.932  17.769  0.00  0.00    +0.000 A 
ATOM     25  C   UNL     1       3.874   6.218  17.272  0.00  0.00    +0.000 A 
ATOM     26  C   UNL     1       3.259   7.221  18.018  0.00  0.00    +0.000 A 
ATOM     27  C   UNL     1       5.086   6.482  16.483  0.00  0.00    +0.000 C 
ATOM     28  O   UNL     1       5.048   6.878  15.332  0.00  0.00    +0.000 OA
ATOM     29  C   UNL     1       6.320   6.274  17.247  0.00  0.00    +0.000 A 
ATOM     30  C   UNL     1       7.398   7.129  17.040  0.00  0.00    +0.000 A 
ATOM     31  C   UNL     1       8.301   7.302  18.081  0.00  0.00    +0.000 A 
ATOM     32  C   UNL     1       8.111   6.622  19.292  0.00  0.00    +0.000 A 
ATOM     33  C   UNL     1       7.091   5.666  19.432  0.00  0.00    +0.000 A 
ATOM     34  C   UNL     1       6.212   5.454  18.373  0.00  0.00    +0.000 A 
ATOM     35  C   UNL     1       5.046   4.509  18.459  0.00  0.00    +0.000 C 
ATOM     36  O   UNL     1       5.091   3.515  19.170  0.00  0.00    +0.000 OA
ENDBRANCH  20  21
ENDBRANCH   3  20
TORSDOF 8
ENDMDL
MODEL 7
REMARK VINA RESULT:      -8.3      2.097      3.921
REMARK  Name = 
REMARK  10 active torsions:
REMARK  status: ('A' for Active; 'I' for Inactive)
REMARK    1  A    between atoms: C_1  and  O_2
REMARK    2  A    between atoms: O_2  and  C_3
REMARK    3  A    between atoms: C_5  and  C_6
REMARK    4  A    between atoms: C_9  and  O_10
REMARK    5  A    between atoms: O_10  and  C_11
REMARK    6  A    between atoms: C_12  and  O_13
REMARK    7  A    between atoms: O_13  and  C_14
REMARK    8  A    between atoms: C_14  and  C_15
REMARK    9  A    between atoms: N_17  and  C_18
REMARK   10  A    between atoms: C_18  and  C_19
REMARK                            x       y       z     vdW  Elec       q    Type
REMARK                         _______ _______ _______ _____ _____    ______ ____
ROOT
ATOM      1  C   UNL     1       1.531   8.843  19.136  0.00  0.00    +0.000 A 
ATOM      2  C   UNL     1       2.312   8.846  18.013  0.00  0.00    +0.000 A 
ATOM      3  N   UNL     1       3.089   7.743  18.164  0.00  0.00    +0.000 N 
ATOM      4  N   UNL     1       2.713   7.003  19.226  0.00  0.00    +0.000 NA
ATOM      5  N   UNL     1       1.754   7.679  19.843  0.00  0.00    +0.000 NA
ENDROOT
BRANCH   1   6
ATOM      6  C   UNL     1       0.677   9.927  19.667  0.00  0.00    +0.000 C 
BRANCH   6   7
ATOM      7  O   UNL     1       0.109  10.699  18.619  0.00  0.00    +0.000 OA
BRANCH   7  13
ATOM      8  C   UNL     1      -1.564  12.120  19.776  0.00  0.00    +0.000 A 
ATOM      9  C   UNL     1      -2.891  12.554  19.835  0.00  0.00    +0.000 A 
ATOM     10  C   UNL     1      -3.846  11.999  18.991  0.00  0.00    +0.000 A 
ATOM     11  C   UNL     1      -3.472  11.070  18.024  0.00  0.00    +0.000 A 
ATOM     12  C   UNL     1      -2.130  10.690  17.893  0.00  0.00    +0.000 A 
ATOM     13  C   UNL     1      -1.157  11.194  18.784  0.00  0.00    +0.000 A 
BRANCH   8  15
ATOM     14  C   UNL     1      -0.754  12.186  22.005  0.00  0.00    +0.000 C 
ATOM     15  O   UNL     1      -0.652  12.647  20.654  0.00  0.00    +0.000 OA
ENDBRANCH   8  15
BRANCH  10  16
ATOM     16  C   UNL     1      -5.267  12.379  19.136  0.00  0.00    +0.000 C 
ATOM     17  O   UNL     1      -5.638  13.193  19.969  0.00  0.00    +0.000 OA
ENDBRANCH  10  16
BRANCH  12  18
ATOM     18  O   UNL     1      -1.945   9.748  16.910  0.00  0.00    +0.000 OA
ATOM     19  C   UNL     1      -2.717   9.879  15.722  0.00  0.00    +0.000 C 
ENDBRANCH  12  18
ENDBRANCH   7  13
ENDBRANCH   6   7
ENDBRANCH   1   6
BRANCH   3  20
ATOM     20  C   UNL     1       4.353   7.497  17.512  0.00  0.00    +0.000 C 
BRANCH  20  21
ATOM     21  C   UNL     1       4.683   6.016  17.482  0.00  0.00    +0.000 A 
ATOM     22  C   UNL     1       4.787   5.370  16.241  0.00  0.00    +0.000 A 
ATOM     23  C   UNL     1       4.583   3.995  16.171  0.00  0.00    +0.000 A 
ATOM     24  C   UNL     1       4.304   3.319  17.355  0.00  0.00    +0.000 A 
ATOM     25  C   UNL     1       4.762   3.848  18.547  0.00  0.00    +0.000 A 
ATOM     26  C   UNL     1       4.743   5.237  18.656  0.00  0.00    +0.000 A 
ATOM     27  C   UNL     1       4.575   2.984  19.722  0.00  0.00    +0.000 C 
ATOM     28  O   UNL     1       5.500   2.627  20.429  0.00  0.00    +0.000 OA
ATOM     29  C   UNL     1       3.168   2.659  19.973  0.00  0.00    +0.000 A 
ATOM     30  C   UNL     1       2.713   2.579  21.285  0.00  0.00    +0.000 A 
ATOM     31  C   UNL     1       1.368   2.827  21.524  0.00  0.00    +0.000 A 
ATOM     32  C   UNL     1       0.514   3.141  20.457  0.00  0.00    +0.000 A 
ATOM     33  C   UNL     1       0.967   3.088  19.129  0.00  0.00    +0.000 A 
ATOM     34  C   UNL     1       2.305   2.793  18.881  0.00  0.00    +0.000 A 
ATOM     35  C   UNL     1       2.896   2.788  17.499  0.00  0.00    +0.000 C 
ATOM     36  O   UNL     1       2.218   2.499  16.524  0.00  0.00    +0.000 OA
ENDBRANCH  20  21
ENDBRANCH   3  20
TORSDOF 8
ENDMDL
MODEL 8
REMARK VINA RESULT:      -8.3      2.031      4.403
REMARK  Name = 
REMARK  10 active torsions:
REMARK  status: ('A' for Active; 'I' for Inactive)
REMARK    1  A    between atoms: C_1  and  O_2
REMARK    2  A    between atoms: O_2  and  C_3
REMARK    3  A    between atoms: C_5  and  C_6
REMARK    4  A    between atoms: C_9  and  O_10
REMARK    5  A    between atoms: O_10  and  C_11
REMARK    6  A    between atoms: C_12  and  O_13
REMARK    7  A    between atoms: O_13  and  C_14
REMARK    8  A    between atoms: C_14  and  C_15
REMARK    9  A    between atoms: N_17  and  C_18
REMARK   10  A    between atoms: C_18  and  C_19
REMARK                            x       y       z     vdW  Elec       q    Type
REMARK                         _______ _______ _______ _____ _____    ______ ____
ROOT
ATOM      1  C   UNL     1       1.526   8.928  19.066  0.00  0.00    +0.000 A 
ATOM      2  C   UNL     1       2.406   9.005  18.022  0.00  0.00    +0.000 A 
ATOM      3  N   UNL     1       3.114   7.849  18.118  0.00  0.00    +0.000 N 
ATOM      4  N   UNL     1       2.606   7.025  19.056  0.00  0.00    +0.000 NA
ATOM      5  N   UNL     1       1.628   7.685  19.657  0.00  0.00    +0.000 NA
ENDROOT
BRANCH   1   6
ATOM      6  C   UNL     1       0.678   9.996  19.636  0.00  0.00    +0.000 C 
BRANCH   6   7
ATOM      7  O   UNL     1       0.106  10.803  18.617  0.00  0.00    +0.000 OA
BRANCH   7  13
ATOM      8  C   UNL     1      -2.230  10.636  17.799  0.00  0.00    +0.000 A 
ATOM      9  C   UNL     1      -3.565  11.005  17.985  0.00  0.00    +0.000 A 
ATOM     10  C   UNL     1      -3.907  11.914  18.979  0.00  0.00    +0.000 A 
ATOM     11  C   UNL     1      -2.935  12.398  19.851  0.00  0.00    +0.000 A 
ATOM     12  C   UNL     1      -1.606  11.970  19.733  0.00  0.00    +0.000 A 
ATOM     13  C   UNL     1      -1.230  11.097  18.688  0.00  0.00    +0.000 A 
BRANCH   8  15
ATOM     14  C   UNL     1      -2.714   9.894  15.597  0.00  0.00    +0.000 C 
ATOM     15  O   UNL     1      -1.914   9.776  16.778  0.00  0.00    +0.000 OA
ENDBRANCH   8  15
BRANCH  10  16
ATOM     16  C   UNL     1      -5.303  12.387  19.098  0.00  0.00    +0.000 C 
ATOM     17  O   UNL     1      -5.894  12.395  20.167  0.00  0.00    +0.000 OA
ENDBRANCH  10  16
BRANCH  12  18
ATOM     18  O   UNL     1      -0.779  12.566  20.654  0.00  0.00    +0.000 OA
ATOM     19  C   UNL     1      -1.013  12.281  22.028  0.00  0.00    +0.000 C 
ENDBRANCH  12  18
ENDBRANCH   7  13
ENDBRANCH   6   7
ENDBRANCH   1   6
BRANCH   3  20
ATOM     20  C   UNL     1       4.420   7.602  17.555  0.00  0.00    +0.000 C 
BRANCH  20  21
ATOM     21  C   UNL     1       4.729   6.118  17.502  0.00  0.00    +0.000 A 
ATOM     22  C   UNL     1       4.832   5.491  16.250  0.00  0.00    +0.000 A 
ATOM     23  C   UNL     1       4.609   4.121  16.156  0.00  0.00    +0.000 A 
ATOM     24  C   UNL     1       4.313   3.429  17.328  0.00  0.00    +0.000 A 
ATOM     25  C   UNL     1       4.772   3.932  18.531  0.00  0.00    +0.000 A 
ATOM     26  C   UNL     1       4.771   5.319  18.663  0.00  0.00    +0.000 A 
ATOM     27  C   UNL     1       4.566   3.051  19.690  0.00  0.00    +0.000 C 
ATOM     28  O   UNL     1       5.482   2.669  20.396  0.00  0.00    +0.000 OA
ATOM     29  C   UNL     1       3.153   2.741  19.927  0.00  0.00    +0.000 A 
ATOM     30  C   UNL     1       2.689   2.646  21.235  0.00  0.00    +0.000 A 
ATOM     31  C   UNL     1       1.346   2.908  21.470  0.00  0.00    +0.000 A 
ATOM     32  C   UNL     1       0.503   3.252  20.404  0.00  0.00    +0.000 A 
ATOM     33  C   UNL     1       0.963   3.215  19.078  0.00  0.00    +0.000 A 
ATOM     34  C   UNL     1       2.299   2.905  18.832  0.00  0.00    +0.000 A 
ATOM     35  C   UNL     1       2.898   2.915  17.454  0.00  0.00    +0.000 C 
ATOM     36  O   UNL     1       2.221   2.652  16.471  0.00  0.00    +0.000 OA
ENDBRANCH  20  21
ENDBRANCH   3  20
TORSDOF 8
ENDMDL
MODEL 9
REMARK VINA RESULT:      -8.2      2.263      3.574
REMARK  Name = 
REMARK  10 active torsions:
REMARK  status: ('A' for Active; 'I' for Inactive)
REMARK    1  A    between atoms: C_1  and  O_2
REMARK    2  A    between atoms: O_2  and  C_3
REMARK    3  A    between atoms: C_5  and  C_6
REMARK    4  A    between atoms: C_9  and  O_10
REMARK    5  A    between atoms: O_10  and  C_11
REMARK    6  A    between atoms: C_12  and  O_13
REMARK    7  A    between atoms: O_13  and  C_14
REMARK    8  A    between atoms: C_14  and  C_15
REMARK    9  A    between atoms: N_17  and  C_18
REMARK   10  A    between atoms: C_18  and  C_19
REMARK                            x       y       z     vdW  Elec       q    Type
REMARK                         _______ _______ _______ _____ _____    ______ ____
ROOT
ATOM      1  C   UNL     1      -0.334  11.050  19.051  0.00  0.00    +0.000 A 
ATOM      2  C   UNL     1      -0.033   9.809  18.560  0.00  0.00    +0.000 A 
ATOM      3  N   UNL     1       1.324   9.815  18.494  0.00  0.00    +0.000 N 
ATOM      4  N   UNL     1       1.850  10.921  19.059  0.00  0.00    +0.000 NA
ATOM      5  N   UNL     1       0.833  11.699  19.399  0.00  0.00    +0.000 NA
ENDROOT
BRANCH   1   6
ATOM      6  C   UNL     1      -1.647  11.728  19.096  0.00  0.00    +0.000 C 
BRANCH   6   7
ATOM      7  O   UNL     1      -1.655  12.778  20.052  0.00  0.00    +0.000 OA
BRANCH   7  13
ATOM      8  C   UNL     1      -3.859  13.115  21.141  0.00  0.00    +0.000 A 
ATOM      9  C   UNL     1      -4.631  12.957  22.295  0.00  0.00    +0.000 A 
ATOM     10  C   UNL     1      -4.051  12.476  23.463  0.00  0.00    +0.000 A 
ATOM     11  C   UNL     1      -2.720  12.068  23.469  0.00  0.00    +0.000 A 
ATOM     12  C   UNL     1      -1.956  12.138  22.296  0.00  0.00    +0.000 A 
ATOM     13  C   UNL     1      -2.510  12.685  21.118  0.00  0.00    +0.000 A 
BRANCH   8  15
ATOM     14  C   UNL     1      -5.799  14.071  20.165  0.00  0.00    +0.000 C 
ATOM     15  O   UNL     1      -4.443  13.640  20.016  0.00  0.00    +0.000 OA
ENDBRANCH   8  15
BRANCH  10  16
ATOM     16  C   UNL     1      -4.844  12.419  24.710  0.00  0.00    +0.000 C 
ATOM     17  O   UNL     1      -5.998  12.017  24.724  0.00  0.00    +0.000 OA
ENDBRANCH  10  16
BRANCH  12  18
ATOM     18  O   UNL     1      -0.661  11.722  22.489  0.00  0.00    +0.000 OA
ATOM     19  C   UNL     1      -0.451  10.347  22.788  0.00  0.00    +0.000 C 
ENDBRANCH  12  18
ENDBRANCH   7  13
ENDBRANCH   6   7
ENDBRANCH   1   6
BRANCH   3  20
ATOM     20  C   UNL     1       2.140   8.954  17.672  0.00  0.00    +0.000 C 
BRANCH  20  21
ATOM     21  C   UNL     1       2.240   7.559  18.260  0.00  0.00    +0.000 A 
ATOM     22  C   UNL     1       2.381   7.417  19.649  0.00  0.00    +0.000 A 
ATOM     23  C   UNL     1       2.965   6.261  20.159  0.00  0.00    +0.000 A 
ATOM     24  C   UNL     1       3.364   5.282  19.254  0.00  0.00    +0.000 A 
ATOM     25  C   UNL     1       2.719   5.201  18.034  0.00  0.00    +0.000 A 
ATOM     26  C   UNL     1       2.343   6.409  17.451  0.00  0.00    +0.000 A 
ATOM     27  C   UNL     1       3.082   4.034  17.216  0.00  0.00    +0.000 C 
ATOM     28  O   UNL     1       2.261   3.227  16.821  0.00  0.00    +0.000 OA
ATOM     29  C   UNL     1       4.510   3.991  16.888  0.00  0.00    +0.000 A 
ATOM     30  C   UNL     1       4.905   3.541  15.632  0.00  0.00    +0.000 A 
ATOM     31  C   UNL     1       6.114   4.000  15.126  0.00  0.00    +0.000 A 
ATOM     32  C   UNL     1       6.896   4.886  15.880  0.00  0.00    +0.000 A 
ATOM     33  C   UNL     1       6.542   5.223  17.196  0.00  0.00    +0.000 A 
ATOM     34  C   UNL     1       5.353   4.727  17.726  0.00  0.00    +0.000 A 
ATOM     35  C   UNL     1       4.855   5.094  19.096  0.00  0.00    +0.000 C 
ATOM     36  O   UNL     1       5.634   5.363  19.998  0.00  0.00    +0.000 OA
ENDBRANCH  20  21
ENDBRANCH   3  20
TORSDOF 8
ENDMDL
