MODEL 1
REMARK VINA RESULT:      -9.2      0.000      0.000
REMARK  Name = 
REMARK  3 active torsions:
REMARK  status: ('A' for Active; 'I' for Inactive)
REMARK    1  A    between atoms: C_1  and  C_2
REMARK    2  A    between atoms: C_12  and  C_13
REMARK    3  A    between atoms: C_19  and  C_20
REMARK                            x       y       z     vdW  Elec       q    Type
REMARK                         _______ _______ _______ _____ _____    ______ ____
ROOT
ATOM      1  C   UNL     1       1.104   9.312  19.951  0.00  0.00    +0.000 A 
ATOM      2  C   UNL     1       1.359   9.699  21.255  0.00  0.00    +0.000 A 
ATOM      3  N   UNL     1       0.419  10.622  21.625  0.00  0.00    +0.000 N 
ATOM      4  C   UNL     1      -0.466  10.837  20.595  0.00  0.00    +0.000 A 
ATOM      5  C   UNL     1      -1.583  11.676  20.524  0.00  0.00    +0.000 A 
ATOM      6  C   UNL     1      -2.314  11.682  19.328  0.00  0.00    +0.000 A 
ATOM      7  C   UNL     1      -1.953  10.880  18.237  0.00  0.00    +0.000 A 
ATOM      8  C   UNL     1      -0.823  10.052  18.345  0.00  0.00    +0.000 A 
ATOM      9  C   UNL     1      -0.060  10.027  19.532  0.00  0.00    +0.000 A 
ATOM     10  H   UNL     1       0.375  11.079  22.526  0.00  0.00    +0.000 HD
ENDROOT
BRANCH   1  22
ATOM     11  C   UNL     1       4.032   2.966  18.603  0.00  0.00    +0.000 C 
ATOM     12  C   UNL     1       2.724   3.745  18.459  0.00  0.00    +0.000 C 
ATOM     13  C   UNL     1       1.484   2.859  18.645  0.00  0.00    +0.000 C 
ATOM     14  C   UNL     1       1.281   2.427  20.091  0.00  0.00    +0.000 C 
ATOM     15  C   UNL     1       1.232   3.644  21.008  0.00  0.00    +0.000 C 
ATOM     16  C   UNL     1       2.448   4.551  20.829  0.00  0.00    +0.000 C 
ATOM     17  N   UNL     1       2.697   4.857  19.419  0.00  0.00    +0.000 N 
ATOM     18  C   UNL     1       2.664   6.176  18.988  0.00  0.00    +0.000 A 
ATOM     19  C   UNL     1       3.360   6.568  17.855  0.00  0.00    +0.000 A 
ATOM     20  C   UNL     1       3.280   7.887  17.473  0.00  0.00    +0.000 A 
ATOM     21  N   UNL     1       2.551   8.798  18.125  0.00  0.00    +0.000 NA
ATOM     22  C   UNL     1       1.920   8.349  19.223  0.00  0.00    +0.000 A 
ATOM     23  N   UNL     1       1.966   7.085  19.692  0.00  0.00    +0.000 NA
ENDBRANCH   1  22
BRANCH   7  24
ATOM     24  C   UNL     1      -2.743  10.915  17.013  0.00  0.00    +0.000 A 
ATOM     25  N   UNL     1      -3.917  11.464  16.769  0.00  0.00    +0.000 NA
ATOM     26  N   UNL     1      -4.194  11.213  15.437  0.00  0.00    +0.000 NA
ATOM     27  C   UNL     1      -3.174  10.531  14.973  0.00  0.00    +0.000 A 
ATOM     28  N   UNL     1      -2.949  10.034  13.753  0.00  0.00    +0.000 N 
ATOM     29  O   UNL     1      -2.218  10.290  15.910  0.00  0.00    +0.000 OA
ATOM     30  H   UNL     1      -3.757   9.958  13.147  0.00  0.00    +0.000 HD
ATOM     31  H   UNL     1      -2.303   9.260  13.688  0.00  0.00    +0.000 HD
ENDBRANCH   7  24
TORSDOF 2
ENDMDL
MODEL 2
REMARK VINA RESULT:      -8.8      3.333      8.580
REMARK  Name = 
REMARK  3 active torsions:
REMARK  status: ('A' for Active; 'I' for Inactive)
REMARK    1  A    between atoms: C_1  and  C_2
REMARK    2  A    between atoms: C_12  and  C_13
REMARK    3  A    between atoms: C_19  and  C_20
REMARK                            x       y       z     vdW  Elec       q    Type
REMARK                         _______ _______ _______ _____ _____    ______ ____
ROOT
ATOM      1  C   UNL     1       1.033   9.739  19.811  0.00  0.00    +0.000 A 
ATOM      2  C   UNL     1       1.184  10.651  18.780  0.00  0.00    +0.000 A 
ATOM      3  N   UNL     1       1.913  10.062  17.784  0.00  0.00    +0.000 N 
ATOM      4  C   UNL     1       2.232   8.769  18.129  0.00  0.00    +0.000 A 
ATOM      5  C   UNL     1       2.948   7.797  17.424  0.00  0.00    +0.000 A 
ATOM      6  C   UNL     1       3.110   6.544  18.031  0.00  0.00    +0.000 A 
ATOM      7  C   UNL     1       2.578   6.262  19.296  0.00  0.00    +0.000 A 
ATOM      8  C   UNL     1       1.868   7.265  19.975  0.00  0.00    +0.000 A 
ATOM      9  C   UNL     1       1.691   8.540  19.396  0.00  0.00    +0.000 A 
ATOM     10  H   UNL     1       2.179  10.508  16.916  0.00  0.00    +0.000 HD
ENDROOT
BRANCH   1  22
ATOM     11  C   UNL     1      -3.226  13.445  24.144  0.00  0.00    +0.000 C 
ATOM     12  C   UNL     1      -3.258  12.461  22.975  0.00  0.00    +0.000 C 
ATOM     13  C   UNL     1      -4.418  12.732  22.005  0.00  0.00    +0.000 C 
ATOM     14  C   UNL     1      -4.209  13.994  21.177  0.00  0.00    +0.000 C 
ATOM     15  C   UNL     1      -2.876  13.932  20.440  0.00  0.00    +0.000 C 
ATOM     16  C   UNL     1      -1.708  13.646  21.383  0.00  0.00    +0.000 C 
ATOM     17  N   UNL     1      -1.979  12.500  22.254  0.00  0.00    +0.000 N 
ATOM     18  C   UNL     1      -1.152  11.387  22.199  0.00  0.00    +0.000 A 
ATOM     19  C   UNL     1      -1.037  10.537  23.288  0.00  0.00    +0.000 A 
ATOM     20  C   UNL     1      -0.209   9.444  23.168  0.00  0.00    +0.000 A 
ATOM     21  N   UNL     1       0.468   9.154  22.053  0.00  0.00    +0.000 NA
ATOM     22  C   UNL     1       0.321  10.032  21.047  0.00  0.00    +0.000 A 
ATOM     23  N   UNL     1      -0.440  11.145  21.083  0.00  0.00    +0.000 NA
ENDBRANCH   1  22
BRANCH   7  24
ATOM     24  C   UNL     1       2.769   4.945  19.891  0.00  0.00    +0.000 A 
ATOM     25  N   UNL     1       3.692   4.030  19.664  0.00  0.00    +0.000 NA
ATOM     26  N   UNL     1       3.412   2.977  20.515  0.00  0.00    +0.000 NA
ATOM     27  C   UNL     1       2.343   3.325  21.191  0.00  0.00    +0.000 A 
ATOM     28  N   UNL     1       1.658   2.664  22.129  0.00  0.00    +0.000 N 
ATOM     29  O   UNL     1       1.866   4.551  20.847  0.00  0.00    +0.000 OA
ATOM     30  H   UNL     1       1.827   1.666  22.183  0.00  0.00    +0.000 HD
ATOM     31  H   UNL     1       0.695   2.933  22.267  0.00  0.00    +0.000 HD
ENDBRANCH   7  24
TORSDOF 2
ENDMDL
MODEL 3
REMARK VINA RESULT:      -8.7      3.408      8.604
REMARK  Name = 
REMARK  3 active torsions:
REMARK  status: ('A' for Active; 'I' for Inactive)
REMARK    1  A    between atoms: C_1  and  C_2
REMARK    2  A    between atoms: C_12  and  C_13
REMARK    3  A    between atoms: C_19  and  C_20
REMARK                            x       y       z     vdW  Elec       q    Type
REMARK                         _______ _______ _______ _____ _____    ______ ____
ROOT
ATOM      1  C   UNL     1       1.065   9.685  19.763  0.00  0.00    +0.000 A 
ATOM      2  C   UNL     1       1.184  10.592  18.724  0.00  0.00    +0.000 A 
ATOM      3  N   UNL     1       1.922  10.015  17.727  0.00  0.00    +0.000 N 
ATOM      4  C   UNL     1       2.276   8.733  18.080  0.00  0.00    +0.000 A 
ATOM      5  C   UNL     1       3.012   7.774  17.376  0.00  0.00    +0.000 A 
ATOM      6  C   UNL     1       3.210   6.530  17.992  0.00  0.00    +0.000 A 
ATOM      7  C   UNL     1       2.695   6.244  19.263  0.00  0.00    +0.000 A 
ATOM      8  C   UNL     1       1.963   7.235  19.940  0.00  0.00    +0.000 A 
ATOM      9  C   UNL     1       1.750   8.500  19.352  0.00  0.00    +0.000 A 
ATOM     10  H   UNL     1       2.170  10.460  16.854  0.00  0.00    +0.000 HD
ENDROOT
BRANCH   1  22
ATOM     11  C   UNL     1      -3.153  13.384  24.143  0.00  0.00    +0.000 C 
ATOM     12  C   UNL     1      -3.196  12.418  22.959  0.00  0.00    +0.000 C 
ATOM     13  C   UNL     1      -4.350  12.719  21.991  0.00  0.00    +0.000 C 
ATOM     14  C   UNL     1      -4.123  13.990  21.182  0.00  0.00    +0.000 C 
ATOM     15  C   UNL     1      -2.788  13.921  20.447  0.00  0.00    +0.000 C 
ATOM     16  C   UNL     1      -1.627  13.605  21.387  0.00  0.00    +0.000 C 
ATOM     17  N   UNL     1      -1.915  12.450  22.241  0.00  0.00    +0.000 N 
ATOM     18  C   UNL     1      -1.103  11.327  22.171  0.00  0.00    +0.000 A 
ATOM     19  C   UNL     1      -1.001  10.460  23.247  0.00  0.00    +0.000 A 
ATOM     20  C   UNL     1      -0.188   9.358  23.113  0.00  0.00    +0.000 A 
ATOM     21  N   UNL     1       0.487   9.074  21.995  0.00  0.00    +0.000 NA
ATOM     22  C   UNL     1       0.354   9.970  21.002  0.00  0.00    +0.000 A 
ATOM     23  N   UNL     1      -0.392  11.092  21.053  0.00  0.00    +0.000 NA
ENDBRANCH   1  22
BRANCH   7  24
ATOM     24  C   UNL     1       2.923   4.937  19.866  0.00  0.00    +0.000 A 
ATOM     25  N   UNL     1       2.267   4.313  20.826  0.00  0.00    +0.000 NA
ATOM     26  N   UNL     1       2.896   3.094  20.997  0.00  0.00    +0.000 NA
ATOM     27  C   UNL     1       3.885   3.068  20.135  0.00  0.00    +0.000 A 
ATOM     28  N   UNL     1       4.803   2.125  19.900  0.00  0.00    +0.000 N 
ATOM     29  O   UNL     1       3.978   4.201  19.390  0.00  0.00    +0.000 OA
ATOM     30  H   UNL     1       4.918   1.425  20.623  0.00  0.00    +0.000 HD
ATOM     31  H   UNL     1       5.665   2.426  19.468  0.00  0.00    +0.000 HD
ENDBRANCH   7  24
TORSDOF 2
ENDMDL
MODEL 4
REMARK VINA RESULT:      -8.7      1.066      1.307
REMARK  Name = 
REMARK  3 active torsions:
REMARK  status: ('A' for Active; 'I' for Inactive)
REMARK    1  A    between atoms: C_1  and  C_2
REMARK    2  A    between atoms: C_12  and  C_13
REMARK    3  A    between atoms: C_19  and  C_20
REMARK                            x       y       z     vdW  Elec       q    Type
REMARK                         _______ _______ _______ _____ _____    ______ ____
ROOT
ATOM      1  C   UNL     1       1.138   9.108  20.427  0.00  0.00    +0.000 A 
ATOM      2  C   UNL     1       1.480   9.332  21.749  0.00  0.00    +0.000 A 
ATOM      3  N   UNL     1       0.614  10.252  22.272  0.00  0.00    +0.000 N 
ATOM      4  C   UNL     1      -0.310  10.626  21.324  0.00  0.00    +0.000 A 
ATOM      5  C   UNL     1      -1.380  11.523  21.411  0.00  0.00    +0.000 A 
ATOM      6  C   UNL     1      -2.171  11.700  20.267  0.00  0.00    +0.000 A 
ATOM      7  C   UNL     1      -1.912  11.012  19.075  0.00  0.00    +0.000 A 
ATOM      8  C   UNL     1      -0.826  10.122  19.025  0.00  0.00    +0.000 A 
ATOM      9  C   UNL     1      -0.005   9.923  20.156  0.00  0.00    +0.000 A 
ATOM     10  H   UNL     1       0.642  10.605  23.219  0.00  0.00    +0.000 HD
ENDROOT
BRANCH   1  22
ATOM     11  C   UNL     1       3.815   2.857  18.329  0.00  0.00    +0.000 C 
ATOM     12  C   UNL     1       2.512   3.654  18.377  0.00  0.00    +0.000 C 
ATOM     13  C   UNL     1       1.283   2.766  18.625  0.00  0.00    +0.000 C 
ATOM     14  C   UNL     1       1.223   2.230  20.050  0.00  0.00    +0.000 C 
ATOM     15  C   UNL     1       1.287   3.378  21.053  0.00  0.00    +0.000 C 
ATOM     16  C   UNL     1       2.492   4.285  20.815  0.00  0.00    +0.000 C 
ATOM     17  N   UNL     1       2.600   4.692  19.412  0.00  0.00    +0.000 N 
ATOM     18  C   UNL     1       2.543   6.040  19.083  0.00  0.00    +0.000 A 
ATOM     19  C   UNL     1       3.125   6.508  17.917  0.00  0.00    +0.000 A 
ATOM     20  C   UNL     1       3.026   7.853  17.641  0.00  0.00    +0.000 A 
ATOM     21  N   UNL     1       2.382   8.719  18.429  0.00  0.00    +0.000 NA
ATOM     22  C   UNL     1       1.860   8.195  19.551  0.00  0.00    +0.000 A 
ATOM     23  N   UNL     1       1.935   6.900  19.920  0.00  0.00    +0.000 NA
ENDBRANCH   1  22
BRANCH   7  24
ATOM     24  C   UNL     1      -2.760  11.225  17.909  0.00  0.00    +0.000 A 
ATOM     25  N   UNL     1      -2.474  11.166  16.623  0.00  0.00    +0.000 NA
ATOM     26  N   UNL     1      -3.652  11.436  15.951  0.00  0.00    +0.000 NA
ATOM     27  C   UNL     1      -4.563  11.639  16.874  0.00  0.00    +0.000 A 
ATOM     28  N   UNL     1      -5.859  11.945  16.758  0.00  0.00    +0.000 N 
ATOM     29  O   UNL     1      -4.076  11.536  18.139  0.00  0.00    +0.000 OA
ATOM     30  H   UNL     1      -6.154  12.299  15.856  0.00  0.00    +0.000 HD
ATOM     31  H   UNL     1      -6.292  12.399  17.549  0.00  0.00    +0.000 HD
ENDBRANCH   7  24
TORSDOF 2
ENDMDL
MODEL 5
REMARK VINA RESULT:      -8.6      3.437      8.217
REMARK  Name = 
REMARK  3 active torsions:
REMARK  status: ('A' for Active; 'I' for Inactive)
REMARK    1  A    between atoms: C_1  and  C_2
REMARK    2  A    between atoms: C_12  and  C_13
REMARK    3  A    between atoms: C_19  and  C_20
REMARK                            x       y       z     vdW  Elec       q    Type
REMARK                         _______ _______ _______ _____ _____    ______ ____
ROOT
ATOM      1  C   UNL     1       2.480   6.808  19.579  0.00  0.00    +0.000 A 
ATOM      2  C   UNL     1       2.039   6.214  20.749  0.00  0.00    +0.000 A 
ATOM      3  N   UNL     1       2.656   5.001  20.880  0.00  0.00    +0.000 N 
ATOM      4  C   UNL     1       3.513   4.789  19.825  0.00  0.00    +0.000 A 
ATOM      5  C   UNL     1       4.353   3.705  19.548  0.00  0.00    +0.000 A 
ATOM      6  C   UNL     1       5.133   3.770  18.386  0.00  0.00    +0.000 A 
ATOM      7  C   UNL     1       5.086   4.875  17.525  0.00  0.00    +0.000 A 
ATOM      8  C   UNL     1       4.228   5.943  17.835  0.00  0.00    +0.000 A 
ATOM      9  C   UNL     1       3.423   5.908  18.994  0.00  0.00    +0.000 A 
ATOM     10  H   UNL     1       2.509   4.352  21.641  0.00  0.00    +0.000 HD
ENDROOT
BRANCH   1  22
ATOM     11  C   UNL     1      -1.308  12.829  19.792  0.00  0.00    +0.000 C 
ATOM     12  C   UNL     1      -0.062  12.168  20.380  0.00  0.00    +0.000 C 
ATOM     13  C   UNL     1       0.176  12.555  21.848  0.00  0.00    +0.000 C 
ATOM     14  C   UNL     1      -0.834  11.920  22.795  0.00  0.00    +0.000 C 
ATOM     15  C   UNL     1      -0.847  10.405  22.619  0.00  0.00    +0.000 C 
ATOM     16  C   UNL     1      -1.066   9.995  21.164  0.00  0.00    +0.000 C 
ATOM     17  N   UNL     1      -0.165  10.708  20.256  0.00  0.00    +0.000 N 
ATOM     18  C   UNL     1       0.731   9.990  19.476  0.00  0.00    +0.000 A 
ATOM     19  C   UNL     1       1.217  10.516  18.290  0.00  0.00    +0.000 A 
ATOM     20  C   UNL     1       2.111   9.760  17.567  0.00  0.00    +0.000 A 
ATOM     21  N   UNL     1       2.546   8.560  17.961  0.00  0.00    +0.000 NA
ATOM     22  C   UNL     1       2.017   8.107  19.110  0.00  0.00    +0.000 A 
ATOM     23  N   UNL     1       1.113   8.761  19.869  0.00  0.00    +0.000 NA
ENDBRANCH   1  22
BRANCH   7  24
ATOM     24  C   UNL     1       5.915   4.903  16.327  0.00  0.00    +0.000 A 
ATOM     25  N   UNL     1       6.969   5.641  16.035  0.00  0.00    +0.000 NA
ATOM     26  N   UNL     1       7.380   5.249  14.774  0.00  0.00    +0.000 NA
ATOM     27  C   UNL     1       6.549   4.307  14.394  0.00  0.00    +0.000 A 
ATOM     28  N   UNL     1       6.499   3.606  13.257  0.00  0.00    +0.000 N 
ATOM     29  O   UNL     1       5.586   4.038  15.314  0.00  0.00    +0.000 OA
ATOM     30  H   UNL     1       7.016   3.988  12.474  0.00  0.00    +0.000 HD
ATOM     31  H   UNL     1       5.608   3.199  13.012  0.00  0.00    +0.000 HD
ENDBRANCH   7  24
TORSDOF 2
ENDMDL
MODEL 6
REMARK VINA RESULT:      -8.5      3.270      3.659
REMARK  Name = 
REMARK  3 active torsions:
REMARK  status: ('A' for Active; 'I' for Inactive)
REMARK    1  A    between atoms: C_1  and  C_2
REMARK    2  A    between atoms: C_12  and  C_13
REMARK    3  A    between atoms: C_19  and  C_20
REMARK                            x       y       z     vdW  Elec       q    Type
REMARK                         _______ _______ _______ _____ _____    ______ ____
ROOT
ATOM      1  C   UNL     1       0.462   9.234  21.193  0.00  0.00    +0.000 A 
ATOM      2  C   UNL     1      -0.086   8.566  22.274  0.00  0.00    +0.000 A 
ATOM      3  N   UNL     1      -0.729   9.477  23.066  0.00  0.00    +0.000 N 
ATOM      4  C   UNL     1      -0.634  10.734  22.517  0.00  0.00    +0.000 A 
ATOM      5  C   UNL     1      -1.143  11.957  22.968  0.00  0.00    +0.000 A 
ATOM      6  C   UNL     1      -0.892  13.091  22.184  0.00  0.00    +0.000 A 
ATOM      7  C   UNL     1      -0.162  13.018  20.990  0.00  0.00    +0.000 A 
ATOM      8  C   UNL     1       0.336  11.773  20.572  0.00  0.00    +0.000 A 
ATOM      9  C   UNL     1       0.108  10.611  21.340  0.00  0.00    +0.000 A 
ATOM     10  H   UNL     1      -1.209   9.261  23.930  0.00  0.00    +0.000 HD
ENDROOT
BRANCH   1  22
ATOM     11  C   UNL     1       3.817   3.827  18.005  0.00  0.00    +0.000 C 
ATOM     12  C   UNL     1       2.423   4.406  18.247  0.00  0.00    +0.000 C 
ATOM     13  C   UNL     1       1.352   3.318  18.419  0.00  0.00    +0.000 C 
ATOM     14  C   UNL     1       1.476   2.576  19.745  0.00  0.00    +0.000 C 
ATOM     15  C   UNL     1       1.455   3.561  20.909  0.00  0.00    +0.000 C 
ATOM     16  C   UNL     1       2.500   4.663  20.751  0.00  0.00    +0.000 C 
ATOM     17  N   UNL     1       2.443   5.283  19.425  0.00  0.00    +0.000 N 
ATOM     18  C   UNL     1       2.175   6.640  19.314  0.00  0.00    +0.000 A 
ATOM     19  C   UNL     1       2.596   7.356  18.205  0.00  0.00    +0.000 A 
ATOM     20  C   UNL     1       2.290   8.696  18.148  0.00  0.00    +0.000 A 
ATOM     21  N   UNL     1       1.593   9.332  19.095  0.00  0.00    +0.000 NA
ATOM     22  C   UNL     1       1.236   8.578  20.148  0.00  0.00    +0.000 A 
ATOM     23  N   UNL     1       1.518   7.268  20.306  0.00  0.00    +0.000 NA
ENDBRANCH   1  22
BRANCH   7  24
ATOM     24  C   UNL     1       0.075  14.222  20.204  0.00  0.00    +0.000 A 
ATOM     25  N   UNL     1       1.198  14.728  19.734  0.00  0.00    +0.000 NA
ATOM     26  N   UNL     1       0.849  15.874  19.042  0.00  0.00    +0.000 NA
ATOM     27  C   UNL     1      -0.455  15.981  19.145  0.00  0.00    +0.000 A 
ATOM     28  N   UNL     1      -1.287  16.911  18.668  0.00  0.00    +0.000 N 
ATOM     29  O   UNL     1      -1.020  14.982  19.875  0.00  0.00    +0.000 OA
ATOM     30  H   UNL     1      -0.861  17.785  18.381  0.00  0.00    +0.000 HD
ATOM     31  H   UNL     1      -2.175  17.013  19.137  0.00  0.00    +0.000 HD
ENDBRANCH   7  24
TORSDOF 2
ENDMDL
MODEL 7
REMARK VINA RESULT:      -8.4      3.322      3.812
REMARK  Name = 
REMARK  3 active torsions:
REMARK  status: ('A' for Active; 'I' for Inactive)
REMARK    1  A    between atoms: C_1  and  C_2
REMARK    2  A    between atoms: C_12  and  C_13
REMARK    3  A    between atoms: C_19  and  C_20
REMARK                            x       y       z     vdW  Elec       q    Type
REMARK                         _______ _______ _______ _____ _____    ______ ____
ROOT
ATOM      1  C   UNL     1       0.800   9.294  20.677  0.00  0.00    +0.000 A 
ATOM      2  C   UNL     1       0.014   8.772  21.690  0.00  0.00    +0.000 A 
ATOM      3  N   UNL     1      -0.548   9.809  22.382  0.00  0.00    +0.000 N 
ATOM      4  C   UNL     1      -0.163  11.010  21.831  0.00  0.00    +0.000 A 
ATOM      5  C   UNL     1      -0.496  12.319  22.196  0.00  0.00    +0.000 A 
ATOM      6  C   UNL     1       0.046  13.362  21.433  0.00  0.00    +0.000 A 
ATOM      7  C   UNL     1       0.891  13.118  20.343  0.00  0.00    +0.000 A 
ATOM      8  C   UNL     1       1.206  11.790  20.008  0.00  0.00    +0.000 A 
ATOM      9  C   UNL     1       0.682  10.716  20.759  0.00  0.00    +0.000 A 
ATOM     10  H   UNL     1      -1.160   9.713  23.181  0.00  0.00    +0.000 HD
ENDROOT
BRANCH   1  22
ATOM     11  C   UNL     1       3.883   3.351  18.261  0.00  0.00    +0.000 C 
ATOM     12  C   UNL     1       2.525   4.045  18.373  0.00  0.00    +0.000 C 
ATOM     13  C   UNL     1       1.374   3.056  18.614  0.00  0.00    +0.000 C 
ATOM     14  C   UNL     1       1.393   2.462  20.017  0.00  0.00    +0.000 C 
ATOM     15  C   UNL     1       1.397   3.571  21.064  0.00  0.00    +0.000 C 
ATOM     16  C   UNL     1       2.524   4.577  20.835  0.00  0.00    +0.000 C 
ATOM     17  N   UNL     1       2.563   5.045  19.448  0.00  0.00    +0.000 N 
ATOM     18  C   UNL     1       2.396   6.396  19.176  0.00  0.00    +0.000 A 
ATOM     19  C   UNL     1       2.909   6.953  18.016  0.00  0.00    +0.000 A 
ATOM     20  C   UNL     1       2.702   8.296  17.797  0.00  0.00    +0.000 A 
ATOM     21  N   UNL     1       2.016   9.079  18.635  0.00  0.00    +0.000 NA
ATOM     22  C   UNL     1       1.565   8.473  19.747  0.00  0.00    +0.000 A 
ATOM     23  N   UNL     1       1.747   7.174  20.061  0.00  0.00    +0.000 NA
ENDBRANCH   1  22
BRANCH   7  24
ATOM     24  C   UNL     1       1.432  14.232  19.575  0.00  0.00    +0.000 A 
ATOM     25  N   UNL     1       1.119  15.514  19.592  0.00  0.00    +0.000 NA
ATOM     26  N   UNL     1       1.954  16.130  18.678  0.00  0.00    +0.000 NA
ATOM     27  C   UNL     1       2.708  15.182  18.173  0.00  0.00    +0.000 A 
ATOM     28  N   UNL     1       3.668  15.242  17.245  0.00  0.00    +0.000 N 
ATOM     29  O   UNL     1       2.432  13.950  18.679  0.00  0.00    +0.000 OA
ATOM     30  H   UNL     1       3.681  16.076  16.671  0.00  0.00    +0.000 HD
ATOM     31  H   UNL     1       3.876  14.388  16.747  0.00  0.00    +0.000 HD
ENDBRANCH   7  24
TORSDOF 2
ENDMDL
MODEL 8
REMARK VINA RESULT:      -8.2      1.484      1.971
REMARK  Name = 
REMARK  3 active torsions:
REMARK  status: ('A' for Active; 'I' for Inactive)
REMARK    1  A    between atoms: C_1  and  C_2
REMARK    2  A    between atoms: C_12  and  C_13
REMARK    3  A    between atoms: C_19  and  C_20
REMARK                            x       y       z     vdW  Elec       q    Type
REMARK                         _______ _______ _______ _____ _____    ______ ____
ROOT
ATOM      1  C   UNL     1       0.099   9.830  18.828  0.00  0.00    +0.000 A 
ATOM      2  C   UNL     1      -0.104  10.429  20.059  0.00  0.00    +0.000 A 
ATOM      3  N   UNL     1      -1.282  11.124  20.014  0.00  0.00    +0.000 N 
ATOM      4  C   UNL     1      -1.871  10.978  18.780  0.00  0.00    +0.000 A 
ATOM      5  C   UNL     1      -3.075  11.494  18.288  0.00  0.00    +0.000 A 
ATOM      6  C   UNL     1      -3.432  11.165  16.973  0.00  0.00    +0.000 A 
ATOM      7  C   UNL     1      -2.623  10.350  16.170  0.00  0.00    +0.000 A 
ATOM      8  C   UNL     1      -1.419   9.854  16.698  0.00  0.00    +0.000 A 
ATOM      9  C   UNL     1      -1.027  10.170  18.016  0.00  0.00    +0.000 A 
ATOM     10  H   UNL     1      -1.668  11.665  20.776  0.00  0.00    +0.000 HD
ENDROOT
BRANCH   1  22
ATOM     11  C   UNL     1       4.383   4.158  19.202  0.00  0.00    +0.000 C 
ATOM     12  C   UNL     1       3.082   4.646  18.563  0.00  0.00    +0.000 C 
ATOM     13  C   UNL     1       2.028   3.535  18.444  0.00  0.00    +0.000 C 
ATOM     14  C   UNL     1       1.435   3.140  19.790  0.00  0.00    +0.000 C 
ATOM     15  C   UNL     1       0.868   4.365  20.501  0.00  0.00    +0.000 C 
ATOM     16  C   UNL     1       1.894   5.491  20.617  0.00  0.00    +0.000 C 
ATOM     17  N   UNL     1       2.540   5.774  19.333  0.00  0.00    +0.000 N 
ATOM     18  C   UNL     1       2.420   7.036  18.769  0.00  0.00    +0.000 A 
ATOM     19  C   UNL     1       3.372   7.507  17.880  0.00  0.00    +0.000 A 
ATOM     20  C   UNL     1       3.192   8.762  17.345  0.00  0.00    +0.000 A 
ATOM     21  N   UNL     1       2.139   9.536  17.626  0.00  0.00    +0.000 NA
ATOM     22  C   UNL     1       1.268   9.020  18.510  0.00  0.00    +0.000 A 
ATOM     23  N   UNL     1       1.378   7.816  19.108  0.00  0.00    +0.000 NA
ENDBRANCH   1  22
BRANCH   7  24
ATOM     24  C   UNL     1      -3.032  10.031  14.808  0.00  0.00    +0.000 A 
ATOM     25  N   UNL     1      -2.307   9.786  13.733  0.00  0.00    +0.000 NA
ATOM     26  N   UNL     1      -3.201   9.524  12.712  0.00  0.00    +0.000 NA
ATOM     27  C   UNL     1      -4.399   9.631  13.238  0.00  0.00    +0.000 A 
ATOM     28  N   UNL     1      -5.605   9.488  12.679  0.00  0.00    +0.000 N 
ATOM     29  O   UNL     1      -4.379   9.962  14.556  0.00  0.00    +0.000 OA
ATOM     30  H   UNL     1      -5.635   9.528  11.667  0.00  0.00    +0.000 HD
ATOM     31  H   UNL     1      -6.378   9.946  13.139  0.00  0.00    +0.000 HD
ENDBRANCH   7  24
TORSDOF 2
ENDMDL
MODEL 9
REMARK VINA RESULT:      -8.2      3.404      8.101
REMARK  Name = 
REMARK  3 active torsions:
REMARK  status: ('A' for Active; 'I' for Inactive)
REMARK    1  A    between atoms: C_1  and  C_2
REMARK    2  A    between atoms: C_12  and  C_13
REMARK    3  A    between atoms: C_19  and  C_20
REMARK                            x       y       z     vdW  Elec       q    Type
REMARK                         _______ _______ _______ _____ _____    ______ ____
ROOT
ATOM      1  C   UNL     1       1.842   7.876  19.725  0.00  0.00    +0.000 A 
ATOM      2  C   UNL     1       1.311   7.336  20.884  0.00  0.00    +0.000 A 
ATOM      3  N   UNL     1       1.722   6.035  20.984  0.00  0.00    +0.000 N 
ATOM      4  C   UNL     1       2.532   5.710  19.921  0.00  0.00    +0.000 A 
ATOM      5  C   UNL     1       3.182   4.510  19.615  0.00  0.00    +0.000 A 
ATOM      6  C   UNL     1       3.961   4.474  18.450  0.00  0.00    +0.000 A 
ATOM      7  C   UNL     1       4.094   5.591  17.615  0.00  0.00    +0.000 A 
ATOM      8  C   UNL     1       3.422   6.778  17.953  0.00  0.00    +0.000 A 
ATOM      9  C   UNL     1       2.625   6.847  19.115  0.00  0.00    +0.000 A 
ATOM     10  H   UNL     1       1.472   5.402  21.731  0.00  0.00    +0.000 HD
ENDROOT
BRANCH   1  22
ATOM     11  C   UNL     1      -1.101  14.352  19.958  0.00  0.00    +0.000 C 
ATOM     12  C   UNL     1      -0.005  13.502  20.602  0.00  0.00    +0.000 C 
ATOM     13  C   UNL     1       0.168  13.796  22.099  0.00  0.00    +0.000 C 
ATOM     14  C   UNL     1      -0.990  13.271  22.940  0.00  0.00    +0.000 C 
ATOM     15  C   UNL     1      -1.195  11.780  22.689  0.00  0.00    +0.000 C 
ATOM     16  C   UNL     1      -1.352  11.461  21.204  0.00  0.00    +0.000 C 
ATOM     17  N   UNL     1      -0.295  12.077  20.399  0.00  0.00    +0.000 N 
ATOM     18  C   UNL     1       0.553  11.272  19.652  0.00  0.00    +0.000 A 
ATOM     19  C   UNL     1       1.197  11.771  18.531  0.00  0.00    +0.000 A 
ATOM     20  C   UNL     1       2.034  10.926  17.838  0.00  0.00    +0.000 A 
ATOM     21  N   UNL     1       2.271   9.663  18.203  0.00  0.00    +0.000 NA
ATOM     22  C   UNL     1       1.597   9.244  19.288  0.00  0.00    +0.000 A 
ATOM     23  N   UNL     1       0.733   9.987  20.011  0.00  0.00    +0.000 NA
ENDBRANCH   1  22
BRANCH   7  24
ATOM     24  C   UNL     1       4.915   5.511  16.413  0.00  0.00    +0.000 A 
ATOM     25  N   UNL     1       5.514   6.462  15.723  0.00  0.00    +0.000 NA
ATOM     26  N   UNL     1       6.175   5.832  14.685  0.00  0.00    +0.000 NA
ATOM     27  C   UNL     1       5.928   4.549  14.818  0.00  0.00    +0.000 A 
ATOM     28  N   UNL     1       6.319   3.511  14.073  0.00  0.00    +0.000 N 
ATOM     29  O   UNL     1       5.128   4.265  15.880  0.00  0.00    +0.000 OA
ATOM     30  H   UNL     1       6.661   3.733  13.146  0.00  0.00    +0.000 HD
ATOM     31  H   UNL     1       5.754   2.676  14.123  0.00  0.00    +0.000 HD
ENDBRANCH   7  24
TORSDOF 2
ENDMDL
