MODEL 1
REMARK VINA RESULT:      -8.0      0.000      0.000
REMARK  Name = 
REMARK  7 active torsions:
REMARK  status: ('A' for Active; 'I' for Inactive)
REMARK    1  A    between atoms: N_1  and  C_2
REMARK    2  A    between atoms: C_9  and  C_10
REMARK    3  A    between atoms: C_13  and  P_14
REMARK    4  A    between atoms: P_14  and  O_16
REMARK    5  A    between atoms: P_14  and  O_17
REMARK    6  A    between atoms: N_19  and  C_20
REMARK    7  A    between atoms: C_20  and  C_21
REMARK                            x       y       z     vdW  Elec       q    Type
REMARK                         _______ _______ _______ _____ _____    ______ ____
ROOT
ATOM      1  C   UNL     1       6.591   6.054  16.652  0.00  0.00    +0.000 A 
ATOM      2  C   UNL     1       6.979   4.768  16.253  0.00  0.00    +0.000 A 
ATOM      3  C   UNL     1       6.080   3.700  16.276  0.00  0.00    +0.000 A 
ATOM      4  C   UNL     1       4.759   3.870  16.708  0.00  0.00    +0.000 A 
ATOM      5  C   UNL     1       4.375   5.154  17.117  0.00  0.00    +0.000 A 
ATOM      6  C   UNL     1       5.256   6.233  17.097  0.00  0.00    +0.000 A 
ATOM      7  N   UNL     1       4.643   7.380  17.552  0.00  0.00    +0.000 NA
ATOM      8  C   UNL     1       3.432   7.013  17.925  0.00  0.00    +0.000 A 
ATOM      9  N   UNL     1       3.200   5.683  17.626  0.00  0.00    +0.000 N 
ENDROOT
BRANCH   8  10
ATOM     10  C   UNL     1       2.497   7.901  18.554  0.00  0.00    +0.000 A 
ATOM     11  C   UNL     1       1.821   8.973  17.993  0.00  0.00    +0.000 A 
ATOM     12  C   UNL     1       0.960   9.507  18.987  0.00  0.00    +0.000 A 
ATOM     13  C   UNL     1       1.176   8.751  20.118  0.00  0.00    +0.000 A 
ATOM     14  O   UNL     1       2.115   7.790  19.868  0.00  0.00    +0.000 OA
BRANCH  13  15
ATOM     15  P   UNL     1       0.329   8.980  21.725  0.00  0.00    +0.000 P 
ATOM     16  O   UNL     1       1.627   9.474  22.367  0.00  0.00    +0.000 OA
BRANCH  15  17
ATOM     17  O   UNL     1      -0.409  10.350  21.208  0.00  0.00    +0.000 OA
ATOM     18  H   UNL     1      -1.374  10.246  21.302  0.00  0.00    +0.000 HD
ENDBRANCH  15  17
BRANCH  15  19
ATOM     19  O   UNL     1      -0.472   9.197  23.242  0.00  0.00    +0.000 OA
ATOM     20  H   UNL     1      -0.461  10.164  23.377  0.00  0.00    +0.000 HD
ENDBRANCH  15  19
ENDBRANCH  13  15
ENDBRANCH   8  10
BRANCH   1  21
ATOM     21  N   UNL     1       7.541   7.093  16.674  0.00  0.00    +0.000 N 
ATOM     22  H   UNL     1       8.417   6.815  17.106  0.00  0.00    +0.000 HD
ATOM     23  H   UNL     1       7.674   7.459  15.730  0.00  0.00    +0.000 HD
ENDBRANCH   1  21
BRANCH   9  24
ATOM     24  C   UNL     1       1.981   4.928  17.894  0.00  0.00    +0.000 C 
BRANCH  24  25
ATOM     25  C   UNL     1       2.027   3.997  19.101  0.00  0.00    +0.000 C 
ATOM     26  C   UNL     1       1.365   4.444  20.425  0.00  0.00    +0.000 C 
ATOM     27  C   UNL     1       0.755   3.035  20.545  0.00  0.00    +0.000 C 
ATOM     28  C   UNL     1       0.986   2.851  19.037  0.00  0.00    +0.000 C 
ENDBRANCH  24  25
ENDBRANCH   9  24
TORSDOF 7
ENDMDL
MODEL 2
REMARK VINA RESULT:      -8.0      3.954      6.645
REMARK  Name = 
REMARK  7 active torsions:
REMARK  status: ('A' for Active; 'I' for Inactive)
REMARK    1  A    between atoms: N_1  and  C_2
REMARK    2  A    between atoms: C_9  and  C_10
REMARK    3  A    between atoms: C_13  and  P_14
REMARK    4  A    between atoms: P_14  and  O_16
REMARK    5  A    between atoms: P_14  and  O_17
REMARK    6  A    between atoms: N_19  and  C_20
REMARK    7  A    between atoms: C_20  and  C_21
REMARK                            x       y       z     vdW  Elec       q    Type
REMARK                         _______ _______ _______ _____ _____    ______ ____
ROOT
ATOM      1  C   UNL     1       1.051   9.683  18.967  0.00  0.00    +0.000 A 
ATOM      2  C   UNL     1       0.336   9.965  20.139  0.00  0.00    +0.000 A 
ATOM      3  C   UNL     1       0.394   9.117  21.246  0.00  0.00    +0.000 A 
ATOM      4  C   UNL     1       1.161   7.946  21.226  0.00  0.00    +0.000 A 
ATOM      5  C   UNL     1       1.868   7.659  20.050  0.00  0.00    +0.000 A 
ATOM      6  C   UNL     1       1.827   8.495  18.937  0.00  0.00    +0.000 A 
ATOM      7  N   UNL     1       2.596   7.991  17.911  0.00  0.00    +0.000 NA
ATOM      8  C   UNL     1       3.044   6.827  18.341  0.00  0.00    +0.000 A 
ATOM      9  N   UNL     1       2.679   6.607  19.656  0.00  0.00    +0.000 N 
ENDROOT
BRANCH   8  10
ATOM     10  C   UNL     1       3.812   5.928  17.527  0.00  0.00    +0.000 A 
ATOM     11  C   UNL     1       3.628   4.567  17.344  0.00  0.00    +0.000 A 
ATOM     12  C   UNL     1       4.591   4.125  16.401  0.00  0.00    +0.000 A 
ATOM     13  C   UNL     1       5.338   5.236  16.077  0.00  0.00    +0.000 A 
ATOM     14  O   UNL     1       4.883   6.324  16.767  0.00  0.00    +0.000 OA
BRANCH  13  15
ATOM     15  P   UNL     1       6.732   5.268  14.890  0.00  0.00    +0.000 P 
ATOM     16  O   UNL     1       7.687   4.732  15.960  0.00  0.00    +0.000 OA
BRANCH  15  17
ATOM     17  O   UNL     1       6.190   3.922  14.126  0.00  0.00    +0.000 OA
ATOM     18  H   UNL     1       6.061   4.124  13.181  0.00  0.00    +0.000 HD
ENDBRANCH  15  17
BRANCH  15  19
ATOM     19  O   UNL     1       8.048   5.298  13.769  0.00  0.00    +0.000 OA
ATOM     20  H   UNL     1       8.604   4.541  14.039  0.00  0.00    +0.000 HD
ENDBRANCH  15  19
ENDBRANCH  13  15
ENDBRANCH   8  10
BRANCH   1  21
ATOM     21  N   UNL     1       0.920  10.528  17.849  0.00  0.00    +0.000 N 
ATOM     22  H   UNL     1       0.571  10.042  17.029  0.00  0.00    +0.000 HD
ATOM     23  H   UNL     1       0.345  11.337  18.094  0.00  0.00    +0.000 HD
ENDBRANCH   1  21
BRANCH   9  24
ATOM     24  C   UNL     1       2.990   5.432  20.463  0.00  0.00    +0.000 C 
BRANCH  24  25
ATOM     25  C   UNL     1       1.797   4.574  20.875  0.00  0.00    +0.000 C 
ATOM     26  C   UNL     1       1.085   3.710  19.809  0.00  0.00    +0.000 C 
ATOM     27  C   UNL     1       1.071   2.550  20.822  0.00  0.00    +0.000 C 
ATOM     28  C   UNL     1       2.200   3.258  21.587  0.00  0.00    +0.000 C 
ENDBRANCH  24  25
ENDBRANCH   9  24
TORSDOF 7
ENDMDL
MODEL 3
REMARK VINA RESULT:      -7.7      1.375      1.789
REMARK  Name = 
REMARK  7 active torsions:
REMARK  status: ('A' for Active; 'I' for Inactive)
REMARK    1  A    between atoms: N_1  and  C_2
REMARK    2  A    between atoms: C_9  and  C_10
REMARK    3  A    between atoms: C_13  and  P_14
REMARK    4  A    between atoms: P_14  and  O_16
REMARK    5  A    between atoms: P_14  and  O_17
REMARK    6  A    between atoms: N_19  and  C_20
REMARK    7  A    between atoms: C_20  and  C_21
REMARK                            x       y       z     vdW  Elec       q    Type
REMARK                         _______ _______ _______ _____ _____    ______ ____
ROOT
ATOM      1  C   UNL     1       6.439   5.919  16.580  0.00  0.00    +0.000 A 
ATOM      2  C   UNL     1       6.788   4.701  15.980  0.00  0.00    +0.000 A 
ATOM      3  C   UNL     1       5.879   3.645  15.902  0.00  0.00    +0.000 A 
ATOM      4  C   UNL     1       4.586   3.757  16.428  0.00  0.00    +0.000 A 
ATOM      5  C   UNL     1       4.241   4.972  17.036  0.00  0.00    +0.000 A 
ATOM      6  C   UNL     1       5.133   6.038  17.120  0.00  0.00    +0.000 A 
ATOM      7  N   UNL     1       4.561   7.112  17.768  0.00  0.00    +0.000 NA
ATOM      8  C   UNL     1       3.368   6.700  18.153  0.00  0.00    +0.000 A 
ATOM      9  N   UNL     1       3.103   5.428  17.682  0.00  0.00    +0.000 N 
ENDROOT
BRANCH   8  10
ATOM     10  C   UNL     1       2.480   7.494  18.954  0.00  0.00    +0.000 A 
ATOM     11  C   UNL     1       2.092   7.284  20.268  0.00  0.00    +0.000 A 
ATOM     12  C   UNL     1       1.258   8.368  20.648  0.00  0.00    +0.000 A 
ATOM     13  C   UNL     1       1.153   9.172  19.534  0.00  0.00    +0.000 A 
ATOM     14  O   UNL     1       1.876   8.640  18.503  0.00  0.00    +0.000 OA
BRANCH  13  15
ATOM     15  P   UNL     1       0.199  10.731  19.437  0.00  0.00    +0.000 P 
ATOM     16  O   UNL     1       1.102  11.377  20.491  0.00  0.00    +0.000 OA
BRANCH  15  17
ATOM     17  O   UNL     1       0.896  11.138  18.010  0.00  0.00    +0.000 OA
ATOM     18  H   UNL     1       1.706  10.607  17.889  0.00  0.00    +0.000 HD
ENDBRANCH  15  17
BRANCH  15  19
ATOM     19  O   UNL     1      -0.702  12.204  19.346  0.00  0.00    +0.000 OA
ATOM     20  H   UNL     1      -1.476  11.972  18.797  0.00  0.00    +0.000 HD
ENDBRANCH  15  19
ENDBRANCH  13  15
ENDBRANCH   8  10
BRANCH   1  21
ATOM     21  N   UNL     1       7.402   6.939  16.696  0.00  0.00    +0.000 N 
ATOM     22  H   UNL     1       8.164   6.691  17.318  0.00  0.00    +0.000 HD
ATOM     23  H   UNL     1       7.732   7.210  15.767  0.00  0.00    +0.000 HD
ENDBRANCH   1  21
BRANCH   9  24
ATOM     24  C   UNL     1       1.891   4.648  17.907  0.00  0.00    +0.000 C 
BRANCH  24  25
ATOM     25  C   UNL     1       1.960   3.625  19.037  0.00  0.00    +0.000 C 
ATOM     26  C   UNL     1       3.019   3.800  20.150  0.00  0.00    +0.000 C 
ATOM     27  C   UNL     1       1.925   3.469  21.182  0.00  0.00    +0.000 C 
ATOM     28  C   UNL     1       0.872   3.829  20.122  0.00  0.00    +0.000 C 
ENDBRANCH  24  25
ENDBRANCH   9  24
TORSDOF 7
ENDMDL
MODEL 4
REMARK VINA RESULT:      -7.4      1.342      1.897
REMARK  Name = 
REMARK  7 active torsions:
REMARK  status: ('A' for Active; 'I' for Inactive)
REMARK    1  A    between atoms: N_1  and  C_2
REMARK    2  A    between atoms: C_9  and  C_10
REMARK    3  A    between atoms: C_13  and  P_14
REMARK    4  A    between atoms: P_14  and  O_16
REMARK    5  A    between atoms: P_14  and  O_17
REMARK    6  A    between atoms: N_19  and  C_20
REMARK    7  A    between atoms: C_20  and  C_21
REMARK                            x       y       z     vdW  Elec       q    Type
REMARK                         _______ _______ _______ _____ _____    ______ ____
ROOT
ATOM      1  C   UNL     1       6.544   5.986  16.538  0.00  0.00    +0.000 A 
ATOM      2  C   UNL     1       6.915   4.737  16.022  0.00  0.00    +0.000 A 
ATOM      3  C   UNL     1       6.010   3.675  15.974  0.00  0.00    +0.000 A 
ATOM      4  C   UNL     1       4.699   3.813  16.448  0.00  0.00    +0.000 A 
ATOM      5  C   UNL     1       4.333   5.060  16.972  0.00  0.00    +0.000 A 
ATOM      6  C   UNL     1       5.219   6.133  17.025  0.00  0.00    +0.000 A 
ATOM      7  N   UNL     1       4.624   7.240  17.589  0.00  0.00    +0.000 NA
ATOM      8  C   UNL     1       3.419   6.847  17.956  0.00  0.00    +0.000 A 
ATOM      9  N   UNL     1       3.172   5.549  17.550  0.00  0.00    +0.000 N 
ENDROOT
BRANCH   8  10
ATOM     10  C   UNL     1       2.503   7.683  18.679  0.00  0.00    +0.000 A 
ATOM     11  C   UNL     1       2.094   7.568  19.997  0.00  0.00    +0.000 A 
ATOM     12  C   UNL     1       1.234   8.661  20.279  0.00  0.00    +0.000 A 
ATOM     13  C   UNL     1       1.136   9.376  19.105  0.00  0.00    +0.000 A 
ATOM     14  O   UNL     1       1.887   8.780  18.130  0.00  0.00    +0.000 OA
BRANCH  13  15
ATOM     15  P   UNL     1       0.158  10.905  18.873  0.00  0.00    +0.000 P 
ATOM     16  O   UNL     1      -0.786  10.183  17.908  0.00  0.00    +0.000 OA
BRANCH  15  17
ATOM     17  O   UNL     1      -0.562  10.738  20.337  0.00  0.00    +0.000 OA
ATOM     18  H   UNL     1      -0.276   9.895  20.736  0.00  0.00    +0.000 HD
ENDBRANCH  15  17
BRANCH  15  19
ATOM     19  O   UNL     1      -0.766  12.350  18.654  0.00  0.00    +0.000 OA
ATOM     20  H   UNL     1      -1.627  12.030  18.318  0.00  0.00    +0.000 HD
ENDBRANCH  15  19
ENDBRANCH  13  15
ENDBRANCH   8  10
BRANCH   1  21
ATOM     21  N   UNL     1       7.501   7.015  16.628  0.00  0.00    +0.000 N 
ATOM     22  H   UNL     1       8.416   6.676  16.908  0.00  0.00    +0.000 HD
ATOM     23  H   UNL     1       7.533   7.534  15.749  0.00  0.00    +0.000 HD
ENDBRANCH   1  21
BRANCH   9  24
ATOM     24  C   UNL     1       1.953   4.780  17.779  0.00  0.00    +0.000 C 
BRANCH  24  25
ATOM     25  C   UNL     1       1.990   3.812  18.957  0.00  0.00    +0.000 C 
ATOM     26  C   UNL     1       0.920   3.934  20.068  0.00  0.00    +0.000 C 
ATOM     27  C   UNL     1       0.766   2.402  20.026  0.00  0.00    +0.000 C 
ATOM     28  C   UNL     1       1.403   2.416  18.628  0.00  0.00    +0.000 C 
ENDBRANCH  24  25
ENDBRANCH   9  24
TORSDOF 7
ENDMDL
MODEL 5
REMARK VINA RESULT:      -7.3      1.348      1.605
REMARK  Name = 
REMARK  7 active torsions:
REMARK  status: ('A' for Active; 'I' for Inactive)
REMARK    1  A    between atoms: N_1  and  C_2
REMARK    2  A    between atoms: C_9  and  C_10
REMARK    3  A    between atoms: C_13  and  P_14
REMARK    4  A    between atoms: P_14  and  O_16
REMARK    5  A    between atoms: P_14  and  O_17
REMARK    6  A    between atoms: N_19  and  C_20
REMARK    7  A    between atoms: C_20  and  C_21
REMARK                            x       y       z     vdW  Elec       q    Type
REMARK                         _______ _______ _______ _____ _____    ______ ____
ROOT
ATOM      1  C   UNL     1       5.319   5.958  16.755  0.00  0.00    +0.000 A 
ATOM      2  C   UNL     1       6.014   4.771  17.026  0.00  0.00    +0.000 A 
ATOM      3  C   UNL     1       5.689   3.976  18.126  0.00  0.00    +0.000 A 
ATOM      4  C   UNL     1       4.661   4.337  19.007  0.00  0.00    +0.000 A 
ATOM      5  C   UNL     1       3.974   5.528  18.740  0.00  0.00    +0.000 A 
ATOM      6  C   UNL     1       4.281   6.333  17.646  0.00  0.00    +0.000 A 
ATOM      7  N   UNL     1       3.471   7.447  17.608  0.00  0.00    +0.000 NA
ATOM      8  C   UNL     1       2.729   7.385  18.698  0.00  0.00    +0.000 A 
ATOM      9  N   UNL     1       2.955   6.208  19.388  0.00  0.00    +0.000 N 
ENDROOT
BRANCH   8  10
ATOM     10  C   UNL     1       1.813   8.418  19.089  0.00  0.00    +0.000 A 
ATOM     11  C   UNL     1       1.086   9.272  18.276  0.00  0.00    +0.000 A 
ATOM     12  C   UNL     1       0.271  10.076  19.115  0.00  0.00    +0.000 A 
ATOM     13  C   UNL     1       0.565   9.692  20.405  0.00  0.00    +0.000 A 
ATOM     14  O   UNL     1       1.508   8.703  20.396  0.00  0.00    +0.000 OA
BRANCH  13  15
ATOM     15  P   UNL     1      -0.196  10.387  21.918  0.00  0.00    +0.000 P 
ATOM     16  O   UNL     1       0.806   9.636  22.797  0.00  0.00    +0.000 OA
BRANCH  15  17
ATOM     17  O   UNL     1       0.504  11.849  21.670  0.00  0.00    +0.000 OA
ATOM     18  H   UNL     1       0.966  11.838  20.810  0.00  0.00    +0.000 HD
ENDBRANCH  15  17
BRANCH  15  19
ATOM     19  O   UNL     1      -0.915  11.044  23.346  0.00  0.00    +0.000 OA
ATOM     20  H   UNL     1      -1.202  10.257  23.849  0.00  0.00    +0.000 HD
ENDBRANCH  15  19
ENDBRANCH  13  15
ENDBRANCH   8  10
BRANCH   1  21
ATOM     21  N   UNL     1       5.716   6.766  15.673  0.00  0.00    +0.000 N 
ATOM     22  H   UNL     1       5.390   7.724  15.758  0.00  0.00    +0.000 HD
ATOM     23  H   UNL     1       6.729   6.711  15.554  0.00  0.00    +0.000 HD
ENDBRANCH   1  21
BRANCH   9  24
ATOM     24  C   UNL     1       2.322   5.793  20.635  0.00  0.00    +0.000 C 
BRANCH  24  25
ATOM     25  C   UNL     1       1.276   4.689  20.514  0.00  0.00    +0.000 C 
ATOM     26  C   UNL     1       1.186   3.875  19.202  0.00  0.00    +0.000 C 
ATOM     27  C   UNL     1       1.070   2.598  20.054  0.00  0.00    +0.000 C 
ATOM     28  C   UNL     1       1.678   3.376  21.232  0.00  0.00    +0.000 C 
ENDBRANCH  24  25
ENDBRANCH   9  24
TORSDOF 7
ENDMDL
MODEL 6
REMARK VINA RESULT:      -7.3      3.857      6.575
REMARK  Name = 
REMARK  7 active torsions:
REMARK  status: ('A' for Active; 'I' for Inactive)
REMARK    1  A    between atoms: N_1  and  C_2
REMARK    2  A    between atoms: C_9  and  C_10
REMARK    3  A    between atoms: C_13  and  P_14
REMARK    4  A    between atoms: P_14  and  O_16
REMARK    5  A    between atoms: P_14  and  O_17
REMARK    6  A    between atoms: N_19  and  C_20
REMARK    7  A    between atoms: C_20  and  C_21
REMARK                            x       y       z     vdW  Elec       q    Type
REMARK                         _______ _______ _______ _____ _____    ______ ____
ROOT
ATOM      1  C   UNL     1       1.139   9.829  18.940  0.00  0.00    +0.000 A 
ATOM      2  C   UNL     1       0.163  10.163  19.889  0.00  0.00    +0.000 A 
ATOM      3  C   UNL     1      -0.120   9.320  20.965  0.00  0.00    +0.000 A 
ATOM      4  C   UNL     1       0.553   8.104  21.134  0.00  0.00    +0.000 A 
ATOM      5  C   UNL     1       1.522   7.767  20.180  0.00  0.00    +0.000 A 
ATOM      6  C   UNL     1       1.822   8.595  19.102  0.00  0.00    +0.000 A 
ATOM      7  N   UNL     1       2.799   8.039  18.306  0.00  0.00    +0.000 NA
ATOM      8  C   UNL     1       3.049   6.852  18.827  0.00  0.00    +0.000 A 
ATOM      9  N   UNL     1       2.342   6.664  20.000  0.00  0.00    +0.000 N 
ENDROOT
BRANCH   8  10
ATOM     10  C   UNL     1       3.945   5.902  18.232  0.00  0.00    +0.000 A 
ATOM     11  C   UNL     1       4.523   4.786  18.816  0.00  0.00    +0.000 A 
ATOM     12  C   UNL     1       5.281   4.122  17.817  0.00  0.00    +0.000 A 
ATOM     13  C   UNL     1       5.152   4.884  16.677  0.00  0.00    +0.000 A 
ATOM     14  O   UNL     1       4.360   5.969  16.926  0.00  0.00    +0.000 OA
BRANCH  13  15
ATOM     15  P   UNL     1       5.913   4.505  15.056  0.00  0.00    +0.000 P 
ATOM     16  O   UNL     1       5.663   5.936  14.576  0.00  0.00    +0.000 OA
BRANCH  15  17
ATOM     17  O   UNL     1       7.426   4.554  15.688  0.00  0.00    +0.000 OA
ATOM     18  H   UNL     1       8.075   4.495  14.962  0.00  0.00    +0.000 HD
ENDBRANCH  15  17
BRANCH  15  19
ATOM     19  O   UNL     1       6.634   4.146  13.525  0.00  0.00    +0.000 OA
ATOM     20  H   UNL     1       5.895   3.786  12.997  0.00  0.00    +0.000 HD
ENDBRANCH  15  19
ENDBRANCH  13  15
ENDBRANCH   8  10
BRANCH   1  21
ATOM     21  N   UNL     1       1.354  10.673  17.834  0.00  0.00    +0.000 N 
ATOM     22  H   UNL     1       1.789  10.192  17.053  0.00  0.00    +0.000 HD
ATOM     23  H   UNL     1       0.477  11.127  17.570  0.00  0.00    +0.000 HD
ENDBRANCH   1  21
BRANCH   9  24
ATOM     24  C   UNL     1       2.360   5.478  20.849  0.00  0.00    +0.000 C 
BRANCH  24  25
ATOM     25  C   UNL     1       1.257   4.457  20.590  0.00  0.00    +0.000 C 
ATOM     26  C   UNL     1       1.171   3.774  19.205  0.00  0.00    +0.000 C 
ATOM     27  C   UNL     1       0.946   2.433  19.930  0.00  0.00    +0.000 C 
ATOM     28  C   UNL     1       1.552   3.061  21.195  0.00  0.00    +0.000 C 
ENDBRANCH  24  25
ENDBRANCH   9  24
TORSDOF 7
ENDMDL
MODEL 7
REMARK VINA RESULT:      -7.0      4.779      7.057
REMARK  Name = 
REMARK  7 active torsions:
REMARK  status: ('A' for Active; 'I' for Inactive)
REMARK    1  A    between atoms: N_1  and  C_2
REMARK    2  A    between atoms: C_9  and  C_10
REMARK    3  A    between atoms: C_13  and  P_14
REMARK    4  A    between atoms: P_14  and  O_16
REMARK    5  A    between atoms: P_14  and  O_17
REMARK    6  A    between atoms: N_19  and  C_20
REMARK    7  A    between atoms: C_20  and  C_21
REMARK                            x       y       z     vdW  Elec       q    Type
REMARK                         _______ _______ _______ _____ _____    ______ ____
ROOT
ATOM      1  C   UNL     1       2.365   8.113  18.593  0.00  0.00    +0.000 A 
ATOM      2  C   UNL     1       1.638   7.915  19.775  0.00  0.00    +0.000 A 
ATOM      3  C   UNL     1       1.788   6.751  20.531  0.00  0.00    +0.000 A 
ATOM      4  C   UNL     1       2.663   5.733  20.134  0.00  0.00    +0.000 A 
ATOM      5  C   UNL     1       3.382   5.928  18.947  0.00  0.00    +0.000 A 
ATOM      6  C   UNL     1       3.249   7.083  18.181  0.00  0.00    +0.000 A 
ATOM      7  N   UNL     1       4.052   7.031  17.063  0.00  0.00    +0.000 NA
ATOM      8  C   UNL     1       4.614   5.837  17.084  0.00  0.00    +0.000 A 
ATOM      9  N   UNL     1       4.285   5.151  18.238  0.00  0.00    +0.000 N 
ENDROOT
BRANCH   8  10
ATOM     10  C   UNL     1       5.455   5.342  16.032  0.00  0.00    +0.000 A 
ATOM     11  C   UNL     1       6.803   5.587  15.824  0.00  0.00    +0.000 A 
ATOM     12  C   UNL     1       7.210   4.829  14.696  0.00  0.00    +0.000 A 
ATOM     13  C   UNL     1       6.079   4.180  14.250  0.00  0.00    +0.000 A 
ATOM     14  O   UNL     1       5.013   4.499  15.043  0.00  0.00    +0.000 OA
BRANCH  13  15
ATOM     15  P   UNL     1       6.003   3.045  12.816  0.00  0.00    +0.000 P 
ATOM     16  O   UNL     1       4.633   3.602  12.418  0.00  0.00    +0.000 OA
BRANCH  15  17
ATOM     17  O   UNL     1       7.068   3.956  11.964  0.00  0.00    +0.000 OA
ATOM     18  H   UNL     1       7.648   4.431  12.587  0.00  0.00    +0.000 HD
ENDBRANCH  15  17
BRANCH  15  19
ATOM     19  O   UNL     1       5.931   1.974  11.460  0.00  0.00    +0.000 OA
ATOM     20  H   UNL     1       6.666   2.270  10.887  0.00  0.00    +0.000 HD
ENDBRANCH  15  19
ENDBRANCH  13  15
ENDBRANCH   8  10
BRANCH   1  21
ATOM     21  N   UNL     1       2.142   9.271  17.824  0.00  0.00    +0.000 N 
ATOM     22  H   UNL     1       1.527   9.935  18.284  0.00  0.00    +0.000 HD
ATOM     23  H   UNL     1       3.037   9.689  17.562  0.00  0.00    +0.000 HD
ENDBRANCH   1  21
BRANCH   9  24
ATOM     24  C   UNL     1       4.714   3.807  18.608  0.00  0.00    +0.000 C 
BRANCH  24  25
ATOM     25  C   UNL     1       3.727   2.685  18.299  0.00  0.00    +0.000 C 
ATOM     26  C   UNL     1       2.716   2.250  19.385  0.00  0.00    +0.000 C 
ATOM     27  C   UNL     1       1.623   2.237  18.299  0.00  0.00    +0.000 C 
ATOM     28  C   UNL     1       2.520   3.144  17.443  0.00  0.00    +0.000 C 
ENDBRANCH  24  25
ENDBRANCH   9  24
TORSDOF 7
ENDMDL
MODEL 8
REMARK VINA RESULT:      -7.0      2.075      2.625
REMARK  Name = 
REMARK  7 active torsions:
REMARK  status: ('A' for Active; 'I' for Inactive)
REMARK    1  A    between atoms: N_1  and  C_2
REMARK    2  A    between atoms: C_9  and  C_10
REMARK    3  A    between atoms: C_13  and  P_14
REMARK    4  A    between atoms: P_14  and  O_16
REMARK    5  A    between atoms: P_14  and  O_17
REMARK    6  A    between atoms: N_19  and  C_20
REMARK    7  A    between atoms: C_20  and  C_21
REMARK                            x       y       z     vdW  Elec       q    Type
REMARK                         _______ _______ _______ _____ _____    ______ ____
ROOT
ATOM      1  C   UNL     1       5.034   6.075  16.605  0.00  0.00    +0.000 A 
ATOM      2  C   UNL     1       5.778   4.898  16.763  0.00  0.00    +0.000 A 
ATOM      3  C   UNL     1       5.559   4.042  17.844  0.00  0.00    +0.000 A 
ATOM      4  C   UNL     1       4.594   4.331  18.817  0.00  0.00    +0.000 A 
ATOM      5  C   UNL     1       3.858   5.514  18.663  0.00  0.00    +0.000 A 
ATOM      6  C   UNL     1       4.059   6.378  17.590  0.00  0.00    +0.000 A 
ATOM      7  N   UNL     1       3.222   7.469  17.669  0.00  0.00    +0.000 NA
ATOM      8  C   UNL     1       2.568   7.333  18.807  0.00  0.00    +0.000 A 
ATOM      9  N   UNL     1       2.876   6.133  19.419  0.00  0.00    +0.000 N 
ENDROOT
BRANCH   8  10
ATOM     10  C   UNL     1       1.659   8.320  19.318  0.00  0.00    +0.000 A 
ATOM     11  C   UNL     1       1.300   8.556  20.635  0.00  0.00    +0.000 A 
ATOM     12  C   UNL     1       0.426   9.674  20.649  0.00  0.00    +0.000 A 
ATOM     13  C   UNL     1       0.270  10.048  19.332  0.00  0.00    +0.000 A 
ATOM     14  O   UNL     1       1.000   9.223  18.522  0.00  0.00    +0.000 OA
BRANCH  13  15
ATOM     15  P   UNL     1      -0.750  11.447  18.740  0.00  0.00    +0.000 P 
ATOM     16  O   UNL     1       0.505  12.275  18.458  0.00  0.00    +0.000 OA
BRANCH  15  17
ATOM     17  O   UNL     1      -1.062  10.695  17.317  0.00  0.00    +0.000 OA
ATOM     18  H   UNL     1      -1.924  10.243  17.379  0.00  0.00    +0.000 HD
ENDBRANCH  15  17
BRANCH  15  19
ATOM     19  O   UNL     1      -1.715  12.768  18.181  0.00  0.00    +0.000 OA
ATOM     20  H   UNL     1      -2.628  12.419  18.204  0.00  0.00    +0.000 HD
ENDBRANCH  15  19
ENDBRANCH  13  15
ENDBRANCH   8  10
BRANCH   1  21
ATOM     21  N   UNL     1       5.325   6.944  15.536  0.00  0.00    +0.000 N 
ATOM     22  H   UNL     1       5.552   7.884  15.846  0.00  0.00    +0.000 HD
ATOM     23  H   UNL     1       6.062   6.541  14.954  0.00  0.00    +0.000 HD
ENDBRANCH   1  21
BRANCH   9  24
ATOM     24  C   UNL     1       2.352   5.641  20.689  0.00  0.00    +0.000 C 
BRANCH  24  25
ATOM     25  C   UNL     1       1.296   4.544  20.592  0.00  0.00    +0.000 C 
ATOM     26  C   UNL     1       1.098   3.804  19.249  0.00  0.00    +0.000 C 
ATOM     27  C   UNL     1       1.047   2.481  20.036  0.00  0.00    +0.000 C 
ATOM     28  C   UNL     1       1.751   3.194  21.201  0.00  0.00    +0.000 C 
ENDBRANCH  24  25
ENDBRANCH   9  24
TORSDOF 7
ENDMDL
MODEL 9
REMARK VINA RESULT:      -6.9      4.046      6.656
REMARK  Name = 
REMARK  7 active torsions:
REMARK  status: ('A' for Active; 'I' for Inactive)
REMARK    1  A    between atoms: N_1  and  C_2
REMARK    2  A    between atoms: C_9  and  C_10
REMARK    3  A    between atoms: C_13  and  P_14
REMARK    4  A    between atoms: P_14  and  O_16
REMARK    5  A    between atoms: P_14  and  O_17
REMARK    6  A    between atoms: N_19  and  C_20
REMARK    7  A    between atoms: C_20  and  C_21
REMARK                            x       y       z     vdW  Elec       q    Type
REMARK                         _______ _______ _______ _____ _____    ______ ____
ROOT
ATOM      1  C   UNL     1       1.070   9.504  18.953  0.00  0.00    +0.000 A 
ATOM      2  C   UNL     1       0.159   9.398  20.012  0.00  0.00    +0.000 A 
ATOM      3  C   UNL     1       0.237   8.352  20.934  0.00  0.00    +0.000 A 
ATOM      4  C   UNL     1       1.223   7.363  20.830  0.00  0.00    +0.000 A 
ATOM      5  C   UNL     1       2.127   7.465  19.764  0.00  0.00    +0.000 A 
ATOM      6  C   UNL     1       2.068   8.503  18.837  0.00  0.00    +0.000 A 
ATOM      7  N   UNL     1       3.057   8.374  17.886  0.00  0.00    +0.000 NA
ATOM      8  C   UNL     1       3.670   7.239  18.162  0.00  0.00    +0.000 A 
ATOM      9  N   UNL     1       3.182   6.678  19.328  0.00  0.00    +0.000 N 
ENDROOT
BRANCH   8  10
ATOM     10  C   UNL     1       4.709   6.684  17.342  0.00  0.00    +0.000 A 
ATOM     11  C   UNL     1       6.079   6.853  17.461  0.00  0.00    +0.000 A 
ATOM     12  C   UNL     1       6.700   6.057  16.463  0.00  0.00    +0.000 A 
ATOM     13  C   UNL     1       5.673   5.463  15.763  0.00  0.00    +0.000 A 
ATOM     14  O   UNL     1       4.468   5.851  16.278  0.00  0.00    +0.000 OA
BRANCH  13  15
ATOM     15  P   UNL     1       5.878   4.312  14.354  0.00  0.00    +0.000 P 
ATOM     16  O   UNL     1       7.160   5.029  13.924  0.00  0.00    +0.000 OA
BRANCH  15  17
ATOM     17  O   UNL     1       6.402   3.108  15.337  0.00  0.00    +0.000 OA
ATOM     18  H   UNL     1       5.920   3.157  16.183  0.00  0.00    +0.000 HD
ENDBRANCH  15  17
BRANCH  15  19
ATOM     19  O   UNL     1       6.071   3.224  13.024  0.00  0.00    +0.000 OA
ATOM     20  H   UNL     1       5.881   2.346  13.409  0.00  0.00    +0.000 HD
ENDBRANCH  15  19
ENDBRANCH  13  15
ENDBRANCH   8  10
BRANCH   1  21
ATOM     21  N   UNL     1       0.922  10.537  18.007  0.00  0.00    +0.000 N 
ATOM     22  H   UNL     1       1.721  10.618  17.386  0.00  0.00    +0.000 HD
ATOM     23  H   UNL     1       0.046  10.415  17.497  0.00  0.00    +0.000 HD
ENDBRANCH   1  21
BRANCH   9  24
ATOM     24  C   UNL     1       3.613   5.427  19.942  0.00  0.00    +0.000 C 
BRANCH  24  25
ATOM     25  C   UNL     1       2.849   4.178  19.512  0.00  0.00    +0.000 C 
ATOM     26  C   UNL     1       1.658   3.690  20.369  0.00  0.00    +0.000 C 
ATOM     27  C   UNL     1       0.864   3.480  19.066  0.00  0.00    +0.000 C 
ATOM     28  C   UNL     1       1.841   4.436  18.364  0.00  0.00    +0.000 C 
ENDBRANCH  24  25
ENDBRANCH   9  24
TORSDOF 7
ENDMDL
