MODEL 1
REMARK VINA RESULT:      -8.1      0.000      0.000
REMARK  Name = 
REMARK  6 active torsions:
REMARK  status: ('A' for Active; 'I' for Inactive)
REMARK    1  A    between atoms: C_1  and  C_2
REMARK    2  A    between atoms: C_2  and  C_3
REMARK    3  A    between atoms: C_3  and  C_4
REMARK    4  A    between atoms: C_12  and  C_13
REMARK    5  A    between atoms: C_16  and  O_17
REMARK    6  A    between atoms: O_17  and  C_18
REMARK                            x       y       z     vdW  Elec       q    Type
REMARK                         _______ _______ _______ _____ _____    ______ ____
ROOT
ATOM      1  C   UNL     1       6.586   4.772  15.418  0.00  0.00    +0.000 C 
ATOM      2  O   UNL     1       7.596   5.324  14.995  0.00  0.00    +0.000 OA
ATOM      3  N   UNL     1       6.188   4.717  16.740  0.00  0.00    +0.000 N 
ATOM      4  C   UNL     1       6.924   5.332  17.723  0.00  0.00    +0.000 A 
ATOM      5  N   UNL     1       7.202   4.666  18.848  0.00  0.00    +0.000 NA
ATOM      6  N   UNL     1       8.033   5.498  19.501  0.00  0.00    +0.000 N 
ATOM      7  C   UNL     1       8.141   6.738  18.940  0.00  0.00    +0.000 A 
ATOM      8  C   UNL     1       8.814   7.898  19.351  0.00  0.00    +0.000 A 
ATOM      9  C   UNL     1       8.656   9.080  18.596  0.00  0.00    +0.000 A 
ATOM     10  C   UNL     1       7.864   9.024  17.435  0.00  0.00    +0.000 A 
ATOM     11  C   UNL     1       7.255   7.836  16.991  0.00  0.00    +0.000 A 
ATOM     12  C   UNL     1       7.397   6.674  17.762  0.00  0.00    +0.000 A 
ATOM     13  H   UNL     1       5.723   3.876  17.054  0.00  0.00    +0.000 HD
ATOM     14  H   UNL     1       8.466   5.169  20.353  0.00  0.00    +0.000 HD
ENDROOT
BRANCH   9  15
ATOM     15  C   UNL     1       9.287  10.352  19.032  0.00  0.00    +0.000 A 
ATOM     16  C   UNL     1       9.418  10.684  20.391  0.00  0.00    +0.000 A 
ATOM     17  C   UNL     1      10.028  11.878  20.796  0.00  0.00    +0.000 A 
ATOM     18  C   UNL     1      10.527  12.772  19.854  0.00  0.00    +0.000 A 
ATOM     19  C   UNL     1      10.392  12.478  18.501  0.00  0.00    +0.000 A 
ATOM     20  C   UNL     1       9.789  11.279  18.100  0.00  0.00    +0.000 A 
BRANCH  18  21
ATOM     21  O   UNL     1      11.088  13.911  20.362  0.00  0.00    +0.000 OA
ATOM     22  C   UNL     1      11.810  14.706  19.429  0.00  0.00    +0.000 C 
ENDBRANCH  18  21
ENDBRANCH   9  15
BRANCH   1  23
ATOM     23  C   UNL     1       5.635   4.057  14.488  0.00  0.00    +0.000 C 
BRANCH  23  25
ATOM     24  C   UNL     1       5.371   3.341  12.084  0.00  0.00    +0.000 C 
ATOM     25  C   UNL     1       6.344   3.754  13.172  0.00  0.00    +0.000 C 
ENDBRANCH  23  25
ENDBRANCH   1  23
TORSDOF 4
ENDMDL
MODEL 2
REMARK VINA RESULT:      -8.0      0.434      1.090
REMARK  Name = 
REMARK  6 active torsions:
REMARK  status: ('A' for Active; 'I' for Inactive)
REMARK    1  A    between atoms: C_1  and  C_2
REMARK    2  A    between atoms: C_2  and  C_3
REMARK    3  A    between atoms: C_3  and  C_4
REMARK    4  A    between atoms: C_12  and  C_13
REMARK    5  A    between atoms: C_16  and  O_17
REMARK    6  A    between atoms: O_17  and  C_18
REMARK                            x       y       z     vdW  Elec       q    Type
REMARK                         _______ _______ _______ _____ _____    ______ ____
ROOT
ATOM      1  C   UNL     1       6.650   4.686  15.331  0.00  0.00    +0.000 C 
ATOM      2  O   UNL     1       7.663   5.250  14.930  0.00  0.00    +0.000 OA
ATOM      3  N   UNL     1       6.223   4.629  16.643  0.00  0.00    +0.000 N 
ATOM      4  C   UNL     1       6.929   5.254  17.641  0.00  0.00    +0.000 A 
ATOM      5  N   UNL     1       7.189   4.594  18.774  0.00  0.00    +0.000 NA
ATOM      6  N   UNL     1       7.994   5.438  19.444  0.00  0.00    +0.000 N 
ATOM      7  C   UNL     1       8.099   6.678  18.884  0.00  0.00    +0.000 A 
ATOM      8  C   UNL     1       8.749   7.847  19.308  0.00  0.00    +0.000 A 
ATOM      9  C   UNL     1       8.594   9.026  18.547  0.00  0.00    +0.000 A 
ATOM     10  C   UNL     1       7.829   8.958  17.367  0.00  0.00    +0.000 A 
ATOM     11  C   UNL     1       7.246   7.761  16.912  0.00  0.00    +0.000 A 
ATOM     12  C   UNL     1       7.384   6.602  17.689  0.00  0.00    +0.000 A 
ATOM     13  H   UNL     1       5.761   3.783  16.948  0.00  0.00    +0.000 HD
ATOM     14  H   UNL     1       8.411   5.116  20.307  0.00  0.00    +0.000 HD
ENDROOT
BRANCH   9  15
ATOM     15  C   UNL     1       9.199  10.305  18.994  0.00  0.00    +0.000 A 
ATOM     16  C   UNL     1       9.661  11.265  18.078  0.00  0.00    +0.000 A 
ATOM     17  C   UNL     1      10.217  12.477  18.506  0.00  0.00    +0.000 A 
ATOM     18  C   UNL     1      10.324  12.766  19.864  0.00  0.00    +0.000 A 
ATOM     19  C   UNL     1       9.894  11.824  20.793  0.00  0.00    +0.000 A 
ATOM     20  C   UNL     1       9.330  10.617  20.361  0.00  0.00    +0.000 A 
BRANCH  18  21
ATOM     21  O   UNL     1      10.895  13.970  20.166  0.00  0.00    +0.000 OA
ATOM     22  C   UNL     1      10.026  15.095  20.095  0.00  0.00    +0.000 C 
ENDBRANCH  18  21
ENDBRANCH   9  15
BRANCH   1  23
ATOM     23  C   UNL     1       5.730   3.958  14.380  0.00  0.00    +0.000 C 
BRANCH  23  25
ATOM     24  C   UNL     1       5.563   3.054  12.032  0.00  0.00    +0.000 C 
ATOM     25  C   UNL     1       6.371   3.899  12.997  0.00  0.00    +0.000 C 
ENDBRANCH  23  25
ENDBRANCH   1  23
TORSDOF 4
ENDMDL
MODEL 3
REMARK VINA RESULT:      -7.9      6.722      9.587
REMARK  Name = 
REMARK  6 active torsions:
REMARK  status: ('A' for Active; 'I' for Inactive)
REMARK    1  A    between atoms: C_1  and  C_2
REMARK    2  A    between atoms: C_2  and  C_3
REMARK    3  A    between atoms: C_3  and  C_4
REMARK    4  A    between atoms: C_12  and  C_13
REMARK    5  A    between atoms: C_16  and  O_17
REMARK    6  A    between atoms: O_17  and  C_18
REMARK                            x       y       z     vdW  Elec       q    Type
REMARK                         _______ _______ _______ _____ _____    ______ ____
ROOT
ATOM      1  C   UNL     1      -1.164  11.118  19.741  0.00  0.00    +0.000 C 
ATOM      2  O   UNL     1      -1.513  10.267  18.929  0.00  0.00    +0.000 OA
ATOM      3  N   UNL     1      -0.161  10.977  20.680  0.00  0.00    +0.000 N 
ATOM      4  C   UNL     1       0.573   9.818  20.757  0.00  0.00    +0.000 A 
ATOM      5  N   UNL     1       0.785   9.255  21.950  0.00  0.00    +0.000 NA
ATOM      6  N   UNL     1       1.398   8.099  21.640  0.00  0.00    +0.000 N 
ATOM      7  C   UNL     1       1.761   7.989  20.328  0.00  0.00    +0.000 A 
ATOM      8  C   UNL     1       2.484   7.008  19.633  0.00  0.00    +0.000 A 
ATOM      9  C   UNL     1       2.791   7.225  18.273  0.00  0.00    +0.000 A 
ATOM     10  C   UNL     1       2.313   8.401  17.664  0.00  0.00    +0.000 A 
ATOM     11  C   UNL     1       1.524   9.341  18.352  0.00  0.00    +0.000 A 
ATOM     12  C   UNL     1       1.247   9.128  19.710  0.00  0.00    +0.000 A 
ATOM     13  H   UNL     1      -0.289  11.430  21.574  0.00  0.00    +0.000 HD
ATOM     14  H   UNL     1       1.578   7.438  22.384  0.00  0.00    +0.000 HD
ENDROOT
BRANCH   9  15
ATOM     15  C   UNL     1       3.618   6.252  17.515  0.00  0.00    +0.000 A 
ATOM     16  C   UNL     1       4.658   6.669  16.667  0.00  0.00    +0.000 A 
ATOM     17  C   UNL     1       5.444   5.746  15.967  0.00  0.00    +0.000 A 
ATOM     18  C   UNL     1       5.215   4.379  16.096  0.00  0.00    +0.000 A 
ATOM     19  C   UNL     1       4.178   3.940  16.912  0.00  0.00    +0.000 A 
ATOM     20  C   UNL     1       3.399   4.866  17.619  0.00  0.00    +0.000 A 
BRANCH  18  21
ATOM     21  O   UNL     1       6.032   3.572  15.355  0.00  0.00    +0.000 OA
ATOM     22  C   UNL     1       6.346   4.051  14.052  0.00  0.00    +0.000 C 
ENDBRANCH  18  21
ENDBRANCH   9  15
BRANCH   1  23
ATOM     23  C   UNL     1      -1.838  12.468  19.798  0.00  0.00    +0.000 C 
BRANCH  23  25
ATOM     24  C   UNL     1      -0.182  13.545  18.232  0.00  0.00    +0.000 C 
ATOM     25  C   UNL     1      -0.794  13.566  19.618  0.00  0.00    +0.000 C 
ENDBRANCH  23  25
ENDBRANCH   1  23
TORSDOF 4
ENDMDL
MODEL 4
REMARK VINA RESULT:      -7.9      5.898      7.018
REMARK  Name = 
REMARK  6 active torsions:
REMARK  status: ('A' for Active; 'I' for Inactive)
REMARK    1  A    between atoms: C_1  and  C_2
REMARK    2  A    between atoms: C_2  and  C_3
REMARK    3  A    between atoms: C_3  and  C_4
REMARK    4  A    between atoms: C_12  and  C_13
REMARK    5  A    between atoms: C_16  and  O_17
REMARK    6  A    between atoms: O_17  and  C_18
REMARK                            x       y       z     vdW  Elec       q    Type
REMARK                         _______ _______ _______ _____ _____    ______ ____
ROOT
ATOM      1  C   UNL     1       6.107   4.976  16.098  0.00  0.00    +0.000 C 
ATOM      2  O   UNL     1       6.490   5.942  16.751  0.00  0.00    +0.000 OA
ATOM      3  N   UNL     1       5.055   4.143  16.427  0.00  0.00    +0.000 N 
ATOM      4  C   UNL     1       4.308   4.367  17.557  0.00  0.00    +0.000 A 
ATOM      5  N   UNL     1       4.028   3.344  18.371  0.00  0.00    +0.000 NA
ATOM      6  N   UNL     1       3.421   3.938  19.414  0.00  0.00    +0.000 N 
ATOM      7  C   UNL     1       3.126   5.257  19.216  0.00  0.00    +0.000 A 
ATOM      8  C   UNL     1       2.430   6.190  19.999  0.00  0.00    +0.000 A 
ATOM      9  C   UNL     1       2.197   7.479  19.473  0.00  0.00    +0.000 A 
ATOM     10  C   UNL     1       2.717   7.781  18.201  0.00  0.00    +0.000 A 
ATOM     11  C   UNL     1       3.479   6.860  17.458  0.00  0.00    +0.000 A 
ATOM     12  C   UNL     1       3.682   5.574  17.978  0.00  0.00    +0.000 A 
ATOM     13  H   UNL     1       5.142   3.165  16.191  0.00  0.00    +0.000 HD
ATOM     14  H   UNL     1       3.196   3.373  20.222  0.00  0.00    +0.000 HD
ENDROOT
BRANCH   9  15
ATOM     15  C   UNL     1       1.401   8.477  20.231  0.00  0.00    +0.000 A 
ATOM     16  C   UNL     1       0.925   9.654  19.630  0.00  0.00    +0.000 A 
ATOM     17  C   UNL     1       0.162  10.584  20.346  0.00  0.00    +0.000 A 
ATOM     18  C   UNL     1      -0.150  10.363  21.684  0.00  0.00    +0.000 A 
ATOM     19  C   UNL     1       0.327   9.217  22.311  0.00  0.00    +0.000 A 
ATOM     20  C   UNL     1       1.082   8.284  21.589  0.00  0.00    +0.000 A 
BRANCH  18  21
ATOM     21  O   UNL     1      -0.887  11.345  22.287  0.00  0.00    +0.000 OA
ATOM     22  C   UNL     1      -0.504  12.678  21.970  0.00  0.00    +0.000 C 
ENDBRANCH  18  21
ENDBRANCH   9  15
BRANCH   1  23
ATOM     23  C   UNL     1       6.791   4.581  14.811  0.00  0.00    +0.000 C 
BRANCH  23  25
ATOM     24  C   UNL     1       6.391   3.566  12.537  0.00  0.00    +0.000 C 
ATOM     25  C   UNL     1       5.768   3.969  13.859  0.00  0.00    +0.000 C 
ENDBRANCH  23  25
ENDBRANCH   1  23
TORSDOF 4
ENDMDL
MODEL 5
REMARK VINA RESULT:      -7.9      5.863      6.979
REMARK  Name = 
REMARK  6 active torsions:
REMARK  status: ('A' for Active; 'I' for Inactive)
REMARK    1  A    between atoms: C_1  and  C_2
REMARK    2  A    between atoms: C_2  and  C_3
REMARK    3  A    between atoms: C_3  and  C_4
REMARK    4  A    between atoms: C_12  and  C_13
REMARK    5  A    between atoms: C_16  and  O_17
REMARK    6  A    between atoms: O_17  and  C_18
REMARK                            x       y       z     vdW  Elec       q    Type
REMARK                         _______ _______ _______ _____ _____    ______ ____
ROOT
ATOM      1  C   UNL     1       6.318   5.098  15.988  0.00  0.00    +0.000 C 
ATOM      2  O   UNL     1       6.599   6.199  16.450  0.00  0.00    +0.000 OA
ATOM      3  N   UNL     1       5.415   4.201  16.526  0.00  0.00    +0.000 N 
ATOM      4  C   UNL     1       4.713   4.508  17.665  0.00  0.00    +0.000 A 
ATOM      5  N   UNL     1       4.630   3.605  18.647  0.00  0.00    +0.000 NA
ATOM      6  N   UNL     1       4.008   4.278  19.632  0.00  0.00    +0.000 N 
ATOM      7  C   UNL     1       3.519   5.497  19.258  0.00  0.00    +0.000 A 
ATOM      8  C   UNL     1       2.747   6.448  19.941  0.00  0.00    +0.000 A 
ATOM      9  C   UNL     1       2.303   7.592  19.245  0.00  0.00    +0.000 A 
ATOM     10  C   UNL     1       2.698   7.746  17.902  0.00  0.00    +0.000 A 
ATOM     11  C   UNL     1       3.536   6.822  17.251  0.00  0.00    +0.000 A 
ATOM     12  C   UNL     1       3.950   5.677  17.944  0.00  0.00    +0.000 A 
ATOM     13  H   UNL     1       5.625   3.216  16.437  0.00  0.00    +0.000 HD
ATOM     14  H   UNL     1       3.914   3.829  20.533  0.00  0.00    +0.000 HD
ENDROOT
BRANCH   9  15
ATOM     15  C   UNL     1       1.421   8.589  19.902  0.00  0.00    +0.000 A 
ATOM     16  C   UNL     1       0.951   8.409  21.213  0.00  0.00    +0.000 A 
ATOM     17  C   UNL     1       0.132   9.361  21.833  0.00  0.00    +0.000 A 
ATOM     18  C   UNL     1      -0.238  10.522  21.161  0.00  0.00    +0.000 A 
ATOM     19  C   UNL     1       0.197  10.716  19.854  0.00  0.00    +0.000 A 
ATOM     20  C   UNL     1       1.023   9.766  19.240  0.00  0.00    +0.000 A 
BRANCH  18  21
ATOM     21  O   UNL     1      -1.051  11.373  21.857  0.00  0.00    +0.000 OA
ATOM     22  C   UNL     1      -1.356  10.973  23.188  0.00  0.00    +0.000 C 
ENDBRANCH  18  21
ENDBRANCH   9  15
BRANCH   1  23
ATOM     23  C   UNL     1       6.971   4.589  14.725  0.00  0.00    +0.000 C 
BRANCH  23  25
ATOM     24  C   UNL     1       6.487   3.571  12.469  0.00  0.00    +0.000 C 
ATOM     25  C   UNL     1       5.908   4.003  13.802  0.00  0.00    +0.000 C 
ENDBRANCH  23  25
ENDBRANCH   1  23
TORSDOF 4
ENDMDL
MODEL 6
REMARK VINA RESULT:      -7.9      7.220      8.031
REMARK  Name = 
REMARK  6 active torsions:
REMARK  status: ('A' for Active; 'I' for Inactive)
REMARK    1  A    between atoms: C_1  and  C_2
REMARK    2  A    between atoms: C_2  and  C_3
REMARK    3  A    between atoms: C_3  and  C_4
REMARK    4  A    between atoms: C_12  and  C_13
REMARK    5  A    between atoms: C_16  and  O_17
REMARK    6  A    between atoms: O_17  and  C_18
REMARK                            x       y       z     vdW  Elec       q    Type
REMARK                         _______ _______ _______ _____ _____    ______ ____
ROOT
ATOM      1  C   UNL     1       4.873   6.374  16.717  0.00  0.00    +0.000 C 
ATOM      2  O   UNL     1       5.234   7.418  17.253  0.00  0.00    +0.000 OA
ATOM      3  N   UNL     1       3.948   5.482  17.226  0.00  0.00    +0.000 N 
ATOM      4  C   UNL     1       3.317   5.728  18.420  0.00  0.00    +0.000 A 
ATOM      5  N   UNL     1       3.229   4.752  19.329  0.00  0.00    +0.000 NA
ATOM      6  N   UNL     1       2.691   5.371  20.395  0.00  0.00    +0.000 N 
ATOM      7  C   UNL     1       2.252   6.640  20.145  0.00  0.00    +0.000 A 
ATOM      8  C   UNL     1       1.566   7.569  20.942  0.00  0.00    +0.000 A 
ATOM      9  C   UNL     1       1.153   8.788  20.363  0.00  0.00    +0.000 A 
ATOM     10  C   UNL     1       1.494   9.033  19.019  0.00  0.00    +0.000 A 
ATOM     11  C   UNL     1       2.250   8.126  18.254  0.00  0.00    +0.000 A 
ATOM     12  C   UNL     1       2.632   6.907  18.831  0.00  0.00    +0.000 A 
ATOM     13  H   UNL     1       4.099   4.500  17.047  0.00  0.00    +0.000 HD
ATOM     14  H   UNL     1       2.614   4.854  21.260  0.00  0.00    +0.000 HD
ENDROOT
BRANCH   9  15
ATOM     15  C   UNL     1       0.358   9.770  21.142  0.00  0.00    +0.000 A 
ATOM     16  C   UNL     1       0.129  11.074  20.673  0.00  0.00    +0.000 A 
ATOM     17  C   UNL     1      -0.634  11.992  21.406  0.00  0.00    +0.000 A 
ATOM     18  C   UNL     1      -1.193  11.630  22.628  0.00  0.00    +0.000 A 
ATOM     19  C   UNL     1      -0.965  10.352  23.126  0.00  0.00    +0.000 A 
ATOM     20  C   UNL     1      -0.208   9.434  22.386  0.00  0.00    +0.000 A 
BRANCH  18  21
ATOM     21  O   UNL     1      -1.906  12.609  23.263  0.00  0.00    +0.000 OA
ATOM     22  C   UNL     1      -3.247  12.270  23.597  0.00  0.00    +0.000 C 
ENDBRANCH  18  21
ENDBRANCH   9  15
BRANCH   1  23
ATOM     23  C   UNL     1       5.439   5.940  15.386  0.00  0.00    +0.000 C 
BRANCH  23  25
ATOM     24  C   UNL     1       6.054   3.911  14.022  0.00  0.00    +0.000 C 
ATOM     25  C   UNL     1       5.372   4.421  15.277  0.00  0.00    +0.000 C 
ENDBRANCH  23  25
ENDBRANCH   1  23
TORSDOF 4
ENDMDL
MODEL 7
REMARK VINA RESULT:      -7.9      6.772      9.585
REMARK  Name = 
REMARK  6 active torsions:
REMARK  status: ('A' for Active; 'I' for Inactive)
REMARK    1  A    between atoms: C_1  and  C_2
REMARK    2  A    between atoms: C_2  and  C_3
REMARK    3  A    between atoms: C_3  and  C_4
REMARK    4  A    between atoms: C_12  and  C_13
REMARK    5  A    between atoms: C_16  and  O_17
REMARK    6  A    between atoms: O_17  and  C_18
REMARK                            x       y       z     vdW  Elec       q    Type
REMARK                         _______ _______ _______ _____ _____    ______ ____
ROOT
ATOM      1  C   UNL     1      -1.212  11.175  19.730  0.00  0.00    +0.000 C 
ATOM      2  O   UNL     1      -1.540  10.340  18.893  0.00  0.00    +0.000 OA
ATOM      3  N   UNL     1      -0.232  11.017  20.690  0.00  0.00    +0.000 N 
ATOM      4  C   UNL     1       0.501   9.858  20.763  0.00  0.00    +0.000 A 
ATOM      5  N   UNL     1       0.685   9.272  21.950  0.00  0.00    +0.000 NA
ATOM      6  N   UNL     1       1.307   8.122  21.633  0.00  0.00    +0.000 N 
ATOM      7  C   UNL     1       1.702   8.038  20.329  0.00  0.00    +0.000 A 
ATOM      8  C   UNL     1       2.443   7.071  19.633  0.00  0.00    +0.000 A 
ATOM      9  C   UNL     1       2.783   7.314  18.285  0.00  0.00    +0.000 A 
ATOM     10  C   UNL     1       2.319   8.501  17.688  0.00  0.00    +0.000 A 
ATOM     11  C   UNL     1       1.511   9.427  18.374  0.00  0.00    +0.000 A 
ATOM     12  C   UNL     1       1.202   9.189  19.720  0.00  0.00    +0.000 A 
ATOM     13  H   UNL     1      -0.383  11.453  21.589  0.00  0.00    +0.000 HD
ATOM     14  H   UNL     1       1.470   7.448  22.369  0.00  0.00    +0.000 HD
ENDROOT
BRANCH   9  15
ATOM     15  C   UNL     1       3.629   6.357  17.529  0.00  0.00    +0.000 A 
ATOM     16  C   UNL     1       3.437   4.969  17.620  0.00  0.00    +0.000 A 
ATOM     17  C   UNL     1       4.228   4.072  16.892  0.00  0.00    +0.000 A 
ATOM     18  C   UNL     1       5.234   4.538  16.050  0.00  0.00    +0.000 A 
ATOM     19  C   UNL     1       5.460   5.907  15.958  0.00  0.00    +0.000 A 
ATOM     20  C   UNL     1       4.660   6.802  16.680  0.00  0.00    +0.000 A 
BRANCH  18  21
ATOM     21  O   UNL     1       5.953   3.573  15.402  0.00  0.00    +0.000 OA
ATOM     22  C   UNL     1       6.311   3.876  14.058  0.00  0.00    +0.000 C 
ENDBRANCH  18  21
ENDBRANCH   9  15
BRANCH   1  23
ATOM     23  C   UNL     1      -1.889  12.523  19.797  0.00  0.00    +0.000 C 
BRANCH  23  25
ATOM     24  C   UNL     1      -0.194  13.730  18.372  0.00  0.00    +0.000 C 
ATOM     25  C   UNL     1      -0.835  13.625  19.742  0.00  0.00    +0.000 C 
ENDBRANCH  23  25
ENDBRANCH   1  23
TORSDOF 4
ENDMDL
MODEL 8
REMARK VINA RESULT:      -7.8      6.685      7.524
REMARK  Name = 
REMARK  6 active torsions:
REMARK  status: ('A' for Active; 'I' for Inactive)
REMARK    1  A    between atoms: C_1  and  C_2
REMARK    2  A    between atoms: C_2  and  C_3
REMARK    3  A    between atoms: C_3  and  C_4
REMARK    4  A    between atoms: C_12  and  C_13
REMARK    5  A    between atoms: C_16  and  O_17
REMARK    6  A    between atoms: O_17  and  C_18
REMARK                            x       y       z     vdW  Elec       q    Type
REMARK                         _______ _______ _______ _____ _____    ______ ____
ROOT
ATOM      1  C   UNL     1       5.277   5.975  16.336  0.00  0.00    +0.000 C 
ATOM      2  O   UNL     1       5.696   6.942  16.963  0.00  0.00    +0.000 OA
ATOM      3  N   UNL     1       4.266   5.125  16.739  0.00  0.00    +0.000 N 
ATOM      4  C   UNL     1       3.606   5.330  17.926  0.00  0.00    +0.000 A 
ATOM      5  N   UNL     1       3.405   4.299  18.752  0.00  0.00    +0.000 NA
ATOM      6  N   UNL     1       2.873   4.877  19.843  0.00  0.00    +0.000 N 
ATOM      7  C   UNL     1       2.545   6.193  19.679  0.00  0.00    +0.000 A 
ATOM      8  C   UNL     1       1.901   7.111  20.520  0.00  0.00    +0.000 A 
ATOM      9  C   UNL     1       1.609   8.400  20.025  0.00  0.00    +0.000 A 
ATOM     10  C   UNL     1       2.024   8.717  18.717  0.00  0.00    +0.000 A 
ATOM     11  C   UNL     1       2.737   7.812  17.910  0.00  0.00    +0.000 A 
ATOM     12  C   UNL     1       2.999   6.526  18.403  0.00  0.00    +0.000 A 
ATOM     13  H   UNL     1       4.347   4.149  16.489  0.00  0.00    +0.000 HD
ATOM     14  H   UNL     1       2.720   4.304  20.662  0.00  0.00    +0.000 HD
ENDROOT
BRANCH   9  15
ATOM     15  C   UNL     1       0.861   9.382  20.850  0.00  0.00    +0.000 A 
ATOM     16  C   UNL     1       0.356   9.049  22.118  0.00  0.00    +0.000 A 
ATOM     17  C   UNL     1      -0.335   9.984  22.898  0.00  0.00    +0.000 A 
ATOM     18  C   UNL     1      -0.538  11.281  22.434  0.00  0.00    +0.000 A 
ATOM     19  C   UNL     1      -0.066  11.631  21.173  0.00  0.00    +0.000 A 
ATOM     20  C   UNL     1       0.632  10.696  20.399  0.00  0.00    +0.000 A 
BRANCH  18  21
ATOM     21  O   UNL     1      -1.238  12.104  23.272  0.00  0.00    +0.000 OA
ATOM     22  C   UNL     1      -2.628  11.821  23.387  0.00  0.00    +0.000 C 
ENDBRANCH  18  21
ENDBRANCH   9  15
BRANCH   1  23
ATOM     23  C   UNL     1       5.863   5.597  14.996  0.00  0.00    +0.000 C 
BRANCH  23  25
ATOM     24  C   UNL     1       5.949   3.668  13.374  0.00  0.00    +0.000 C 
ATOM     25  C   UNL     1       5.812   4.083  14.827  0.00  0.00    +0.000 C 
ENDBRANCH  23  25
ENDBRANCH   1  23
TORSDOF 4
ENDMDL
MODEL 9
REMARK VINA RESULT:      -7.8      7.155      9.892
REMARK  Name = 
REMARK  6 active torsions:
REMARK  status: ('A' for Active; 'I' for Inactive)
REMARK    1  A    between atoms: C_1  and  C_2
REMARK    2  A    between atoms: C_2  and  C_3
REMARK    3  A    between atoms: C_3  and  C_4
REMARK    4  A    between atoms: C_12  and  C_13
REMARK    5  A    between atoms: C_16  and  O_17
REMARK    6  A    between atoms: O_17  and  C_18
REMARK                            x       y       z     vdW  Elec       q    Type
REMARK                         _______ _______ _______ _____ _____    ______ ____
ROOT
ATOM      1  C   UNL     1      -1.142  11.356  19.705  0.00  0.00    +0.000 C 
ATOM      2  O   UNL     1      -1.507  10.502  18.902  0.00  0.00    +0.000 OA
ATOM      3  N   UNL     1      -0.155  11.199  20.659  0.00  0.00    +0.000 N 
ATOM      4  C   UNL     1       0.542  10.021  20.763  0.00  0.00    +0.000 A 
ATOM      5  N   UNL     1       0.722   9.470  21.968  0.00  0.00    +0.000 NA
ATOM      6  N   UNL     1       1.304   8.291  21.684  0.00  0.00    +0.000 N 
ATOM      7  C   UNL     1       1.679   8.150  20.378  0.00  0.00    +0.000 A 
ATOM      8  C   UNL     1       2.380   7.136  19.708  0.00  0.00    +0.000 A 
ATOM      9  C   UNL     1       2.709   7.322  18.348  0.00  0.00    +0.000 A 
ATOM     10  C   UNL     1       2.275   8.502  17.715  0.00  0.00    +0.000 A 
ATOM     11  C   UNL     1       1.506   9.476  18.378  0.00  0.00    +0.000 A 
ATOM     12  C   UNL     1       1.207   9.294  19.736  0.00  0.00    +0.000 A 
ATOM     13  H   UNL     1      -0.281  11.671  21.544  0.00  0.00    +0.000 HD
ATOM     14  H   UNL     1       1.455   7.638  22.440  0.00  0.00    +0.000 HD
ENDROOT
BRANCH   9  15
ATOM     15  C   UNL     1       3.515   6.312  17.616  0.00  0.00    +0.000 A 
ATOM     16  C   UNL     1       4.599   6.681  16.801  0.00  0.00    +0.000 A 
ATOM     17  C   UNL     1       5.365   5.724  16.125  0.00  0.00    +0.000 A 
ATOM     18  C   UNL     1       5.071   4.368  16.247  0.00  0.00    +0.000 A 
ATOM     19  C   UNL     1       3.991   3.977  17.030  0.00  0.00    +0.000 A 
ATOM     20  C   UNL     1       3.232   4.937  17.712  0.00  0.00    +0.000 A 
BRANCH  18  21
ATOM     21  O   UNL     1       5.874   3.525  15.531  0.00  0.00    +0.000 OA
ATOM     22  C   UNL     1       6.434   4.075  14.344  0.00  0.00    +0.000 C 
ENDBRANCH  18  21
ENDBRANCH   9  15
BRANCH   1  23
ATOM     23  C   UNL     1      -1.776  12.726  19.733  0.00  0.00    +0.000 C 
BRANCH  23  25
ATOM     24  C   UNL     1      -3.288  12.721  21.751  0.00  0.00    +0.000 C 
ATOM     25  C   UNL     1      -3.209  12.614  20.240  0.00  0.00    +0.000 C 
ENDBRANCH  23  25
ENDBRANCH   1  23
TORSDOF 4
ENDMDL
