MODEL 1
REMARK VINA RESULT:      -8.4      0.000      0.000
REMARK  Name = 
REMARK  4 active torsions:
REMARK  status: ('A' for Active; 'I' for Inactive)
REMARK    1  A    between atoms: C_2  and  O_3
REMARK    2  A    between atoms: C_2  and  C_4
REMARK    3  A    between atoms: N_8  and  C_9
REMARK    4  A    between atoms: C_11  and  C_12
REMARK                            x       y       z     vdW  Elec       q    Type
REMARK                         _______ _______ _______ _____ _____    ______ ____
ROOT
ATOM      1  C   UNL     1       4.179   4.966  18.461  0.00  0.00    +0.000 A 
ATOM      2  N   UNL     1       3.921   3.956  19.312  0.00  0.00    +0.000 NA
ATOM      3  C   UNL     1       2.936   4.130  20.228  0.00  0.00    +0.000 A 
ATOM      4  N   UNL     1       2.264   5.290  20.387  0.00  0.00    +0.000 NA
ATOM      5  C   UNL     1       2.515   6.283  19.535  0.00  0.00    +0.000 A 
ATOM      6  C   UNL     1       1.824   7.485  19.673  0.00  0.00    +0.000 A 
ATOM      7  C   UNL     1       2.022   8.558  18.798  0.00  0.00    +0.000 A 
ATOM      8  C   UNL     1       2.897   8.424  17.732  0.00  0.00    +0.000 A 
ATOM      9  C   UNL     1       3.583   7.227  17.566  0.00  0.00    +0.000 A 
ATOM     10  C   UNL     1       3.448   6.168  18.498  0.00  0.00    +0.000 A 
ENDROOT
BRANCH   1  15
ATOM     11  C   UNL     1       6.610   4.643  17.818  0.00  0.00    +0.000 C 
ATOM     12  C   UNL     1       7.160   4.827  16.403  0.00  0.00    +0.000 C 
ATOM     13  C   UNL     1       6.218   3.954  15.573  0.00  0.00    +0.000 C 
ATOM     14  C   UNL     1       4.889   3.942  16.353  0.00  0.00    +0.000 C 
ATOM     15  N   UNL     1       5.169   4.784  17.521  0.00  0.00    +0.000 N 
BRANCH  11  17
ATOM     16  O   UNL     1       7.305   5.394  20.035  0.00  0.00    +0.000 OA
ATOM     17  C   UNL     1       7.239   5.593  18.831  0.00  0.00    +0.000 C 
BRANCH  17  18
ATOM     18  O   UNL     1       7.687   6.747  18.273  0.00  0.00    +0.000 OA
ATOM     19  H   UNL     1       7.089   7.505  18.431  0.00  0.00    +0.000 HD
ENDBRANCH  17  18
ENDBRANCH  11  17
ENDBRANCH   1  15
BRANCH   3  20
ATOM     20  C   UNL     1       2.541   2.952  21.129  0.00  0.00    +0.000 C 
ATOM     21  F   UNL     1       1.635   2.099  20.564  0.00  0.00    +0.000 F 
ATOM     22  F   UNL     1       3.605   2.167  21.480  0.00  0.00    +0.000 F 
ATOM     23  F   UNL     1       1.973   3.349  22.308  0.00  0.00    +0.000 F 
ENDBRANCH   3  20
TORSDOF 4
ENDMDL
MODEL 2
REMARK VINA RESULT:      -8.3      0.069      1.057
REMARK  Name = 
REMARK  4 active torsions:
REMARK  status: ('A' for Active; 'I' for Inactive)
REMARK    1  A    between atoms: C_2  and  O_3
REMARK    2  A    between atoms: C_2  and  C_4
REMARK    3  A    between atoms: N_8  and  C_9
REMARK    4  A    between atoms: C_11  and  C_12
REMARK                            x       y       z     vdW  Elec       q    Type
REMARK                         _______ _______ _______ _____ _____    ______ ____
ROOT
ATOM      1  C   UNL     1       4.172   4.952  18.438  0.00  0.00    +0.000 A 
ATOM      2  N   UNL     1       3.921   3.943  19.293  0.00  0.00    +0.000 NA
ATOM      3  C   UNL     1       2.951   4.123  20.224  0.00  0.00    +0.000 A 
ATOM      4  N   UNL     1       2.287   5.287  20.392  0.00  0.00    +0.000 NA
ATOM      5  C   UNL     1       2.531   6.278  19.536  0.00  0.00    +0.000 A 
ATOM      6  C   UNL     1       1.848   7.484  19.684  0.00  0.00    +0.000 A 
ATOM      7  C   UNL     1       2.039   8.556  18.805  0.00  0.00    +0.000 A 
ATOM      8  C   UNL     1       2.897   8.416  17.725  0.00  0.00    +0.000 A 
ATOM      9  C   UNL     1       3.574   7.216  17.551  0.00  0.00    +0.000 A 
ATOM     10  C   UNL     1       3.448   6.158  18.485  0.00  0.00    +0.000 A 
ENDROOT
BRANCH   1  15
ATOM     11  C   UNL     1       6.598   4.697  17.750  0.00  0.00    +0.000 C 
ATOM     12  C   UNL     1       7.108   4.833  16.315  0.00  0.00    +0.000 C 
ATOM     13  C   UNL     1       6.184   3.882  15.552  0.00  0.00    +0.000 C 
ATOM     14  C   UNL     1       4.876   3.855  16.366  0.00  0.00    +0.000 C 
ATOM     15  N   UNL     1       5.147   4.764  17.483  0.00  0.00    +0.000 N 
BRANCH  11  17
ATOM     16  O   UNL     1       7.677   6.800  18.366  0.00  0.00    +0.000 OA
ATOM     17  C   UNL     1       7.210   5.721  18.700  0.00  0.00    +0.000 C 
BRANCH  17  18
ATOM     18  O   UNL     1       7.247   5.296  19.990  0.00  0.00    +0.000 OA
ATOM     19  H   UNL     1       8.004   4.706  20.176  0.00  0.00    +0.000 HD
ENDBRANCH  17  18
ENDBRANCH  11  17
ENDBRANCH   1  15
BRANCH   3  20
ATOM     20  C   UNL     1       2.563   2.948  21.132  0.00  0.00    +0.000 C 
ATOM     21  F   UNL     1       2.014   3.326  22.326  0.00  0.00    +0.000 F 
ATOM     22  F   UNL     1       1.643   2.113  20.560  0.00  0.00    +0.000 F 
ATOM     23  F   UNL     1       3.626   2.153  21.460  0.00  0.00    +0.000 F 
ENDBRANCH   3  20
TORSDOF 4
ENDMDL
MODEL 3
REMARK VINA RESULT:      -7.7      2.729      3.923
REMARK  Name = 
REMARK  4 active torsions:
REMARK  status: ('A' for Active; 'I' for Inactive)
REMARK    1  A    between atoms: C_2  and  O_3
REMARK    2  A    between atoms: C_2  and  C_4
REMARK    3  A    between atoms: N_8  and  C_9
REMARK    4  A    between atoms: C_11  and  C_12
REMARK                            x       y       z     vdW  Elec       q    Type
REMARK                         _______ _______ _______ _____ _____    ______ ____
ROOT
ATOM      1  C   UNL     1       4.125   5.422  18.080  0.00  0.00    +0.000 A 
ATOM      2  N   UNL     1       3.599   6.638  17.842  0.00  0.00    +0.000 NA
ATOM      3  C   UNL     1       2.582   7.060  18.636  0.00  0.00    +0.000 A 
ATOM      4  N   UNL     1       2.016   6.291  19.591  0.00  0.00    +0.000 NA
ATOM      5  C   UNL     1       2.547   5.093  19.830  0.00  0.00    +0.000 A 
ATOM      6  C   UNL     1       1.986   4.288  20.819  0.00  0.00    +0.000 A 
ATOM      7  C   UNL     1       2.510   3.031  21.137  0.00  0.00    +0.000 A 
ATOM      8  C   UNL     1       3.646   2.574  20.487  0.00  0.00    +0.000 A 
ATOM      9  C   UNL     1       4.231   3.369  19.510  0.00  0.00    +0.000 A 
ATOM     10  C   UNL     1       3.655   4.606  19.126  0.00  0.00    +0.000 A 
ENDROOT
BRANCH   1  15
ATOM     11  C   UNL     1       6.522   4.663  17.765  0.00  0.00    +0.000 C 
ATOM     12  C   UNL     1       7.247   4.627  16.419  0.00  0.00    +0.000 C 
ATOM     13  C   UNL     1       6.268   3.840  15.546  0.00  0.00    +0.000 C 
ATOM     14  C   UNL     1       4.879   4.110  16.156  0.00  0.00    +0.000 C 
ATOM     15  N   UNL     1       5.167   5.001  17.284  0.00  0.00    +0.000 N 
BRANCH  11  17
ATOM     16  O   UNL     1       7.222   5.409  19.984  0.00  0.00    +0.000 OA
ATOM     17  C   UNL     1       7.187   5.592  18.776  0.00  0.00    +0.000 C 
BRANCH  17  18
ATOM     18  O   UNL     1       7.708   6.711  18.209  0.00  0.00    +0.000 OA
ATOM     19  H   UNL     1       8.469   6.524  17.623  0.00  0.00    +0.000 HD
ENDBRANCH  17  18
ENDBRANCH  11  17
ENDBRANCH   1  15
BRANCH   3  20
ATOM     20  C   UNL     1       2.046   8.487  18.464  0.00  0.00    +0.000 C 
ATOM     21  F   UNL     1       1.558   9.040  19.615  0.00  0.00    +0.000 F 
ATOM     22  F   UNL     1       2.997   9.364  18.018  0.00  0.00    +0.000 F 
ATOM     23  F   UNL     1       1.020   8.567  17.563  0.00  0.00    +0.000 F 
ENDBRANCH   3  20
TORSDOF 4
ENDMDL
MODEL 4
REMARK VINA RESULT:      -7.6      0.959      1.474
REMARK  Name = 
REMARK  4 active torsions:
REMARK  status: ('A' for Active; 'I' for Inactive)
REMARK    1  A    between atoms: C_2  and  O_3
REMARK    2  A    between atoms: C_2  and  C_4
REMARK    3  A    between atoms: N_8  and  C_9
REMARK    4  A    between atoms: C_11  and  C_12
REMARK                            x       y       z     vdW  Elec       q    Type
REMARK                         _______ _______ _______ _____ _____    ______ ____
ROOT
ATOM      1  C   UNL     1       4.521   5.052  17.871  0.00  0.00    +0.000 A 
ATOM      2  N   UNL     1       4.525   3.937  18.624  0.00  0.00    +0.000 NA
ATOM      3  C   UNL     1       3.712   3.897  19.709  0.00  0.00    +0.000 A 
ATOM      4  N   UNL     1       2.967   4.946  20.120  0.00  0.00    +0.000 NA
ATOM      5  C   UNL     1       2.957   6.043  19.365  0.00  0.00    +0.000 A 
ATOM      6  C   UNL     1       2.187   7.133  19.765  0.00  0.00    +0.000 A 
ATOM      7  C   UNL     1       2.113   8.306  19.006  0.00  0.00    +0.000 A 
ATOM      8  C   UNL     1       2.787   8.387  17.797  0.00  0.00    +0.000 A 
ATOM      9  C   UNL     1       3.547   7.305  17.373  0.00  0.00    +0.000 A 
ATOM     10  C   UNL     1       3.692   6.148  18.178  0.00  0.00    +0.000 A 
ENDROOT
BRANCH   1  15
ATOM     11  C   UNL     1       6.791   5.334  16.780  0.00  0.00    +0.000 C 
ATOM     12  C   UNL     1       7.007   5.588  15.288  0.00  0.00    +0.000 C 
ATOM     13  C   UNL     1       6.189   4.466  14.647  0.00  0.00    +0.000 C 
ATOM     14  C   UNL     1       5.075   4.150  15.664  0.00  0.00    +0.000 C 
ATOM     15  N   UNL     1       5.335   5.087  16.760  0.00  0.00    +0.000 N 
BRANCH  11  17
ATOM     16  O   UNL     1       7.389   7.636  17.337  0.00  0.00    +0.000 OA
ATOM     17  C   UNL     1       7.326   6.459  17.660  0.00  0.00    +0.000 C 
BRANCH  17  18
ATOM     18  O   UNL     1       7.797   6.022  18.857  0.00  0.00    +0.000 OA
ATOM     19  H   UNL     1       7.853   6.731  19.528  0.00  0.00    +0.000 HD
ENDBRANCH  17  18
ENDBRANCH  11  17
ENDBRANCH   1  15
BRANCH   3  20
ATOM     20  C   UNL     1       3.608   2.594  20.514  0.00  0.00    +0.000 C 
ATOM     21  F   UNL     1       4.816   2.064  20.873  0.00  0.00    +0.000 F 
ATOM     22  F   UNL     1       2.918   2.745  21.686  0.00  0.00    +0.000 F 
ATOM     23  F   UNL     1       2.965   1.597  19.835  0.00  0.00    +0.000 F 
ENDBRANCH   3  20
TORSDOF 4
ENDMDL
MODEL 5
REMARK VINA RESULT:      -7.6      3.263      4.522
REMARK  Name = 
REMARK  4 active torsions:
REMARK  status: ('A' for Active; 'I' for Inactive)
REMARK    1  A    between atoms: C_2  and  O_3
REMARK    2  A    between atoms: C_2  and  C_4
REMARK    3  A    between atoms: N_8  and  C_9
REMARK    4  A    between atoms: C_11  and  C_12
REMARK                            x       y       z     vdW  Elec       q    Type
REMARK                         _______ _______ _______ _____ _____    ______ ____
ROOT
ATOM      1  C   UNL     1       4.397   5.317  18.186  0.00  0.00    +0.000 A 
ATOM      2  N   UNL     1       3.955   6.587  18.121  0.00  0.00    +0.000 NA
ATOM      3  C   UNL     1       2.617   6.801  18.184  0.00  0.00    +0.000 A 
ATOM      4  N   UNL     1       1.705   5.806  18.220  0.00  0.00    +0.000 NA
ATOM      5  C   UNL     1       2.147   4.551  18.296  0.00  0.00    +0.000 A 
ATOM      6  C   UNL     1       1.223   3.510  18.347  0.00  0.00    +0.000 A 
ATOM      7  C   UNL     1       1.619   2.172  18.451  0.00  0.00    +0.000 A 
ATOM      8  C   UNL     1       2.966   1.859  18.551  0.00  0.00    +0.000 A 
ATOM      9  C   UNL     1       3.902   2.885  18.520  0.00  0.00    +0.000 A 
ATOM     10  C   UNL     1       3.510   4.233  18.330  0.00  0.00    +0.000 A 
ENDROOT
BRANCH   1  15
ATOM     11  C   UNL     1       6.582   5.147  16.914  0.00  0.00    +0.000 C 
ATOM     12  C   UNL     1       7.853   4.499  17.464  0.00  0.00    +0.000 C 
ATOM     13  C   UNL     1       8.018   5.202  18.812  0.00  0.00    +0.000 C 
ATOM     14  C   UNL     1       6.590   5.597  19.236  0.00  0.00    +0.000 C 
ATOM     15  N   UNL     1       5.756   5.100  18.138  0.00  0.00    +0.000 N 
BRANCH  11  17
ATOM     16  O   UNL     1       5.609   5.036  14.676  0.00  0.00    +0.000 OA
ATOM     17  C   UNL     1       6.058   4.461  15.657  0.00  0.00    +0.000 C 
BRANCH  17  18
ATOM     18  O   UNL     1       6.079   3.105  15.742  0.00  0.00    +0.000 OA
ATOM     19  H   UNL     1       5.409   2.751  16.359  0.00  0.00    +0.000 HD
ENDBRANCH  17  18
ENDBRANCH  11  17
ENDBRANCH   1  15
BRANCH   3  20
ATOM     20  C   UNL     1       2.095   8.243  18.233  0.00  0.00    +0.000 C 
ATOM     21  F   UNL     1       1.670   8.639  19.471  0.00  0.00    +0.000 F 
ATOM     22  F   UNL     1       3.037   9.165  17.865  0.00  0.00    +0.000 F 
ATOM     23  F   UNL     1       1.030   8.454  17.402  0.00  0.00    +0.000 F 
ENDBRANCH   3  20
TORSDOF 4
ENDMDL
MODEL 6
REMARK VINA RESULT:      -7.5      1.391      1.771
REMARK  Name = 
REMARK  4 active torsions:
REMARK  status: ('A' for Active; 'I' for Inactive)
REMARK    1  A    between atoms: C_2  and  O_3
REMARK    2  A    between atoms: C_2  and  C_4
REMARK    3  A    between atoms: N_8  and  C_9
REMARK    4  A    between atoms: C_11  and  C_12
REMARK                            x       y       z     vdW  Elec       q    Type
REMARK                         _______ _______ _______ _____ _____    ______ ____
ROOT
ATOM      1  C   UNL     1       4.341   4.668  17.170  0.00  0.00    +0.000 A 
ATOM      2  N   UNL     1       3.979   3.463  17.648  0.00  0.00    +0.000 NA
ATOM      3  C   UNL     1       2.963   3.412  18.546  0.00  0.00    +0.000 A 
ATOM      4  N   UNL     1       2.358   4.510  19.047  0.00  0.00    +0.000 NA
ATOM      5  C   UNL     1       2.712   5.700  18.563  0.00  0.00    +0.000 A 
ATOM      6  C   UNL     1       2.092   6.844  19.059  0.00  0.00    +0.000 A 
ATOM      7  C   UNL     1       2.400   8.121  18.577  0.00  0.00    +0.000 A 
ATOM      8  C   UNL     1       3.316   8.265  17.546  0.00  0.00    +0.000 A 
ATOM      9  C   UNL     1       3.933   7.134  17.027  0.00  0.00    +0.000 A 
ATOM     10  C   UNL     1       3.686   5.848  17.569  0.00  0.00    +0.000 A 
ENDROOT
BRANCH   1  15
ATOM     11  C   UNL     1       6.794   4.517  16.551  0.00  0.00    +0.000 C 
ATOM     12  C   UNL     1       7.388   5.033  15.240  0.00  0.00    +0.000 C 
ATOM     13  C   UNL     1       6.483   4.379  14.195  0.00  0.00    +0.000 C 
ATOM     14  C   UNL     1       5.130   4.177  14.906  0.00  0.00    +0.000 C 
ATOM     15  N   UNL     1       5.363   4.718  16.248  0.00  0.00    +0.000 N 
BRANCH  11  17
ATOM     16  O   UNL     1       7.713   4.634  18.811  0.00  0.00    +0.000 OA
ATOM     17  C   UNL     1       7.380   5.202  17.782  0.00  0.00    +0.000 C 
BRANCH  17  18
ATOM     18  O   UNL     1       7.450   6.553  17.657  0.00  0.00    +0.000 OA
ATOM     19  H   UNL     1       6.691   7.014  18.065  0.00  0.00    +0.000 HD
ENDBRANCH  17  18
ENDBRANCH  11  17
ENDBRANCH   1  15
BRANCH   3  20
ATOM     20  C   UNL     1       2.451   2.044  19.014  0.00  0.00    +0.000 C 
ATOM     21  F   UNL     1       2.318   1.934  20.370  0.00  0.00    +0.000 F 
ATOM     22  F   UNL     1       1.219   1.732  18.505  0.00  0.00    +0.000 F 
ATOM     23  F   UNL     1       3.271   1.013  18.648  0.00  0.00    +0.000 F 
ENDBRANCH   3  20
TORSDOF 4
ENDMDL
MODEL 7
REMARK VINA RESULT:      -7.5      1.404      1.788
REMARK  Name = 
REMARK  4 active torsions:
REMARK  status: ('A' for Active; 'I' for Inactive)
REMARK    1  A    between atoms: C_2  and  O_3
REMARK    2  A    between atoms: C_2  and  C_4
REMARK    3  A    between atoms: N_8  and  C_9
REMARK    4  A    between atoms: C_11  and  C_12
REMARK                            x       y       z     vdW  Elec       q    Type
REMARK                         _______ _______ _______ _____ _____    ______ ____
ROOT
ATOM      1  C   UNL     1       4.332   4.666  17.150  0.00  0.00    +0.000 A 
ATOM      2  N   UNL     1       3.970   3.462  17.630  0.00  0.00    +0.000 NA
ATOM      3  C   UNL     1       2.963   3.413  18.537  0.00  0.00    +0.000 A 
ATOM      4  N   UNL     1       2.366   4.512  19.047  0.00  0.00    +0.000 NA
ATOM      5  C   UNL     1       2.720   5.701  18.562  0.00  0.00    +0.000 A 
ATOM      6  C   UNL     1       2.109   6.847  19.065  0.00  0.00    +0.000 A 
ATOM      7  C   UNL     1       2.416   8.124  18.582  0.00  0.00    +0.000 A 
ATOM      8  C   UNL     1       3.322   8.266  17.543  0.00  0.00    +0.000 A 
ATOM      9  C   UNL     1       3.930   7.134  17.015  0.00  0.00    +0.000 A 
ATOM     10  C   UNL     1       3.684   5.848  17.558  0.00  0.00    +0.000 A 
ENDROOT
BRANCH   1  15
ATOM     11  C   UNL     1       6.785   4.599  16.519  0.00  0.00    +0.000 C 
ATOM     12  C   UNL     1       7.345   5.071  15.177  0.00  0.00    +0.000 C 
ATOM     13  C   UNL     1       6.466   4.317  14.177  0.00  0.00    +0.000 C 
ATOM     14  C   UNL     1       5.129   4.089  14.909  0.00  0.00    +0.000 C 
ATOM     15  N   UNL     1       5.344   4.715  16.217  0.00  0.00    +0.000 N 
BRANCH  11  17
ATOM     16  O   UNL     1       7.382   6.597  17.791  0.00  0.00    +0.000 OA
ATOM     17  C   UNL     1       7.344   5.379  17.705  0.00  0.00    +0.000 C 
BRANCH  17  18
ATOM     18  O   UNL     1       7.868   4.578  18.670  0.00  0.00    +0.000 OA
ATOM     19  H   UNL     1       7.307   3.803  18.869  0.00  0.00    +0.000 HD
ENDBRANCH  17  18
ENDBRANCH  11  17
ENDBRANCH   1  15
BRANCH   3  20
ATOM     20  C   UNL     1       2.451   2.045  19.009  0.00  0.00    +0.000 C 
ATOM     21  F   UNL     1       3.250   0.997  18.647  0.00  0.00    +0.000 F 
ATOM     22  F   UNL     1       2.335   1.958  20.369  0.00  0.00    +0.000 F 
ATOM     23  F   UNL     1       1.212   1.740  18.515  0.00  0.00    +0.000 F 
ENDBRANCH   3  20
TORSDOF 4
ENDMDL
MODEL 8
REMARK VINA RESULT:      -7.4      1.112      1.313
REMARK  Name = 
REMARK  4 active torsions:
REMARK  status: ('A' for Active; 'I' for Inactive)
REMARK    1  A    between atoms: C_2  and  O_3
REMARK    2  A    between atoms: C_2  and  C_4
REMARK    3  A    between atoms: N_8  and  C_9
REMARK    4  A    between atoms: C_11  and  C_12
REMARK                            x       y       z     vdW  Elec       q    Type
REMARK                         _______ _______ _______ _____ _____    ______ ____
ROOT
ATOM      1  C   UNL     1       4.561   4.878  17.600  0.00  0.00    +0.000 A 
ATOM      2  N   UNL     1       4.481   3.713  18.269  0.00  0.00    +0.000 NA
ATOM      3  C   UNL     1       3.615   3.632  19.309  0.00  0.00    +0.000 A 
ATOM      4  N   UNL     1       2.896   4.682  19.762  0.00  0.00    +0.000 NA
ATOM      5  C   UNL     1       2.969   5.830  19.090  0.00  0.00    +0.000 A 
ATOM      6  C   UNL     1       2.226   6.922  19.533  0.00  0.00    +0.000 A 
ATOM      7  C   UNL     1       2.239   8.149  18.860  0.00  0.00    +0.000 A 
ATOM      8  C   UNL     1       2.975   8.285  17.693  0.00  0.00    +0.000 A 
ATOM      9  C   UNL     1       3.709   7.203  17.226  0.00  0.00    +0.000 A 
ATOM     10  C   UNL     1       3.765   5.985  17.949  0.00  0.00    +0.000 A 
ENDROOT
BRANCH   1  15
ATOM     11  C   UNL     1       6.880   5.220  16.635  0.00  0.00    +0.000 C 
ATOM     12  C   UNL     1       7.167   5.520  15.163  0.00  0.00    +0.000 C 
ATOM     13  C   UNL     1       6.398   4.406  14.450  0.00  0.00    +0.000 C 
ATOM     14  C   UNL     1       5.239   4.047  15.400  0.00  0.00    +0.000 C 
ATOM     15  N   UNL     1       5.430   4.955  16.534  0.00  0.00    +0.000 N 
BRANCH  11  17
ATOM     16  O   UNL     1       7.714   6.161  18.728  0.00  0.00    +0.000 OA
ATOM     17  C   UNL     1       7.353   6.325  17.572  0.00  0.00    +0.000 C 
BRANCH  17  18
ATOM     18  O   UNL     1       7.284   7.563  17.015  0.00  0.00    +0.000 OA
ATOM     19  H   UNL     1       6.876   7.559  16.127  0.00  0.00    +0.000 HD
ENDBRANCH  17  18
ENDBRANCH  11  17
ENDBRANCH   1  15
BRANCH   3  20
ATOM     20  C   UNL     1       3.417   2.282  20.011  0.00  0.00    +0.000 C 
ATOM     21  F   UNL     1       2.133   2.050  20.419  0.00  0.00    +0.000 F 
ATOM     22  F   UNL     1       3.742   1.215  19.217  0.00  0.00    +0.000 F 
ATOM     23  F   UNL     1       4.182   2.148  21.137  0.00  0.00    +0.000 F 
ENDBRANCH   3  20
TORSDOF 4
ENDMDL
MODEL 9
REMARK VINA RESULT:      -7.4      2.876      3.966
REMARK  Name = 
REMARK  4 active torsions:
REMARK  status: ('A' for Active; 'I' for Inactive)
REMARK    1  A    between atoms: C_2  and  O_3
REMARK    2  A    between atoms: C_2  and  C_4
REMARK    3  A    between atoms: N_8  and  C_9
REMARK    4  A    between atoms: C_11  and  C_12
REMARK                            x       y       z     vdW  Elec       q    Type
REMARK                         _______ _______ _______ _____ _____    ______ ____
ROOT
ATOM      1  C   UNL     1       4.122   5.291  17.351  0.00  0.00    +0.000 A 
ATOM      2  N   UNL     1       3.712   6.568  17.465  0.00  0.00    +0.000 NA
ATOM      3  C   UNL     1       2.553   6.810  18.127  0.00  0.00    +0.000 A 
ATOM      4  N   UNL     1       1.750   5.833  18.601  0.00  0.00    +0.000 NA
ATOM      5  C   UNL     1       2.165   4.572  18.497  0.00  0.00    +0.000 A 
ATOM      6  C   UNL     1       1.356   3.550  18.989  0.00  0.00    +0.000 A 
ATOM      7  C   UNL     1       1.744   2.207  18.933  0.00  0.00    +0.000 A 
ATOM      8  C   UNL     1       2.984   1.869  18.413  0.00  0.00    +0.000 A 
ATOM      9  C   UNL     1       3.812   2.876  17.933  0.00  0.00    +0.000 A 
ATOM     10  C   UNL     1       3.389   4.228  17.911  0.00  0.00    +0.000 A 
ENDROOT
BRANCH   1  15
ATOM     11  C   UNL     1       6.578   4.664  17.339  0.00  0.00    +0.000 C 
ATOM     12  C   UNL     1       7.521   4.890  16.157  0.00  0.00    +0.000 C 
ATOM     13  C   UNL     1       6.751   4.249  15.001  0.00  0.00    +0.000 C 
ATOM     14  C   UNL     1       5.265   4.367  15.394  0.00  0.00    +0.000 C 
ATOM     15  N   UNL     1       5.306   5.047  16.692  0.00  0.00    +0.000 N 
BRANCH  11  17
ATOM     16  O   UNL     1       6.668   5.126  19.736  0.00  0.00    +0.000 OA
ATOM     17  C   UNL     1       7.007   5.412  18.597  0.00  0.00    +0.000 C 
BRANCH  17  18
ATOM     18  O   UNL     1       7.780   6.498  18.333  0.00  0.00    +0.000 OA
ATOM     19  H   UNL     1       8.708   6.265  18.131  0.00  0.00    +0.000 HD
ENDBRANCH  17  18
ENDBRANCH  11  17
ENDBRANCH   1  15
BRANCH   3  20
ATOM     20  C   UNL     1       2.126   8.263  18.375  0.00  0.00    +0.000 C 
ATOM     21  F   UNL     1       1.046   8.658  17.637  0.00  0.00    +0.000 F 
ATOM     22  F   UNL     1       1.780   8.502  19.677  0.00  0.00    +0.000 F 
ATOM     23  F   UNL     1       3.111   9.166  18.085  0.00  0.00    +0.000 F 
ENDBRANCH   3  20
TORSDOF 4
ENDMDL
