MODEL 1
REMARK VINA RESULT:      -8.1      0.000      0.000
REMARK  Name = 
REMARK  5 active torsions:
REMARK  status: ('A' for Active; 'I' for Inactive)
REMARK    1  A    between atoms: C_8  and  C_9
REMARK    2  A    between atoms: C_9  and  O_10
REMARK    3  A    between atoms: N_19  and  C_20
REMARK    4  A    between atoms: C_24  and  O_25
REMARK    5  A    between atoms: O_25  and  C_26
REMARK                            x       y       z     vdW  Elec       q    Type
REMARK                         _______ _______ _______ _____ _____    ______ ____
ROOT
ATOM      1  C   UNL     1      -0.422  11.554  20.512  0.00  0.00    +0.000 C 
ATOM      2  C   UNL     1       0.477  10.369  20.217  0.00  0.00    +0.000 A 
ATOM      3  C   UNL     1       1.061   9.917  19.040  0.00  0.00    +0.000 A 
ATOM      4  C   UNL     1       1.722   8.678  19.054  0.00  0.00    +0.000 A 
ATOM      5  C   UNL     1       1.803   7.903  20.223  0.00  0.00    +0.000 A 
ATOM      6  C   UNL     1       1.237   8.363  21.406  0.00  0.00    +0.000 A 
ATOM      7  C   UNL     1       0.589   9.584  21.362  0.00  0.00    +0.000 A 
ATOM      8  C   UNL     1      -0.122  10.233  22.449  0.00  0.00    +0.000 C 
ATOM      9  O   UNL     1      -0.147   9.752  23.573  0.00  0.00    +0.000 OA
ATOM     10  N   UNL     1      -0.718  11.384  21.940  0.00  0.00    +0.000 N 
ENDROOT
BRANCH   1  18
ATOM     11  O   UNL     1      -0.876  18.038  17.341  0.00  0.00    +0.000 OA
ATOM     12  C   UNL     1      -0.222  17.246  18.015  0.00  0.00    +0.000 C 
ATOM     13  C   UNL     1       1.195  17.536  18.507  0.00  0.00    +0.000 C 
ATOM     14  O   UNL     1       2.036  16.459  18.889  0.00  0.00    +0.000 OA
ATOM     15  C   UNL     1       1.370  15.356  19.348  0.00  0.00    +0.000 A 
ATOM     16  C   UNL     1       2.143  14.386  19.975  0.00  0.00    +0.000 A 
ATOM     17  C   UNL     1       1.557  13.189  20.402  0.00  0.00    +0.000 A 
ATOM     18  C   UNL     1       0.185  12.933  20.207  0.00  0.00    +0.000 A 
ATOM     19  C   UNL     1      -0.587  13.943  19.596  0.00  0.00    +0.000 A 
ATOM     20  C   UNL     1       0.007  15.132  19.155  0.00  0.00    +0.000 A 
ATOM     21  N   UNL     1      -0.757  16.064  18.451  0.00  0.00    +0.000 N 
ATOM     22  H   UNL     1      -1.713  15.871  18.189  0.00  0.00    +0.000 HD
ENDBRANCH   1  18
BRANCH  10  23
ATOM     23  C   UNL     1      -1.479  12.285  22.736  0.00  0.00    +0.000 A 
ATOM     24  C   UNL     1      -0.914  13.511  23.119  0.00  0.00    +0.000 A 
ATOM     25  C   UNL     1      -1.610  14.406  23.925  0.00  0.00    +0.000 A 
ATOM     26  C   UNL     1      -2.887  14.084  24.360  0.00  0.00    +0.000 A 
ATOM     27  C   UNL     1      -3.490  12.886  23.971  0.00  0.00    +0.000 A 
ATOM     28  C   UNL     1      -2.783  11.987  23.164  0.00  0.00    +0.000 A 
BRANCH  27  29
ATOM     29  O   UNL     1      -4.720  12.691  24.519  0.00  0.00    +0.000 OA
BRANCH  29  30
ATOM     30  C   UNL     1      -5.886  13.115  23.833  0.00  0.00    +0.000 C 
ATOM     31  F   UNL     1      -6.215  14.406  24.038  0.00  0.00    +0.000 F 
ATOM     32  F   UNL     1      -5.726  12.909  22.509  0.00  0.00    +0.000 F 
ATOM     33  F   UNL     1      -6.923  12.353  24.253  0.00  0.00    +0.000 F 
ENDBRANCH  29  30
ENDBRANCH  27  29
ENDBRANCH  10  23
BRANCH   1  34
ATOM     34  O   UNL     1      -1.625  11.351  19.775  0.00  0.00    +0.000 OA
ATOM     35  H   UNL     1      -1.790  12.169  19.279  0.00  0.00    +0.000 HD
ENDBRANCH   1  34
TORSDOF 5
ENDMDL
MODEL 2
REMARK VINA RESULT:      -8.0      2.615      6.449
REMARK  Name = 
REMARK  5 active torsions:
REMARK  status: ('A' for Active; 'I' for Inactive)
REMARK    1  A    between atoms: C_8  and  C_9
REMARK    2  A    between atoms: C_9  and  O_10
REMARK    3  A    between atoms: N_19  and  C_20
REMARK    4  A    between atoms: C_24  and  O_25
REMARK    5  A    between atoms: O_25  and  C_26
REMARK                            x       y       z     vdW  Elec       q    Type
REMARK                         _______ _______ _______ _____ _____    ______ ____
ROOT
ATOM      1  C   UNL     1      -0.308  13.997  19.118  0.00  0.00    +0.000 C 
ATOM      2  C   UNL     1       0.184  15.385  18.754  0.00  0.00    +0.000 A 
ATOM      3  C   UNL     1      -0.491  16.572  18.503  0.00  0.00    +0.000 A 
ATOM      4  C   UNL     1       0.243  17.672  18.026  0.00  0.00    +0.000 A 
ATOM      5  C   UNL     1       1.628  17.589  17.806  0.00  0.00    +0.000 A 
ATOM      6  C   UNL     1       2.308  16.408  18.077  0.00  0.00    +0.000 A 
ATOM      7  C   UNL     1       1.560  15.341  18.542  0.00  0.00    +0.000 A 
ATOM      8  C   UNL     1       2.039  14.002  18.833  0.00  0.00    +0.000 C 
ATOM      9  O   UNL     1       3.224  13.715  18.749  0.00  0.00    +0.000 OA
ATOM     10  N   UNL     1       0.935  13.218  19.163  0.00  0.00    +0.000 N 
ENDROOT
BRANCH   1  18
ATOM     11  O   UNL     1      -6.376  12.312  22.673  0.00  0.00    +0.000 OA
ATOM     12  C   UNL     1      -5.231  12.758  22.708  0.00  0.00    +0.000 C 
ATOM     13  C   UNL     1      -4.579  13.288  23.984  0.00  0.00    +0.000 C 
ATOM     14  O   UNL     1      -3.465  14.161  23.887  0.00  0.00    +0.000 OA
ATOM     15  C   UNL     1      -2.712  13.996  22.757  0.00  0.00    +0.000 A 
ATOM     16  C   UNL     1      -1.477  14.634  22.739  0.00  0.00    +0.000 A 
ATOM     17  C   UNL     1      -0.678  14.585  21.592  0.00  0.00    +0.000 A 
ATOM     18  C   UNL     1      -1.098  13.903  20.432  0.00  0.00    +0.000 A 
ATOM     19  C   UNL     1      -2.341  13.237  20.482  0.00  0.00    +0.000 A 
ATOM     20  C   UNL     1      -3.145  13.301  21.627  0.00  0.00    +0.000 A 
ATOM     21  N   UNL     1      -4.418  12.732  21.608  0.00  0.00    +0.000 N 
ATOM     22  H   UNL     1      -4.804  12.333  20.764  0.00  0.00    +0.000 HD
ENDBRANCH   1  18
BRANCH  10  23
ATOM     23  C   UNL     1       1.036  11.848  19.533  0.00  0.00    +0.000 A 
ATOM     24  C   UNL     1       1.091  10.867  18.531  0.00  0.00    +0.000 A 
ATOM     25  C   UNL     1       1.155   9.513  18.848  0.00  0.00    +0.000 A 
ATOM     26  C   UNL     1       1.166   9.123  20.179  0.00  0.00    +0.000 A 
ATOM     27  C   UNL     1       1.143  10.076  21.199  0.00  0.00    +0.000 A 
ATOM     28  C   UNL     1       1.074  11.436  20.875  0.00  0.00    +0.000 A 
BRANCH  27  29
ATOM     29  O   UNL     1       1.106   9.536  22.449  0.00  0.00    +0.000 OA
BRANCH  29  30
ATOM     30  C   UNL     1      -0.086   9.582  23.214  0.00  0.00    +0.000 C 
ATOM     31  F   UNL     1      -0.639  10.808  23.312  0.00  0.00    +0.000 F 
ATOM     32  F   UNL     1      -0.993   8.735  22.682  0.00  0.00    +0.000 F 
ATOM     33  F   UNL     1       0.200   9.157  24.466  0.00  0.00    +0.000 F 
ENDBRANCH  29  30
ENDBRANCH  27  29
ENDBRANCH  10  23
BRANCH   1  34
ATOM     34  O   UNL     1      -1.089  13.537  18.018  0.00  0.00    +0.000 OA
ATOM     35  H   UNL     1      -1.703  12.873  18.370  0.00  0.00    +0.000 HD
ENDBRANCH   1  34
TORSDOF 5
ENDMDL
MODEL 3
REMARK VINA RESULT:      -8.0      6.218      9.510
REMARK  Name = 
REMARK  5 active torsions:
REMARK  status: ('A' for Active; 'I' for Inactive)
REMARK    1  A    between atoms: C_8  and  C_9
REMARK    2  A    between atoms: C_9  and  O_10
REMARK    3  A    between atoms: N_19  and  C_20
REMARK    4  A    between atoms: C_24  and  O_25
REMARK    5  A    between atoms: O_25  and  C_26
REMARK                            x       y       z     vdW  Elec       q    Type
REMARK                         _______ _______ _______ _____ _____    ______ ____
ROOT
ATOM      1  C   UNL     1       4.610   6.606  17.573  0.00  0.00    +0.000 C 
ATOM      2  C   UNL     1       5.914   7.350  17.787  0.00  0.00    +0.000 A 
ATOM      3  C   UNL     1       6.308   8.643  17.467  0.00  0.00    +0.000 A 
ATOM      4  C   UNL     1       7.655   8.997  17.652  0.00  0.00    +0.000 A 
ATOM      5  C   UNL     1       8.593   8.079  18.152  0.00  0.00    +0.000 A 
ATOM      6  C   UNL     1       8.195   6.791  18.492  0.00  0.00    +0.000 A 
ATOM      7  C   UNL     1       6.864   6.469  18.296  0.00  0.00    +0.000 A 
ATOM      8  C   UNL     1       6.238   5.178  18.520  0.00  0.00    +0.000 C 
ATOM      9  O   UNL     1       6.862   4.239  18.993  0.00  0.00    +0.000 OA
ATOM     10  N   UNL     1       4.917   5.265  18.086  0.00  0.00    +0.000 N 
ENDROOT
BRANCH   1  18
ATOM     11  O   UNL     1      -0.186  11.983  18.189  0.00  0.00    +0.000 OA
ATOM     12  C   UNL     1       0.231  10.901  18.594  0.00  0.00    +0.000 C 
ATOM     13  C   UNL     1      -0.370  10.168  19.793  0.00  0.00    +0.000 C 
ATOM     14  O   UNL     1       0.396   9.180  20.463  0.00  0.00    +0.000 OA
ATOM     15  C   UNL     1       1.322   8.551  19.676  0.00  0.00    +0.000 A 
ATOM     16  C   UNL     1       1.908   7.408  20.207  0.00  0.00    +0.000 A 
ATOM     17  C   UNL     1       2.923   6.749  19.505  0.00  0.00    +0.000 A 
ATOM     18  C   UNL     1       3.380   7.221  18.258  0.00  0.00    +0.000 A 
ATOM     19  C   UNL     1       2.751   8.365  17.724  0.00  0.00    +0.000 A 
ATOM     20  C   UNL     1       1.747   9.031  18.437  0.00  0.00    +0.000 A 
ATOM     21  N   UNL     1       1.223  10.225  17.939  0.00  0.00    +0.000 N 
ATOM     22  H   UNL     1       1.600  10.659  17.109  0.00  0.00    +0.000 HD
ENDBRANCH   1  18
BRANCH  10  23
ATOM     23  C   UNL     1       3.993   4.187  18.180  0.00  0.00    +0.000 A 
ATOM     24  C   UNL     1       3.465   3.630  17.005  0.00  0.00    +0.000 A 
ATOM     25  C   UNL     1       2.533   2.597  17.052  0.00  0.00    +0.000 A 
ATOM     26  C   UNL     1       2.118   2.107  18.280  0.00  0.00    +0.000 A 
ATOM     27  C   UNL     1       2.648   2.618  19.466  0.00  0.00    +0.000 A 
ATOM     28  C   UNL     1       3.581   3.660  19.414  0.00  0.00    +0.000 A 
BRANCH  27  29
ATOM     29  O   UNL     1       2.103   2.071  20.588  0.00  0.00    +0.000 OA
BRANCH  29  30
ATOM     30  C   UNL     1       1.452   2.891  21.542  0.00  0.00    +0.000 C 
ATOM     31  F   UNL     1       0.681   2.220  22.422  0.00  0.00    +0.000 F 
ATOM     32  F   UNL     1       2.374   3.604  22.225  0.00  0.00    +0.000 F 
ATOM     33  F   UNL     1       0.658   3.762  20.878  0.00  0.00    +0.000 F 
ENDBRANCH  29  30
ENDBRANCH  27  29
ENDBRANCH  10  23
BRANCH   1  34
ATOM     34  O   UNL     1       4.416   6.515  16.163  0.00  0.00    +0.000 OA
ATOM     35  H   UNL     1       5.278   6.680  15.751  0.00  0.00    +0.000 HD
ENDBRANCH   1  34
TORSDOF 5
ENDMDL
MODEL 4
REMARK VINA RESULT:      -8.0      2.628      6.425
REMARK  Name = 
REMARK  5 active torsions:
REMARK  status: ('A' for Active; 'I' for Inactive)
REMARK    1  A    between atoms: C_8  and  C_9
REMARK    2  A    between atoms: C_9  and  O_10
REMARK    3  A    between atoms: N_19  and  C_20
REMARK    4  A    between atoms: C_24  and  O_25
REMARK    5  A    between atoms: O_25  and  C_26
REMARK                            x       y       z     vdW  Elec       q    Type
REMARK                         _______ _______ _______ _____ _____    ______ ____
ROOT
ATOM      1  C   UNL     1      -0.334  14.002  18.981  0.00  0.00    +0.000 C 
ATOM      2  C   UNL     1       0.161  15.398  18.655  0.00  0.00    +0.000 A 
ATOM      3  C   UNL     1      -0.511  16.565  18.313  0.00  0.00    +0.000 A 
ATOM      4  C   UNL     1       0.245  17.677  17.905  0.00  0.00    +0.000 A 
ATOM      5  C   UNL     1       1.647  17.628  17.842  0.00  0.00    +0.000 A 
ATOM      6  C   UNL     1       2.321  16.467  18.203  0.00  0.00    +0.000 A 
ATOM      7  C   UNL     1       1.552  15.387  18.597  0.00  0.00    +0.000 A 
ATOM      8  C   UNL     1       2.028  14.064  18.958  0.00  0.00    +0.000 C 
ATOM      9  O   UNL     1       3.223  13.807  19.011  0.00  0.00    +0.000 OA
ATOM     10  N   UNL     1       0.915  13.256  19.175  0.00  0.00    +0.000 N 
ENDROOT
BRANCH   1  18
ATOM     11  O   UNL     1      -1.698  15.365  25.952  0.00  0.00    +0.000 OA
ATOM     12  C   UNL     1      -2.060  14.854  24.894  0.00  0.00    +0.000 C 
ATOM     13  C   UNL     1      -3.358  14.062  24.749  0.00  0.00    +0.000 C 
ATOM     14  O   UNL     1      -3.508  13.158  23.667  0.00  0.00    +0.000 OA
ATOM     15  C   UNL     1      -2.781  13.482  22.554  0.00  0.00    +0.000 A 
ATOM     16  C   UNL     1      -3.091  12.786  21.391  0.00  0.00    +0.000 A 
ATOM     17  C   UNL     1      -2.343  12.996  20.227  0.00  0.00    +0.000 A 
ATOM     18  C   UNL     1      -1.264  13.902  20.200  0.00  0.00    +0.000 A 
ATOM     19  C   UNL     1      -0.986  14.620  21.382  0.00  0.00    +0.000 A 
ATOM     20  C   UNL     1      -1.726  14.395  22.550  0.00  0.00    +0.000 A 
ATOM     21  N   UNL     1      -1.357  15.032  23.735  0.00  0.00    +0.000 N 
ATOM     22  H   UNL     1      -0.523  15.600  23.789  0.00  0.00    +0.000 HD
ENDBRANCH   1  18
BRANCH  10  23
ATOM     23  C   UNL     1       1.007  11.893  19.573  0.00  0.00    +0.000 A 
ATOM     24  C   UNL     1       1.025  10.889  18.593  0.00  0.00    +0.000 A 
ATOM     25  C   UNL     1       1.080   9.542  18.939  0.00  0.00    +0.000 A 
ATOM     26  C   UNL     1       1.117   9.182  20.278  0.00  0.00    +0.000 A 
ATOM     27  C   UNL     1       1.132  10.157  21.276  0.00  0.00    +0.000 A 
ATOM     28  C   UNL     1       1.071  11.510  20.923  0.00  0.00    +0.000 A 
BRANCH  27  29
ATOM     29  O   UNL     1       1.117   9.646  22.538  0.00  0.00    +0.000 OA
BRANCH  29  30
ATOM     30  C   UNL     1      -0.104   9.516  23.245  0.00  0.00    +0.000 C 
ATOM     31  F   UNL     1      -0.978   8.649  22.693  0.00  0.00    +0.000 F 
ATOM     32  F   UNL     1       0.150   9.131  24.514  0.00  0.00    +0.000 F 
ATOM     33  F   UNL     1      -0.699  10.730  23.286  0.00  0.00    +0.000 F 
ENDBRANCH  29  30
ENDBRANCH  27  29
ENDBRANCH  10  23
BRANCH   1  34
ATOM     34  O   UNL     1      -0.976  13.509  17.808  0.00  0.00    +0.000 OA
ATOM     35  H   UNL     1      -1.743  12.994  18.104  0.00  0.00    +0.000 HD
ENDBRANCH   1  34
TORSDOF 5
ENDMDL
MODEL 5
REMARK VINA RESULT:      -7.9      7.391     10.812
REMARK  Name = 
REMARK  5 active torsions:
REMARK  status: ('A' for Active; 'I' for Inactive)
REMARK    1  A    between atoms: C_8  and  C_9
REMARK    2  A    between atoms: C_9  and  O_10
REMARK    3  A    between atoms: N_19  and  C_20
REMARK    4  A    between atoms: C_24  and  O_25
REMARK    5  A    between atoms: O_25  and  C_26
REMARK                            x       y       z     vdW  Elec       q    Type
REMARK                         _______ _______ _______ _____ _____    ______ ____
ROOT
ATOM      1  C   UNL     1       3.200   5.029  19.572  0.00  0.00    +0.000 C 
ATOM      2  C   UNL     1       2.046   4.046  19.521  0.00  0.00    +0.000 A 
ATOM      3  C   UNL     1       0.845   3.989  20.215  0.00  0.00    +0.000 A 
ATOM      4  C   UNL     1       0.036   2.849  20.062  0.00  0.00    +0.000 A 
ATOM      5  C   UNL     1       0.418   1.786  19.228  0.00  0.00    +0.000 A 
ATOM      6  C   UNL     1       1.610   1.851  18.516  0.00  0.00    +0.000 A 
ATOM      7  C   UNL     1       2.387   2.983  18.689  0.00  0.00    +0.000 A 
ATOM      8  C   UNL     1       3.689   3.244  18.101  0.00  0.00    +0.000 C 
ATOM      9  O   UNL     1       4.199   2.467  17.307  0.00  0.00    +0.000 OA
ATOM     10  N   UNL     1       4.162   4.443  18.630  0.00  0.00    +0.000 N 
ENDROOT
BRANCH   1  18
ATOM     11  O   UNL     1      -0.231  11.209  21.099  0.00  0.00    +0.000 OA
ATOM     12  C   UNL     1       0.481  10.569  20.328  0.00  0.00    +0.000 C 
ATOM     13  C   UNL     1       0.974  11.122  18.992  0.00  0.00    +0.000 C 
ATOM     14  O   UNL     1       1.408  10.224  17.982  0.00  0.00    +0.000 OA
ATOM     15  C   UNL     1       1.903   9.039  18.453  0.00  0.00    +0.000 A 
ATOM     16  C   UNL     1       2.576   8.244  17.533  0.00  0.00    +0.000 A 
ATOM     17  C   UNL     1       3.045   6.980  17.908  0.00  0.00    +0.000 A 
ATOM     18  C   UNL     1       2.846   6.479  19.210  0.00  0.00    +0.000 A 
ATOM     19  C   UNL     1       2.188   7.315  20.137  0.00  0.00    +0.000 A 
ATOM     20  C   UNL     1       1.706   8.572  19.753  0.00  0.00    +0.000 A 
ATOM     21  N   UNL     1       0.958   9.330  20.655  0.00  0.00    +0.000 N 
ATOM     22  H   UNL     1       0.695   8.962  21.558  0.00  0.00    +0.000 HD
ENDBRANCH   1  18
BRANCH  10  23
ATOM     23  C   UNL     1       5.406   5.023  18.256  0.00  0.00    +0.000 A 
ATOM     24  C   UNL     1       6.235   5.572  19.246  0.00  0.00    +0.000 A 
ATOM     25  C   UNL     1       7.444   6.179  18.921  0.00  0.00    +0.000 A 
ATOM     26  C   UNL     1       7.840   6.244  17.593  0.00  0.00    +0.000 A 
ATOM     27  C   UNL     1       7.053   5.680  16.588  0.00  0.00    +0.000 A 
ATOM     28  C   UNL     1       5.836   5.075  16.920  0.00  0.00    +0.000 A 
BRANCH  27  29
ATOM     29  O   UNL     1       7.550   5.870  15.335  0.00  0.00    +0.000 OA
BRANCH  29  30
ATOM     30  C   UNL     1       7.075   5.091  14.250  0.00  0.00    +0.000 C 
ATOM     31  F   UNL     1       7.100   3.760  14.466  0.00  0.00    +0.000 F 
ATOM     32  F   UNL     1       5.812   5.462  13.951  0.00  0.00    +0.000 F 
ATOM     33  F   UNL     1       7.853   5.349  13.173  0.00  0.00    +0.000 F 
ENDBRANCH  29  30
ENDBRANCH  27  29
ENDBRANCH  10  23
BRANCH   1  34
ATOM     34  O   UNL     1       3.749   4.949  20.885  0.00  0.00    +0.000 OA
ATOM     35  H   UNL     1       4.091   4.048  20.991  0.00  0.00    +0.000 HD
ENDBRANCH   1  34
TORSDOF 5
ENDMDL
MODEL 6
REMARK VINA RESULT:      -7.8      4.030      7.440
REMARK  Name = 
REMARK  5 active torsions:
REMARK  status: ('A' for Active; 'I' for Inactive)
REMARK    1  A    between atoms: C_8  and  C_9
REMARK    2  A    between atoms: C_9  and  O_10
REMARK    3  A    between atoms: N_19  and  C_20
REMARK    4  A    between atoms: C_24  and  O_25
REMARK    5  A    between atoms: O_25  and  C_26
REMARK                            x       y       z     vdW  Elec       q    Type
REMARK                         _______ _______ _______ _____ _____    ______ ____
ROOT
ATOM      1  C   UNL     1       0.511  11.952  20.132  0.00  0.00    +0.000 C 
ATOM      2  C   UNL     1       1.590  13.010  20.265  0.00  0.00    +0.000 A 
ATOM      3  C   UNL     1       2.765  13.049  21.004  0.00  0.00    +0.000 A 
ATOM      4  C   UNL     1       3.491  14.251  21.046  0.00  0.00    +0.000 A 
ATOM      5  C   UNL     1       3.053  15.396  20.360  0.00  0.00    +0.000 A 
ATOM      6  C   UNL     1       1.887  15.353  19.604  0.00  0.00    +0.000 A 
ATOM      7  C   UNL     1       1.192  14.157  19.583  0.00  0.00    +0.000 A 
ATOM      8  C   UNL     1      -0.071  13.895  18.917  0.00  0.00    +0.000 C 
ATOM      9  O   UNL     1      -0.616  14.742  18.224  0.00  0.00    +0.000 OA
ATOM     10  N   UNL     1      -0.467  12.601  19.250  0.00  0.00    +0.000 N 
ENDROOT
BRANCH   1  18
ATOM     11  O   UNL     1       2.185   4.995  21.178  0.00  0.00    +0.000 OA
ATOM     12  C   UNL     1       2.100   5.947  20.405  0.00  0.00    +0.000 C 
ATOM     13  C   UNL     1       2.504   5.869  18.934  0.00  0.00    +0.000 C 
ATOM     14  O   UNL     1       2.790   7.064  18.224  0.00  0.00    +0.000 OA
ATOM     15  C   UNL     1       2.136   8.170  18.691  0.00  0.00    +0.000 A 
ATOM     16  C   UNL     1       2.175   9.298  17.880  0.00  0.00    +0.000 A 
ATOM     17  C   UNL     1       1.601  10.497  18.317  0.00  0.00    +0.000 A 
ATOM     18  C   UNL     1       0.981  10.598  19.578  0.00  0.00    +0.000 A 
ATOM     19  C   UNL     1       0.926   9.434  20.373  0.00  0.00    +0.000 A 
ATOM     20  C   UNL     1       1.515   8.241  19.939  0.00  0.00    +0.000 A 
ATOM     21  N   UNL     1       1.548   7.137  20.793  0.00  0.00    +0.000 N 
ATOM     22  H   UNL     1       1.218   7.199  21.745  0.00  0.00    +0.000 HD
ENDBRANCH   1  18
BRANCH  10  23
ATOM     23  C   UNL     1      -1.654  11.997  18.751  0.00  0.00    +0.000 A 
ATOM     24  C   UNL     1      -2.874  12.233  19.405  0.00  0.00    +0.000 A 
ATOM     25  C   UNL     1      -4.053  11.635  18.971  0.00  0.00    +0.000 A 
ATOM     26  C   UNL     1      -4.026  10.790  17.871  0.00  0.00    +0.000 A 
ATOM     27  C   UNL     1      -2.835  10.560  17.180  0.00  0.00    +0.000 A 
ATOM     28  C   UNL     1      -1.651  11.159  17.624  0.00  0.00    +0.000 A 
BRANCH  27  29
ATOM     29  O   UNL     1      -2.961   9.669  16.158  0.00  0.00    +0.000 OA
BRANCH  29  30
ATOM     30  C   UNL     1      -3.251  10.121  14.846  0.00  0.00    +0.000 C 
ATOM     31  F   UNL     1      -2.339   9.763  13.919  0.00  0.00    +0.000 F 
ATOM     32  F   UNL     1      -4.462   9.657  14.469  0.00  0.00    +0.000 F 
ATOM     33  F   UNL     1      -3.308  11.472  14.868  0.00  0.00    +0.000 F 
ENDBRANCH  29  30
ENDBRANCH  27  29
ENDBRANCH  10  23
BRANCH   1  34
ATOM     34  O   UNL     1      -0.076  11.800  21.422  0.00  0.00    +0.000 OA
ATOM     35  H   UNL     1      -0.929  12.262  21.397  0.00  0.00    +0.000 HD
ENDBRANCH   1  34
TORSDOF 5
ENDMDL
MODEL 7
REMARK VINA RESULT:      -7.7      1.198      2.017
REMARK  Name = 
REMARK  5 active torsions:
REMARK  status: ('A' for Active; 'I' for Inactive)
REMARK    1  A    between atoms: C_8  and  C_9
REMARK    2  A    between atoms: C_9  and  O_10
REMARK    3  A    between atoms: N_19  and  C_20
REMARK    4  A    between atoms: C_24  and  O_25
REMARK    5  A    between atoms: O_25  and  C_26
REMARK                            x       y       z     vdW  Elec       q    Type
REMARK                         _______ _______ _______ _____ _____    ______ ____
ROOT
ATOM      1  C   UNL     1      -0.298  11.274  20.200  0.00  0.00    +0.000 C 
ATOM      2  C   UNL     1       0.600  10.081  19.934  0.00  0.00    +0.000 A 
ATOM      3  C   UNL     1       1.084   9.530  18.755  0.00  0.00    +0.000 A 
ATOM      4  C   UNL     1       1.776   8.308  18.822  0.00  0.00    +0.000 A 
ATOM      5  C   UNL     1       1.985   7.650  20.045  0.00  0.00    +0.000 A 
ATOM      6  C   UNL     1       1.519   8.212  21.228  0.00  0.00    +0.000 A 
ATOM      7  C   UNL     1       0.838   9.413  21.131  0.00  0.00    +0.000 A 
ATOM      8  C   UNL     1       0.214  10.150  22.215  0.00  0.00    +0.000 C 
ATOM      9  O   UNL     1       0.305   9.778  23.377  0.00  0.00    +0.000 OA
ATOM     10  N   UNL     1      -0.457  11.237  21.659  0.00  0.00    +0.000 N 
ENDROOT
BRANCH   1  18
ATOM     11  O   UNL     1       4.970  16.226  20.023  0.00  0.00    +0.000 OA
ATOM     12  C   UNL     1       3.838  15.889  19.684  0.00  0.00    +0.000 C 
ATOM     13  C   UNL     1       2.912  16.780  18.857  0.00  0.00    +0.000 C 
ATOM     14  O   UNL     1       1.514  16.535  18.868  0.00  0.00    +0.000 OA
ATOM     15  C   UNL     1       1.170  15.233  19.107  0.00  0.00    +0.000 A 
ATOM     16  C   UNL     1      -0.157  14.893  18.869  0.00  0.00    +0.000 A 
ATOM     17  C   UNL     1      -0.615  13.604  19.165  0.00  0.00    +0.000 A 
ATOM     18  C   UNL     1       0.242  12.627  19.711  0.00  0.00    +0.000 A 
ATOM     19  C   UNL     1       1.591  12.984  19.917  0.00  0.00    +0.000 A 
ATOM     20  C   UNL     1       2.041  14.280  19.635  0.00  0.00    +0.000 A 
ATOM     21  N   UNL     1       3.351  14.640  19.955  0.00  0.00    +0.000 N 
ATOM     22  H   UNL     1       3.963  14.009  20.451  0.00  0.00    +0.000 HD
ENDBRANCH   1  18
BRANCH  10  23
ATOM     23  C   UNL     1      -1.164  12.196  22.436  0.00  0.00    +0.000 A 
ATOM     24  C   UNL     1      -0.583  13.450  22.677  0.00  0.00    +0.000 A 
ATOM     25  C   UNL     1      -1.225  14.405  23.459  0.00  0.00    +0.000 A 
ATOM     26  C   UNL     1      -2.464  14.116  24.012  0.00  0.00    +0.000 A 
ATOM     27  C   UNL     1      -3.083  12.890  23.765  0.00  0.00    +0.000 A 
ATOM     28  C   UNL     1      -2.431  11.930  22.982  0.00  0.00    +0.000 A 
BRANCH  27  29
ATOM     29  O   UNL     1      -4.268  12.736  24.417  0.00  0.00    +0.000 OA
BRANCH  29  30
ATOM     30  C   UNL     1      -5.489  13.044  23.767  0.00  0.00    +0.000 C 
ATOM     31  F   UNL     1      -5.472  12.860  22.431  0.00  0.00    +0.000 F 
ATOM     32  F   UNL     1      -6.481  12.297  24.298  0.00  0.00    +0.000 F 
ATOM     33  F   UNL     1      -5.774  14.346  24.000  0.00  0.00    +0.000 F 
ENDBRANCH  29  30
ENDBRANCH  27  29
ENDBRANCH  10  23
BRANCH   1  34
ATOM     34  O   UNL     1      -1.558  10.981  19.602  0.00  0.00    +0.000 OA
ATOM     35  H   UNL     1      -2.210  11.562  20.024  0.00  0.00    +0.000 HD
ENDBRANCH   1  34
TORSDOF 5
ENDMDL
MODEL 8
REMARK VINA RESULT:      -7.7      7.918     11.467
REMARK  Name = 
REMARK  5 active torsions:
REMARK  status: ('A' for Active; 'I' for Inactive)
REMARK    1  A    between atoms: C_8  and  C_9
REMARK    2  A    between atoms: C_9  and  O_10
REMARK    3  A    between atoms: N_19  and  C_20
REMARK    4  A    between atoms: C_24  and  O_25
REMARK    5  A    between atoms: O_25  and  C_26
REMARK                            x       y       z     vdW  Elec       q    Type
REMARK                         _______ _______ _______ _____ _____    ______ ____
ROOT
ATOM      1  C   UNL     1       4.047   4.779  19.297  0.00  0.00    +0.000 C 
ATOM      2  C   UNL     1       3.013   3.988  20.076  0.00  0.00    +0.000 A 
ATOM      3  C   UNL     1       2.376   4.232  21.285  0.00  0.00    +0.000 A 
ATOM      4  C   UNL     1       1.573   3.219  21.836  0.00  0.00    +0.000 A 
ATOM      5  C   UNL     1       1.404   1.984  21.188  0.00  0.00    +0.000 A 
ATOM      6  C   UNL     1       2.025   1.746  19.968  0.00  0.00    +0.000 A 
ATOM      7  C   UNL     1       2.812   2.759  19.451  0.00  0.00    +0.000 A 
ATOM      8  C   UNL     1       3.599   2.716  18.232  0.00  0.00    +0.000 C 
ATOM      9  O   UNL     1       3.571   1.747  17.487  0.00  0.00    +0.000 OA
ATOM     10  N   UNL     1       4.326   3.902  18.153  0.00  0.00    +0.000 N 
ENDROOT
BRANCH   1  18
ATOM     11  O   UNL     1      -0.292  10.514  20.061  0.00  0.00    +0.000 OA
ATOM     12  C   UNL     1       0.622   9.967  19.449  0.00  0.00    +0.000 C 
ATOM     13  C   UNL     1       1.297  10.585  18.226  0.00  0.00    +0.000 C 
ATOM     14  O   UNL     1       2.015   9.752  17.329  0.00  0.00    +0.000 OA
ATOM     15  C   UNL     1       2.543   8.627  17.901  0.00  0.00    +0.000 A 
ATOM     16  C   UNL     1       3.466   7.922  17.136  0.00  0.00    +0.000 A 
ATOM     17  C   UNL     1       3.994   6.716  17.610  0.00  0.00    +0.000 A 
ATOM     18  C   UNL     1       3.607   6.183  18.856  0.00  0.00    +0.000 A 
ATOM     19  C   UNL     1       2.692   6.929  19.629  0.00  0.00    +0.000 A 
ATOM     20  C   UNL     1       2.154   8.128  19.144  0.00  0.00    +0.000 A 
ATOM     21  N   UNL     1       1.165   8.786  19.877  0.00  0.00    +0.000 N 
ATOM     22  H   UNL     1       0.777   8.382  20.717  0.00  0.00    +0.000 HD
ENDBRANCH   1  18
BRANCH  10  23
ATOM     23  C   UNL     1       5.191   4.215  17.067  0.00  0.00    +0.000 A 
ATOM     24  C   UNL     1       6.520   4.581  17.330  0.00  0.00    +0.000 A 
ATOM     25  C   UNL     1       7.390   4.927  16.300  0.00  0.00    +0.000 A 
ATOM     26  C   UNL     1       6.939   4.911  14.989  0.00  0.00    +0.000 A 
ATOM     27  C   UNL     1       5.632   4.521  14.692  0.00  0.00    +0.000 A 
ATOM     28  C   UNL     1       4.759   4.179  15.731  0.00  0.00    +0.000 A 
BRANCH  27  29
ATOM     29  O   UNL     1       5.324   4.607  13.369  0.00  0.00    +0.000 OA
BRANCH  29  30
ATOM     30  C   UNL     1       5.789   3.623  12.460  0.00  0.00    +0.000 C 
ATOM     31  F   UNL     1       6.162   2.463  13.037  0.00  0.00    +0.000 F 
ATOM     32  F   UNL     1       4.828   3.368  11.546  0.00  0.00    +0.000 F 
ATOM     33  F   UNL     1       6.863   4.125  11.809  0.00  0.00    +0.000 F 
ENDBRANCH  29  30
ENDBRANCH  27  29
ENDBRANCH  10  23
BRANCH   1  34
ATOM     34  O   UNL     1       5.215   4.842  20.111  0.00  0.00    +0.000 OA
ATOM     35  H   UNL     1       4.990   4.419  20.955  0.00  0.00    +0.000 HD
ENDBRANCH   1  34
TORSDOF 5
ENDMDL
MODEL 9
REMARK VINA RESULT:      -7.7      4.168      7.157
REMARK  Name = 
REMARK  5 active torsions:
REMARK  status: ('A' for Active; 'I' for Inactive)
REMARK    1  A    between atoms: C_8  and  C_9
REMARK    2  A    between atoms: C_9  and  O_10
REMARK    3  A    between atoms: N_19  and  C_20
REMARK    4  A    between atoms: C_24  and  O_25
REMARK    5  A    between atoms: O_25  and  C_26
REMARK                            x       y       z     vdW  Elec       q    Type
REMARK                         _______ _______ _______ _____ _____    ______ ____
ROOT
ATOM      1  C   UNL     1      -0.286  13.165  19.308  0.00  0.00    +0.000 C 
ATOM      2  C   UNL     1       0.179  14.609  19.309  0.00  0.00    +0.000 A 
ATOM      3  C   UNL     1      -0.300  15.739  18.658  0.00  0.00    +0.000 A 
ATOM      4  C   UNL     1       0.452  16.924  18.733  0.00  0.00    +0.000 A 
ATOM      5  C   UNL     1       1.659  16.982  19.449  0.00  0.00    +0.000 A 
ATOM      6  C   UNL     1       2.129  15.858  20.118  0.00  0.00    +0.000 A 
ATOM      7  C   UNL     1       1.370  14.705  20.024  0.00  0.00    +0.000 A 
ATOM      8  C   UNL     1       1.689  13.404  20.584  0.00  0.00    +0.000 C 
ATOM      9  O   UNL     1       2.679  13.234  21.282  0.00  0.00    +0.000 OA
ATOM     10  N   UNL     1       0.716  12.505  20.153  0.00  0.00    +0.000 N 
ENDROOT
BRANCH   1  18
ATOM     11  O   UNL     1      -7.013  10.744  18.217  0.00  0.00    +0.000 OA
ATOM     12  C   UNL     1      -6.206  11.294  18.963  0.00  0.00    +0.000 C 
ATOM     13  C   UNL     1      -6.574  11.824  20.348  0.00  0.00    +0.000 C 
ATOM     14  O   UNL     1      -5.751  12.803  20.962  0.00  0.00    +0.000 OA
ATOM     15  C   UNL     1      -4.439  12.763  20.576  0.00  0.00    +0.000 A 
ATOM     16  C   UNL     1      -3.550  13.517  21.334  0.00  0.00    +0.000 A 
ATOM     17  C   UNL     1      -2.204  13.598  20.961  0.00  0.00    +0.000 A 
ATOM     18  C   UNL     1      -1.717  12.934  19.818  0.00  0.00    +0.000 A 
ATOM     19  C   UNL     1      -2.629  12.151  19.080  0.00  0.00    +0.000 A 
ATOM     20  C   UNL     1      -3.979  12.085  19.447  0.00  0.00    +0.000 A 
ATOM     21  N   UNL     1      -4.882  11.398  18.635  0.00  0.00    +0.000 N 
ATOM     22  H   UNL     1      -4.599  11.004  17.749  0.00  0.00    +0.000 HD
ENDBRANCH   1  18
BRANCH  10  23
ATOM     23  C   UNL     1       0.698  11.134  20.533  0.00  0.00    +0.000 A 
ATOM     24  C   UNL     1       0.014  10.752  21.697  0.00  0.00    +0.000 A 
ATOM     25  C   UNL     1      -0.000   9.427  22.124  0.00  0.00    +0.000 A 
ATOM     26  C   UNL     1       0.673   8.464  21.387  0.00  0.00    +0.000 A 
ATOM     27  C   UNL     1       1.337   8.807  20.208  0.00  0.00    +0.000 A 
ATOM     28  C   UNL     1       1.353  10.142  19.786  0.00  0.00    +0.000 A 
BRANCH  27  29
ATOM     29  O   UNL     1       1.992   7.764  19.628  0.00  0.00    +0.000 OA
BRANCH  29  30
ATOM     30  C   UNL     1       2.194   7.737  18.225  0.00  0.00    +0.000 C 
ATOM     31  F   UNL     1       1.232   8.354  17.510  0.00  0.00    +0.000 F 
ATOM     32  F   UNL     1       3.386   8.301  17.933  0.00  0.00    +0.000 F 
ATOM     33  F   UNL     1       2.236   6.443  17.830  0.00  0.00    +0.000 F 
ENDBRANCH  29  30
ENDBRANCH  27  29
ENDBRANCH  10  23
BRANCH   1  34
ATOM     34  O   UNL     1      -0.136  12.687  17.973  0.00  0.00    +0.000 OA
ATOM     35  H   UNL     1       0.521  11.974  18.004  0.00  0.00    +0.000 HD
ENDBRANCH   1  34
TORSDOF 5
ENDMDL
