MODEL 1
REMARK VINA RESULT:      -9.1      0.000      0.000
REMARK  Name = 
REMARK  4 active torsions:
REMARK  status: ('A' for Active; 'I' for Inactive)
REMARK    1  A    between atoms: C_4  and  N_5
REMARK    2  A    between atoms: C_4  and  C_12
REMARK    3  A    between atoms: N_5  and  C_6
REMARK    4  A    between atoms: N_23  and  C_24
REMARK                            x       y       z     vdW  Elec       q    Type
REMARK                         _______ _______ _______ _____ _____    ______ ____
ROOT
ATOM      1  O   UNL     1       1.351   8.302  21.354  0.00  0.00    +0.000 OA
ATOM      2  C   UNL     1       1.451   8.445  20.150  0.00  0.00    +0.000 C 
ATOM      3  C   UNL     1       2.338   7.693  19.197  0.00  0.00    +0.000 C 
ATOM      4  C   UNL     1       2.896   6.466  19.418  0.00  0.00    +0.000 C 
ATOM      5  N   UNL     1       2.394   8.435  18.017  0.00  0.00    +0.000 NA
ATOM      6  C   UNL     1       1.496   9.361  18.168  0.00  0.00    +0.000 C 
ATOM      7  N   UNL     1       0.875   9.421  19.362  0.00  0.00    +0.000 N 
ENDROOT
BRANCH   4   8
ATOM      8  C   UNL     1       3.986   6.026  18.571  0.00  0.00    +0.000 A 
ATOM      9  C   UNL     1       5.228   5.467  18.863  0.00  0.00    +0.000 A 
ATOM     10  C   UNL     1       5.905   5.192  17.648  0.00  0.00    +0.000 A 
ATOM     11  C   UNL     1       7.148   4.646  17.296  0.00  0.00    +0.000 A 
ATOM     12  C   UNL     1       7.462   4.573  15.940  0.00  0.00    +0.000 A 
ATOM     13  C   UNL     1       6.527   5.020  15.014  0.00  0.00    +0.000 A 
ATOM     14  N   UNL     1       5.307   5.552  15.301  0.00  0.00    +0.000 NA
ATOM     15  C   UNL     1       5.068   5.614  16.623  0.00  0.00    +0.000 A 
ATOM     16  N   UNL     1       3.922   6.115  17.193  0.00  0.00    +0.000 N 
ATOM     17  H   UNL     1       3.156   6.511  16.679  0.00  0.00    +0.000 HD
ENDBRANCH   4   8
BRANCH   7  18
ATOM     18  C   UNL     1      -0.314  10.186  19.785  0.00  0.00    +0.000 C 
ATOM     19  C   UNL     1       0.007  11.521  20.476  0.00  0.00    +0.000 C 
ATOM     20  C   UNL     1       0.392  12.595  19.469  0.00  0.00    +0.000 C 
ATOM     21  C   UNL     1      -0.782  12.901  18.540  0.00  0.00    +0.000 C 
ATOM     22  C   UNL     1      -1.329  11.655  17.861  0.00  0.00    +0.000 C 
ATOM     23  C   UNL     1      -1.437  10.407  18.752  0.00  0.00    +0.000 C 
ENDBRANCH   7  18
BRANCH   4  24
ATOM     24  N   UNL     1       2.509   5.547  20.433  0.00  0.00    +0.000 N 
ATOM     25  H   UNL     1       3.322   5.009  20.728  0.00  0.00    +0.000 HD
BRANCH  24  26
ATOM     26  C   UNL     1       1.352   4.618  20.271  0.00  0.00    +0.000 C 
ATOM     27  C   UNL     1       1.217   4.063  18.838  0.00  0.00    +0.000 C 
ATOM     28  C   UNL     1       2.270   3.018  18.500  0.00  0.00    +0.000 C 
ATOM     29  C   UNL     1       2.131   1.813  19.414  0.00  0.00    +0.000 C 
ATOM     30  C   UNL     1       2.278   2.225  20.871  0.00  0.00    +0.000 C 
ATOM     31  C   UNL     1       1.411   3.434  21.274  0.00  0.00    +0.000 C 
ENDBRANCH  24  26
ENDBRANCH   4  24
TORSDOF 4
ENDMDL
MODEL 2
REMARK VINA RESULT:      -8.8      0.873      1.141
REMARK  Name = 
REMARK  4 active torsions:
REMARK  status: ('A' for Active; 'I' for Inactive)
REMARK    1  A    between atoms: C_4  and  N_5
REMARK    2  A    between atoms: C_4  and  C_12
REMARK    3  A    between atoms: N_5  and  C_6
REMARK    4  A    between atoms: N_23  and  C_24
REMARK                            x       y       z     vdW  Elec       q    Type
REMARK                         _______ _______ _______ _____ _____    ______ ____
ROOT
ATOM      1  O   UNL     1       1.315   8.427  21.476  0.00  0.00    +0.000 OA
ATOM      2  C   UNL     1       1.372   8.562  20.268  0.00  0.00    +0.000 C 
ATOM      3  C   UNL     1       2.218   7.797  19.288  0.00  0.00    +0.000 C 
ATOM      4  C   UNL     1       2.774   6.567  19.497  0.00  0.00    +0.000 C 
ATOM      5  N   UNL     1       2.235   8.531  18.101  0.00  0.00    +0.000 NA
ATOM      6  C   UNL     1       1.351   9.464  18.280  0.00  0.00    +0.000 C 
ATOM      7  N   UNL     1       0.775   9.537  19.495  0.00  0.00    +0.000 N 
ENDROOT
BRANCH   4   8
ATOM      8  C   UNL     1       3.829   6.113  18.613  0.00  0.00    +0.000 A 
ATOM      9  C   UNL     1       3.960   6.136  17.227  0.00  0.00    +0.000 A 
ATOM     10  C   UNL     1       5.218   5.584  16.875  0.00  0.00    +0.000 A 
ATOM     11  C   UNL     1       5.904   5.342  15.676  0.00  0.00    +0.000 A 
ATOM     12  C   UNL     1       7.153   4.730  15.759  0.00  0.00    +0.000 A 
ATOM     13  C   UNL     1       7.660   4.414  17.014  0.00  0.00    +0.000 A 
ATOM     14  N   UNL     1       7.038   4.631  18.205  0.00  0.00    +0.000 NA
ATOM     15  C   UNL     1       5.830   5.206  18.062  0.00  0.00    +0.000 A 
ATOM     16  N   UNL     1       4.984   5.526  19.096  0.00  0.00    +0.000 N 
ATOM     17  H   UNL     1       5.171   5.339  20.064  0.00  0.00    +0.000 HD
ENDBRANCH   4   8
BRANCH   7  18
ATOM     18  C   UNL     1      -0.393  10.313  19.956  0.00  0.00    +0.000 C 
ATOM     19  C   UNL     1      -0.035  11.582  20.748  0.00  0.00    +0.000 C 
ATOM     20  C   UNL     1       0.407  12.711  19.827  0.00  0.00    +0.000 C 
ATOM     21  C   UNL     1      -0.740  13.128  18.907  0.00  0.00    +0.000 C 
ATOM     22  C   UNL     1      -1.321  11.956  18.131  0.00  0.00    +0.000 C 
ATOM     23  C   UNL     1      -1.489  10.652  18.927  0.00  0.00    +0.000 C 
ENDBRANCH   7  18
BRANCH   4  24
ATOM     24  N   UNL     1       2.418   5.657  20.532  0.00  0.00    +0.000 N 
ATOM     25  H   UNL     1       3.252   5.169  20.853  0.00  0.00    +0.000 HD
BRANCH  24  26
ATOM     26  C   UNL     1       1.312   4.667  20.380  0.00  0.00    +0.000 C 
ATOM     27  C   UNL     1       1.192   4.108  18.948  0.00  0.00    +0.000 C 
ATOM     28  C   UNL     1       2.297   3.122  18.598  0.00  0.00    +0.000 C 
ATOM     29  C   UNL     1       2.232   1.909  19.511  0.00  0.00    +0.000 C 
ATOM     30  C   UNL     1       2.371   2.328  20.968  0.00  0.00    +0.000 C 
ATOM     31  C   UNL     1       1.444   3.487  21.381  0.00  0.00    +0.000 C 
ENDBRANCH  24  26
ENDBRANCH   4  24
TORSDOF 4
ENDMDL
MODEL 3
REMARK VINA RESULT:      -8.4      1.003      1.410
REMARK  Name = 
REMARK  4 active torsions:
REMARK  status: ('A' for Active; 'I' for Inactive)
REMARK    1  A    between atoms: C_4  and  N_5
REMARK    2  A    between atoms: C_4  and  C_12
REMARK    3  A    between atoms: N_5  and  C_6
REMARK    4  A    between atoms: N_23  and  C_24
REMARK                            x       y       z     vdW  Elec       q    Type
REMARK                         _______ _______ _______ _____ _____    ______ ____
ROOT
ATOM      1  O   UNL     1       1.824   8.105  20.919  0.00  0.00    +0.000 OA
ATOM      2  C   UNL     1       1.780   8.317  19.722  0.00  0.00    +0.000 C 
ATOM      3  C   UNL     1       2.493   7.580  18.622  0.00  0.00    +0.000 C 
ATOM      4  C   UNL     1       3.000   6.315  18.702  0.00  0.00    +0.000 C 
ATOM      5  N   UNL     1       2.444   8.390  17.487  0.00  0.00    +0.000 NA
ATOM      6  C   UNL     1       1.630   9.351  17.804  0.00  0.00    +0.000 C 
ATOM      7  N   UNL     1       1.169   9.369  19.070  0.00  0.00    +0.000 N 
ENDROOT
BRANCH   4   8
ATOM      8  C   UNL     1       3.947   5.871  17.698  0.00  0.00    +0.000 A 
ATOM      9  C   UNL     1       3.861   4.908  16.696  0.00  0.00    +0.000 A 
ATOM     10  C   UNL     1       5.076   4.895  15.965  0.00  0.00    +0.000 A 
ATOM     11  C   UNL     1       5.582   4.171  14.876  0.00  0.00    +0.000 A 
ATOM     12  C   UNL     1       6.884   4.447  14.465  0.00  0.00    +0.000 A 
ATOM     13  C   UNL     1       7.601   5.432  15.134  0.00  0.00    +0.000 A 
ATOM     14  N   UNL     1       7.156   6.166  16.192  0.00  0.00    +0.000 NA
ATOM     15  C   UNL     1       5.902   5.843  16.554  0.00  0.00    +0.000 A 
ATOM     16  N   UNL     1       5.212   6.418  17.595  0.00  0.00    +0.000 N 
ATOM     17  H   UNL     1       5.585   7.121  18.207  0.00  0.00    +0.000 HD
ENDBRANCH   4   8
BRANCH   7  18
ATOM     18  C   UNL     1       0.090  10.167  19.684  0.00  0.00    +0.000 C 
ATOM     19  C   UNL     1       0.535  11.552  20.182  0.00  0.00    +0.000 C 
ATOM     20  C   UNL     1       0.673  12.542  19.034  0.00  0.00    +0.000 C 
ATOM     21  C   UNL     1      -0.682  12.777  18.367  0.00  0.00    +0.000 C 
ATOM     22  C   UNL     1      -1.345  11.482  17.924  0.00  0.00    +0.000 C 
ATOM     23  C   UNL     1      -1.236  10.309  18.911  0.00  0.00    +0.000 C 
ENDBRANCH   7  18
BRANCH   4  24
ATOM     24  N   UNL     1       2.690   5.356  19.706  0.00  0.00    +0.000 N 
ATOM     25  H   UNL     1       3.505   5.213  20.299  0.00  0.00    +0.000 HD
BRANCH  24  26
ATOM     26  C   UNL     1       2.092   4.026  19.386  0.00  0.00    +0.000 C 
ATOM     27  C   UNL     1       3.121   2.877  19.413  0.00  0.00    +0.000 C 
ATOM     28  C   UNL     1       3.546   2.491  20.823  0.00  0.00    +0.000 C 
ATOM     29  C   UNL     1       2.353   1.983  21.614  0.00  0.00    +0.000 C 
ATOM     30  C   UNL     1       1.267   3.047  21.688  0.00  0.00    +0.000 C 
ATOM     31  C   UNL     1       0.909   3.676  20.328  0.00  0.00    +0.000 C 
ENDBRANCH  24  26
ENDBRANCH   4  24
TORSDOF 4
ENDMDL
MODEL 4
REMARK VINA RESULT:      -8.1      0.596      1.154
REMARK  Name = 
REMARK  4 active torsions:
REMARK  status: ('A' for Active; 'I' for Inactive)
REMARK    1  A    between atoms: C_4  and  N_5
REMARK    2  A    between atoms: C_4  and  C_12
REMARK    3  A    between atoms: N_5  and  C_6
REMARK    4  A    between atoms: N_23  and  C_24
REMARK                            x       y       z     vdW  Elec       q    Type
REMARK                         _______ _______ _______ _____ _____    ______ ____
ROOT
ATOM      1  O   UNL     1       1.480   8.189  21.246  0.00  0.00    +0.000 OA
ATOM      2  C   UNL     1       1.561   8.378  20.047  0.00  0.00    +0.000 C 
ATOM      3  C   UNL     1       2.457   7.687  19.056  0.00  0.00    +0.000 C 
ATOM      4  C   UNL     1       3.053   6.470  19.227  0.00  0.00    +0.000 C 
ATOM      5  N   UNL     1       2.477   8.473  17.904  0.00  0.00    +0.000 NA
ATOM      6  C   UNL     1       1.554   9.366  18.099  0.00  0.00    +0.000 C 
ATOM      7  N   UNL     1       0.947   9.365  19.301  0.00  0.00    +0.000 N 
ENDROOT
BRANCH   4   8
ATOM      8  C   UNL     1       4.145   6.092  18.352  0.00  0.00    +0.000 A 
ATOM      9  C   UNL     1       5.414   5.582  18.610  0.00  0.00    +0.000 A 
ATOM     10  C   UNL     1       6.079   5.358  17.378  0.00  0.00    +0.000 A 
ATOM     11  C   UNL     1       7.338   4.873  16.994  0.00  0.00    +0.000 A 
ATOM     12  C   UNL     1       7.628   4.839  15.631  0.00  0.00    +0.000 A 
ATOM     13  C   UNL     1       6.658   5.262  14.731  0.00  0.00    +0.000 A 
ATOM     14  N   UNL     1       5.422   5.735  15.050  0.00  0.00    +0.000 NA
ATOM     15  C   UNL     1       5.206   5.763  16.378  0.00  0.00    +0.000 A 
ATOM     16  N   UNL     1       4.050   6.204  16.977  0.00  0.00    +0.000 N 
ATOM     17  H   UNL     1       3.259   6.576  16.485  0.00  0.00    +0.000 HD
ENDBRANCH   4   8
BRANCH   7  18
ATOM     18  C   UNL     1      -0.258  10.078  19.765  0.00  0.00    +0.000 C 
ATOM     19  C   UNL     1       0.033  11.394  20.507  0.00  0.00    +0.000 C 
ATOM     20  C   UNL     1       0.378  12.517  19.539  0.00  0.00    +0.000 C 
ATOM     21  C   UNL     1      -0.813  12.827  18.634  0.00  0.00    +0.000 C 
ATOM     22  C   UNL     1      -1.333  11.594  17.911  0.00  0.00    +0.000 C 
ATOM     23  C   UNL     1      -1.398  10.310  18.752  0.00  0.00    +0.000 C 
ENDBRANCH   7  18
BRANCH   4  24
ATOM     24  N   UNL     1       2.705   5.504  20.212  0.00  0.00    +0.000 N 
ATOM     25  H   UNL     1       3.015   5.829  21.126  0.00  0.00    +0.000 HD
BRANCH  24  26
ATOM     26  C   UNL     1       3.053   4.059  20.074  0.00  0.00    +0.000 C 
ATOM     27  C   UNL     1       2.440   3.180  21.183  0.00  0.00    +0.000 C 
ATOM     28  C   UNL     1       0.942   2.969  21.018  0.00  0.00    +0.000 C 
ATOM     29  C   UNL     1       0.651   2.238  19.718  0.00  0.00    +0.000 C 
ATOM     30  C   UNL     1       1.185   3.027  18.530  0.00  0.00    +0.000 C 
ATOM     31  C   UNL     1       2.645   3.491  18.687  0.00  0.00    +0.000 C 
ENDBRANCH  24  26
ENDBRANCH   4  24
TORSDOF 4
ENDMDL
MODEL 5
REMARK VINA RESULT:      -8.0      1.598      6.932
REMARK  Name = 
REMARK  4 active torsions:
REMARK  status: ('A' for Active; 'I' for Inactive)
REMARK    1  A    between atoms: C_4  and  N_5
REMARK    2  A    between atoms: C_4  and  C_12
REMARK    3  A    between atoms: N_5  and  C_6
REMARK    4  A    between atoms: N_23  and  C_24
REMARK                            x       y       z     vdW  Elec       q    Type
REMARK                         _______ _______ _______ _____ _____    ______ ____
ROOT
ATOM      1  O   UNL     1       4.110   3.683  18.090  0.00  0.00    +0.000 OA
ATOM      2  C   UNL     1       4.369   4.823  17.754  0.00  0.00    +0.000 C 
ATOM      3  C   UNL     1       3.746   6.100  18.247  0.00  0.00    +0.000 C 
ATOM      4  C   UNL     1       3.071   6.262  19.423  0.00  0.00    +0.000 C 
ATOM      5  N   UNL     1       4.079   7.099  17.331  0.00  0.00    +0.000 NA
ATOM      6  C   UNL     1       4.952   6.546  16.545  0.00  0.00    +0.000 C 
ATOM      7  N   UNL     1       5.207   5.237  16.738  0.00  0.00    +0.000 N 
ENDROOT
BRANCH   4   8
ATOM      8  C   UNL     1       2.244   7.438  19.604  0.00  0.00    +0.000 A 
ATOM      9  C   UNL     1       1.630   7.983  20.729  0.00  0.00    +0.000 A 
ATOM     10  C   UNL     1       0.955   9.172  20.354  0.00  0.00    +0.000 A 
ATOM     11  C   UNL     1       0.181  10.135  21.017  0.00  0.00    +0.000 A 
ATOM     12  C   UNL     1      -0.349  11.174  20.254  0.00  0.00    +0.000 A 
ATOM     13  C   UNL     1      -0.068  11.215  18.894  0.00  0.00    +0.000 A 
ATOM     14  N   UNL     1       0.680  10.310  18.204  0.00  0.00    +0.000 NA
ATOM     15  C   UNL     1       1.149   9.322  18.987  0.00  0.00    +0.000 A 
ATOM     16  N   UNL     1       1.921   8.272  18.551  0.00  0.00    +0.000 N 
ATOM     17  H   UNL     1       2.193   8.123  17.596  0.00  0.00    +0.000 HD
ENDBRANCH   4   8
BRANCH   7  18
ATOM     18  C   UNL     1       6.272   4.378  16.185  0.00  0.00    +0.000 C 
ATOM     19  C   UNL     1       5.769   3.298  15.213  0.00  0.00    +0.000 C 
ATOM     20  C   UNL     1       5.464   3.879  13.839  0.00  0.00    +0.000 C 
ATOM     21  C   UNL     1       6.738   4.428  13.198  0.00  0.00    +0.000 C 
ATOM     22  C   UNL     1       7.456   5.428  14.091  0.00  0.00    +0.000 C 
ATOM     23  C   UNL     1       7.515   5.062  15.583  0.00  0.00    +0.000 C 
ENDBRANCH   7  18
BRANCH   4  24
ATOM     24  N   UNL     1       3.092   5.361  20.525  0.00  0.00    +0.000 N 
ATOM     25  H   UNL     1       3.830   4.673  20.383  0.00  0.00    +0.000 HD
BRANCH  24  26
ATOM     26  C   UNL     1       1.867   4.657  21.006  0.00  0.00    +0.000 C 
ATOM     27  C   UNL     1       0.809   4.460  19.901  0.00  0.00    +0.000 C 
ATOM     28  C   UNL     1       1.190   3.383  18.896  0.00  0.00    +0.000 C 
ATOM     29  C   UNL     1       1.309   2.034  19.586  0.00  0.00    +0.000 C 
ATOM     30  C   UNL     1       2.356   2.089  20.689  0.00  0.00    +0.000 C 
ATOM     31  C   UNL     1       2.198   3.283  21.649  0.00  0.00    +0.000 C 
ENDBRANCH  24  26
ENDBRANCH   4  24
TORSDOF 4
ENDMDL
MODEL 6
REMARK VINA RESULT:      -8.0      2.034      7.215
REMARK  Name = 
REMARK  4 active torsions:
REMARK  status: ('A' for Active; 'I' for Inactive)
REMARK    1  A    between atoms: C_4  and  N_5
REMARK    2  A    between atoms: C_4  and  C_12
REMARK    3  A    between atoms: N_5  and  C_6
REMARK    4  A    between atoms: N_23  and  C_24
REMARK                            x       y       z     vdW  Elec       q    Type
REMARK                         _______ _______ _______ _____ _____    ______ ____
ROOT
ATOM      1  O   UNL     1       4.745   3.321  16.672  0.00  0.00    +0.000 OA
ATOM      2  C   UNL     1       4.966   4.498  16.458  0.00  0.00    +0.000 C 
ATOM      3  C   UNL     1       4.358   5.695  17.136  0.00  0.00    +0.000 C 
ATOM      4  C   UNL     1       3.756   5.702  18.362  0.00  0.00    +0.000 C 
ATOM      5  N   UNL     1       4.617   6.801  16.325  0.00  0.00    +0.000 NA
ATOM      6  C   UNL     1       5.447   6.363  15.428  0.00  0.00    +0.000 C 
ATOM      7  N   UNL     1       5.732   5.046  15.449  0.00  0.00    +0.000 N 
ENDROOT
BRANCH   4   8
ATOM      8  C   UNL     1       2.926   6.831  18.731  0.00  0.00    +0.000 A 
ATOM      9  C   UNL     1       2.246   7.145  19.905  0.00  0.00    +0.000 A 
ATOM     10  C   UNL     1       1.602   8.397  19.743  0.00  0.00    +0.000 A 
ATOM     11  C   UNL     1       0.792   9.218  20.542  0.00  0.00    +0.000 A 
ATOM     12  C   UNL     1       0.316  10.401  19.979  0.00  0.00    +0.000 A 
ATOM     13  C   UNL     1       0.682  10.715  18.676  0.00  0.00    +0.000 A 
ATOM     14  N   UNL     1       1.467   9.957  17.861  0.00  0.00    +0.000 NA
ATOM     15  C   UNL     1       1.881   8.821  18.451  0.00  0.00    +0.000 A 
ATOM     16  N   UNL     1       2.674   7.870  17.854  0.00  0.00    +0.000 N 
ATOM     17  H   UNL     1       3.003   7.914  16.908  0.00  0.00    +0.000 HD
ENDBRANCH   4   8
BRANCH   7  18
ATOM     18  C   UNL     1       6.772   4.281  14.734  0.00  0.00    +0.000 C 
ATOM     19  C   UNL     1       6.221   3.199  13.790  0.00  0.00    +0.000 C 
ATOM     20  C   UNL     1       5.707   3.800  12.489  0.00  0.00    +0.000 C 
ATOM     21  C   UNL     1       6.851   4.456  11.716  0.00  0.00    +0.000 C 
ATOM     22  C   UNL     1       7.610   5.475  12.552  0.00  0.00    +0.000 C 
ATOM     23  C   UNL     1       7.881   5.068  14.009  0.00  0.00    +0.000 C 
ENDBRANCH   7  18
BRANCH   4  24
ATOM     24  N   UNL     1       3.860   4.679  19.346  0.00  0.00    +0.000 N 
ATOM     25  H   UNL     1       4.842   4.512  19.555  0.00  0.00    +0.000 HD
BRANCH  24  26
ATOM     26  C   UNL     1       3.168   3.364  19.208  0.00  0.00    +0.000 C 
ATOM     27  C   UNL     1       3.385   2.436  20.421  0.00  0.00    +0.000 C 
ATOM     28  C   UNL     1       2.598   2.867  21.650  0.00  0.00    +0.000 C 
ATOM     29  C   UNL     1       1.106   2.819  21.367  0.00  0.00    +0.000 C 
ATOM     30  C   UNL     1       0.754   3.727  20.197  0.00  0.00    +0.000 C 
ATOM     31  C   UNL     1       1.645   3.529  18.956  0.00  0.00    +0.000 C 
ENDBRANCH  24  26
ENDBRANCH   4  24
TORSDOF 4
ENDMDL
MODEL 7
REMARK VINA RESULT:      -8.0      2.085      7.342
REMARK  Name = 
REMARK  4 active torsions:
REMARK  status: ('A' for Active; 'I' for Inactive)
REMARK    1  A    between atoms: C_4  and  N_5
REMARK    2  A    between atoms: C_4  and  C_12
REMARK    3  A    between atoms: N_5  and  C_6
REMARK    4  A    between atoms: N_23  and  C_24
REMARK                            x       y       z     vdW  Elec       q    Type
REMARK                         _______ _______ _______ _____ _____    ______ ____
ROOT
ATOM      1  O   UNL     1       4.820   3.329  16.627  0.00  0.00    +0.000 OA
ATOM      2  C   UNL     1       5.026   4.507  16.402  0.00  0.00    +0.000 C 
ATOM      3  C   UNL     1       4.405   5.702  17.071  0.00  0.00    +0.000 C 
ATOM      4  C   UNL     1       3.807   5.713  18.298  0.00  0.00    +0.000 C 
ATOM      5  N   UNL     1       4.648   6.803  16.250  0.00  0.00    +0.000 NA
ATOM      6  C   UNL     1       5.481   6.367  15.354  0.00  0.00    +0.000 C 
ATOM      7  N   UNL     1       5.783   5.055  15.386  0.00  0.00    +0.000 N 
ENDROOT
BRANCH   4   8
ATOM      8  C   UNL     1       2.963   6.835  18.660  0.00  0.00    +0.000 A 
ATOM      9  C   UNL     1       2.452   7.896  17.916  0.00  0.00    +0.000 A 
ATOM     10  C   UNL     1       1.652   8.705  18.762  0.00  0.00    +0.000 A 
ATOM     11  C   UNL     1       0.896   9.876  18.603  0.00  0.00    +0.000 A 
ATOM     12  C   UNL     1       0.258  10.391  19.730  0.00  0.00    +0.000 A 
ATOM     13  C   UNL     1       0.385   9.713  20.937  0.00  0.00    +0.000 A 
ATOM     14  N   UNL     1       1.100   8.573  21.143  0.00  0.00    +0.000 NA
ATOM     15  C   UNL     1       1.707   8.134  20.026  0.00  0.00    +0.000 A 
ATOM     16  N   UNL     1       2.501   7.015  19.950  0.00  0.00    +0.000 N 
ATOM     17  H   UNL     1       2.729   6.424  20.729  0.00  0.00    +0.000 HD
ENDBRANCH   4   8
BRANCH   7  18
ATOM     18  C   UNL     1       6.830   4.296  14.675  0.00  0.00    +0.000 C 
ATOM     19  C   UNL     1       6.289   3.238  13.699  0.00  0.00    +0.000 C 
ATOM     20  C   UNL     1       5.805   3.870  12.401  0.00  0.00    +0.000 C 
ATOM     21  C   UNL     1       6.968   4.533  11.664  0.00  0.00    +0.000 C 
ATOM     22  C   UNL     1       7.719   5.528  12.535  0.00  0.00    +0.000 C 
ATOM     23  C   UNL     1       7.959   5.089  13.988  0.00  0.00    +0.000 C 
ENDBRANCH   7  18
BRANCH   4  24
ATOM     24  N   UNL     1       3.925   4.700  19.291  0.00  0.00    +0.000 N 
ATOM     25  H   UNL     1       4.911   4.537  19.489  0.00  0.00    +0.000 HD
BRANCH  24  26
ATOM     26  C   UNL     1       3.235   3.383  19.176  0.00  0.00    +0.000 C 
ATOM     27  C   UNL     1       3.424   2.489  20.420  0.00  0.00    +0.000 C 
ATOM     28  C   UNL     1       2.612   2.956  21.619  0.00  0.00    +0.000 C 
ATOM     29  C   UNL     1       1.127   2.901  21.306  0.00  0.00    +0.000 C 
ATOM     30  C   UNL     1       0.801   3.776  20.103  0.00  0.00    +0.000 C 
ATOM     31  C   UNL     1       1.718   3.542  18.888  0.00  0.00    +0.000 C 
ENDBRANCH  24  26
ENDBRANCH   4  24
TORSDOF 4
ENDMDL
MODEL 8
REMARK VINA RESULT:      -7.8      1.728      7.086
REMARK  Name = 
REMARK  4 active torsions:
REMARK  status: ('A' for Active; 'I' for Inactive)
REMARK    1  A    between atoms: C_4  and  N_5
REMARK    2  A    between atoms: C_4  and  C_12
REMARK    3  A    between atoms: N_5  and  C_6
REMARK    4  A    between atoms: N_23  and  C_24
REMARK                            x       y       z     vdW  Elec       q    Type
REMARK                         _______ _______ _______ _____ _____    ______ ____
ROOT
ATOM      1  O   UNL     1       4.129   3.708  18.027  0.00  0.00    +0.000 OA
ATOM      2  C   UNL     1       4.391   4.841  17.668  0.00  0.00    +0.000 C 
ATOM      3  C   UNL     1       3.778   6.129  18.142  0.00  0.00    +0.000 C 
ATOM      4  C   UNL     1       3.111   6.315  19.319  0.00  0.00    +0.000 C 
ATOM      5  N   UNL     1       4.109   7.109  17.205  0.00  0.00    +0.000 NA
ATOM      6  C   UNL     1       4.975   6.538  16.424  0.00  0.00    +0.000 C 
ATOM      7  N   UNL     1       5.225   5.232  16.640  0.00  0.00    +0.000 N 
ENDROOT
BRANCH   4   8
ATOM      8  C   UNL     1       2.291   7.499  19.484  0.00  0.00    +0.000 A 
ATOM      9  C   UNL     1       1.762   8.403  18.566  0.00  0.00    +0.000 A 
ATOM     10  C   UNL     1       0.999   9.373  19.264  0.00  0.00    +0.000 A 
ATOM     11  C   UNL     1       0.248  10.502  18.907  0.00  0.00    +0.000 A 
ATOM     12  C   UNL     1      -0.344  11.236  19.933  0.00  0.00    +0.000 A 
ATOM     13  C   UNL     1      -0.180  10.803  21.244  0.00  0.00    +0.000 A 
ATOM     14  N   UNL     1       0.533   9.714  21.643  0.00  0.00    +0.000 NA
ATOM     15  C   UNL     1       1.095   9.057  20.612  0.00  0.00    +0.000 A 
ATOM     16  N   UNL     1       1.876   7.932  20.729  0.00  0.00    +0.000 N 
ATOM     17  H   UNL     1       2.128   7.501  21.600  0.00  0.00    +0.000 HD
ENDBRANCH   4   8
BRANCH   7  18
ATOM     18  C   UNL     1       6.282   4.358  16.096  0.00  0.00    +0.000 C 
ATOM     19  C   UNL     1       5.770   3.271  15.136  0.00  0.00    +0.000 C 
ATOM     20  C   UNL     1       5.470   3.840  13.756  0.00  0.00    +0.000 C 
ATOM     21  C   UNL     1       6.749   4.371  13.109  0.00  0.00    +0.000 C 
ATOM     22  C   UNL     1       7.476   5.375  13.991  0.00  0.00    +0.000 C 
ATOM     23  C   UNL     1       7.531   5.024  15.487  0.00  0.00    +0.000 C 
ENDBRANCH   7  18
BRANCH   4  24
ATOM     24  N   UNL     1       3.135   5.435  20.437  0.00  0.00    +0.000 N 
ATOM     25  H   UNL     1       3.856   4.730  20.295  0.00  0.00    +0.000 HD
BRANCH  24  26
ATOM     26  C   UNL     1       1.906   4.766  20.954  0.00  0.00    +0.000 C 
ATOM     27  C   UNL     1       0.840   4.530  19.864  0.00  0.00    +0.000 C 
ATOM     28  C   UNL     1       1.206   3.406  18.906  0.00  0.00    +0.000 C 
ATOM     29  C   UNL     1       1.315   2.088  19.654  0.00  0.00    +0.000 C 
ATOM     30  C   UNL     1       2.368   2.181  20.749  0.00  0.00    +0.000 C 
ATOM     31  C   UNL     1       2.227   3.418  21.656  0.00  0.00    +0.000 C 
ENDBRANCH  24  26
ENDBRANCH   4  24
TORSDOF 4
ENDMDL
MODEL 9
REMARK VINA RESULT:      -7.8      1.126      1.504
REMARK  Name = 
REMARK  4 active torsions:
REMARK  status: ('A' for Active; 'I' for Inactive)
REMARK    1  A    between atoms: C_4  and  N_5
REMARK    2  A    between atoms: C_4  and  C_12
REMARK    3  A    between atoms: N_5  and  C_6
REMARK    4  A    between atoms: N_23  and  C_24
REMARK                            x       y       z     vdW  Elec       q    Type
REMARK                         _______ _______ _______ _____ _____    ______ ____
ROOT
ATOM      1  O   UNL     1       1.486   8.106  20.877  0.00  0.00    +0.000 OA
ATOM      2  C   UNL     1       1.613   8.443  19.715  0.00  0.00    +0.000 C 
ATOM      3  C   UNL     1       2.355   7.731  18.618  0.00  0.00    +0.000 C 
ATOM      4  C   UNL     1       2.685   6.407  18.602  0.00  0.00    +0.000 C 
ATOM      5  N   UNL     1       2.544   8.652  17.587  0.00  0.00    +0.000 NA
ATOM      6  C   UNL     1       1.824   9.678  17.927  0.00  0.00    +0.000 C 
ATOM      7  N   UNL     1       1.221   9.631  19.130  0.00  0.00    +0.000 N 
ENDROOT
BRANCH   4   8
ATOM      8  C   UNL     1       3.682   5.942  17.658  0.00  0.00    +0.000 A 
ATOM      9  C   UNL     1       3.693   4.876  16.761  0.00  0.00    +0.000 A 
ATOM     10  C   UNL     1       4.917   4.889  16.046  0.00  0.00    +0.000 A 
ATOM     11  C   UNL     1       5.499   4.101  15.043  0.00  0.00    +0.000 A 
ATOM     12  C   UNL     1       6.782   4.440  14.617  0.00  0.00    +0.000 A 
ATOM     13  C   UNL     1       7.404   5.546  15.186  0.00  0.00    +0.000 A 
ATOM     14  N   UNL     1       6.882   6.345  16.156  0.00  0.00    +0.000 NA
ATOM     15  C   UNL     1       5.652   5.958  16.540  0.00  0.00    +0.000 A 
ATOM     16  N   UNL     1       4.900   6.579  17.509  0.00  0.00    +0.000 N 
ATOM     17  H   UNL     1       5.203   7.370  18.047  0.00  0.00    +0.000 HD
ENDBRANCH   4   8
BRANCH   7  18
ATOM     18  C   UNL     1       0.185  10.503  19.717  0.00  0.00    +0.000 C 
ATOM     19  C   UNL     1       0.694  11.891  20.141  0.00  0.00    +0.000 C 
ATOM     20  C   UNL     1       0.858  12.817  18.944  0.00  0.00    +0.000 C 
ATOM     21  C   UNL     1      -0.494  13.076  18.281  0.00  0.00    +0.000 C 
ATOM     22  C   UNL     1      -1.218  11.791  17.911  0.00  0.00    +0.000 C 
ATOM     23  C   UNL     1      -1.144  10.664  18.953  0.00  0.00    +0.000 C 
ENDBRANCH   7  18
BRANCH   4  24
ATOM     24  N   UNL     1       2.139   5.402  19.449  0.00  0.00    +0.000 N 
ATOM     25  H   UNL     1       1.332   5.780  19.941  0.00  0.00    +0.000 HD
BRANCH  24  26
ATOM     26  C   UNL     1       2.973   4.631  20.416  0.00  0.00    +0.000 C 
ATOM     27  C   UNL     1       2.164   4.081  21.610  0.00  0.00    +0.000 C 
ATOM     28  C   UNL     1       1.276   2.903  21.236  0.00  0.00    +0.000 C 
ATOM     29  C   UNL     1       2.121   1.737  20.751  0.00  0.00    +0.000 C 
ATOM     30  C   UNL     1       2.953   2.145  19.544  0.00  0.00    +0.000 C 
ATOM     31  C   UNL     1       3.731   3.462  19.731  0.00  0.00    +0.000 C 
ENDBRANCH  24  26
ENDBRANCH   4  24
TORSDOF 4
ENDMDL
