MODEL 1
REMARK VINA RESULT:      -8.3      0.000      0.000
REMARK  Name = 
REMARK  12 active torsions:
REMARK  status: ('A' for Active; 'I' for Inactive)
REMARK    1  A    between atoms: C_1  and  C_2
REMARK    2  A    between atoms: C_2  and  C_3
REMARK    3  A    between atoms: C_3  and  C_4
REMARK    4  A    between atoms: C_4  and  C_5
REMARK    5  A    between atoms: C_4  and  C_8
REMARK    6  A    between atoms: C_5  and  C_6
REMARK    7  A    between atoms: C_6  and  C_7
REMARK    8  A    between atoms: C_8  and  O_10
REMARK    9  A    between atoms: O_10  and  N_11
REMARK   10  A    between atoms: C_12  and  C_13
REMARK   11  A    between atoms: C_12  and  C_19
REMARK   12  A    between atoms: C_13  and  N_14
REMARK                            x       y       z     vdW  Elec       q    Type
REMARK                         _______ _______ _______ _____ _____    ______ ____
ROOT
ATOM      1  N   UNL     1       4.185   6.126  19.583  0.00  0.00    +0.000 NA
ATOM      2  C   UNL     1       3.210   6.333  18.759  0.00  0.00    +0.000 C 
ENDROOT
BRANCH   2   3
ATOM      3  C   UNL     1       2.305   7.502  19.017  0.00  0.00    +0.000 A 
ATOM      4  C   UNL     1       1.944   8.402  17.991  0.00  0.00    +0.000 A 
ATOM      5  C   UNL     1       1.122   9.499  18.255  0.00  0.00    +0.000 A 
ATOM      6  C   UNL     1       0.633   9.721  19.548  0.00  0.00    +0.000 A 
ATOM      7  C   UNL     1      -0.188  10.826  19.823  0.00  0.00    +0.000 A 
ATOM      8  C   UNL     1      -0.671  11.033  21.118  0.00  0.00    +0.000 A 
ATOM      9  C   UNL     1      -0.341  10.144  22.143  0.00  0.00    +0.000 A 
ATOM     10  C   UNL     1       0.476   9.041  21.880  0.00  0.00    +0.000 A 
ATOM     11  C   UNL     1       0.970   8.822  20.585  0.00  0.00    +0.000 A 
ATOM     12  C   UNL     1       1.799   7.726  20.314  0.00  0.00    +0.000 A 
ENDBRANCH   2   3
BRANCH   1  13
ATOM     13  O   UNL     1       5.040   5.127  19.460  0.00  0.00    +0.000 OA
BRANCH  13  14
ATOM     14  C   UNL     1       6.365   5.362  19.272  0.00  0.00    +0.000 C 
ATOM     15  O   UNL     1       7.161   5.077  20.153  0.00  0.00    +0.000 OA
BRANCH  14  16
ATOM     16  C   UNL     1       6.872   5.924  17.950  0.00  0.00    +0.000 C 
BRANCH  16  17
ATOM     17  C   UNL     1       7.988   6.967  18.231  0.00  0.00    +0.000 C 
BRANCH  17  19
ATOM     18  C   UNL     1       8.490   9.441  18.291  0.00  0.00    +0.000 C 
ATOM     19  C   UNL     1       7.771   8.323  17.540  0.00  0.00    +0.000 C 
ENDBRANCH  17  19
ENDBRANCH  16  17
BRANCH  16  20
ATOM     20  C   UNL     1       7.374   4.798  16.993  0.00  0.00    +0.000 C 
BRANCH  20  21
ATOM     21  C   UNL     1       6.960   4.918  15.511  0.00  0.00    +0.000 C 
ATOM     22  C   UNL     1       5.810   3.984  15.128  0.00  0.00    +0.000 C 
ENDBRANCH  20  21
ENDBRANCH  16  20
ENDBRANCH  14  16
ENDBRANCH  13  14
ENDBRANCH   1  13
BRANCH   2  23
ATOM     23  C   UNL     1       2.974   5.408  17.569  0.00  0.00    +0.000 C 
BRANCH  23  24
ATOM     24  N   UNL     1       2.372   4.132  17.970  0.00  0.00    +0.000 N 
ATOM     25  C   UNL     1       2.788   2.913  17.591  0.00  0.00    +0.000 A 
ATOM     26  N   UNL     1       2.031   1.954  18.156  0.00  0.00    +0.000 NA
ATOM     27  C   UNL     1       1.140   2.654  18.890  0.00  0.00    +0.000 A 
ATOM     28  N   UNL     1       1.337   3.981  18.781  0.00  0.00    +0.000 NA
ENDBRANCH  23  24
ENDBRANCH   2  23
TORSDOF 10
ENDMDL
MODEL 2
REMARK VINA RESULT:      -8.2      1.215      2.580
REMARK  Name = 
REMARK  12 active torsions:
REMARK  status: ('A' for Active; 'I' for Inactive)
REMARK    1  A    between atoms: C_1  and  C_2
REMARK    2  A    between atoms: C_2  and  C_3
REMARK    3  A    between atoms: C_3  and  C_4
REMARK    4  A    between atoms: C_4  and  C_5
REMARK    5  A    between atoms: C_4  and  C_8
REMARK    6  A    between atoms: C_5  and  C_6
REMARK    7  A    between atoms: C_6  and  C_7
REMARK    8  A    between atoms: C_8  and  O_10
REMARK    9  A    between atoms: O_10  and  N_11
REMARK   10  A    between atoms: C_12  and  C_13
REMARK   11  A    between atoms: C_12  and  C_19
REMARK   12  A    between atoms: C_13  and  N_14
REMARK                            x       y       z     vdW  Elec       q    Type
REMARK                         _______ _______ _______ _____ _____    ______ ____
ROOT
ATOM      1  N   UNL     1       4.103   6.174  18.056  0.00  0.00    +0.000 NA
ATOM      2  C   UNL     1       2.843   6.138  18.346  0.00  0.00    +0.000 C 
ENDROOT
BRANCH   2   3
ATOM      3  C   UNL     1       2.189   7.408  18.805  0.00  0.00    +0.000 A 
ATOM      4  C   UNL     1       1.992   8.500  17.931  0.00  0.00    +0.000 A 
ATOM      5  C   UNL     1       1.404   9.683  18.382  0.00  0.00    +0.000 A 
ATOM      6  C   UNL     1       0.991   9.805  19.714  0.00  0.00    +0.000 A 
ATOM      7  C   UNL     1       0.406  10.993  20.177  0.00  0.00    +0.000 A 
ATOM      8  C   UNL     1      -0.004  11.099  21.509  0.00  0.00    +0.000 A 
ATOM      9  C   UNL     1       0.165  10.024  22.384  0.00  0.00    +0.000 A 
ATOM     10  C   UNL     1       0.747   8.836  21.935  0.00  0.00    +0.000 A 
ATOM     11  C   UNL     1       1.165   8.717  20.600  0.00  0.00    +0.000 A 
ATOM     12  C   UNL     1       1.759   7.534  20.142  0.00  0.00    +0.000 A 
ENDBRANCH   2   3
BRANCH   1  13
ATOM     13  O   UNL     1       4.785   5.119  17.647  0.00  0.00    +0.000 OA
BRANCH  13  14
ATOM     14  C   UNL     1       5.820   4.632  18.378  0.00  0.00    +0.000 C 
ATOM     15  O   UNL     1       5.598   3.893  19.324  0.00  0.00    +0.000 OA
BRANCH  14  16
ATOM     16  C   UNL     1       7.259   4.954  17.993  0.00  0.00    +0.000 C 
BRANCH  16  17
ATOM     17  C   UNL     1       7.414   4.850  16.451  0.00  0.00    +0.000 C 
BRANCH  17  19
ATOM     18  C   UNL     1       6.154   4.322  14.328  0.00  0.00    +0.000 C 
ATOM     19  C   UNL     1       6.398   3.913  15.779  0.00  0.00    +0.000 C 
ENDBRANCH  17  19
ENDBRANCH  16  17
BRANCH  16  20
ATOM     20  C   UNL     1       7.701   6.356  18.516  0.00  0.00    +0.000 C 
BRANCH  20  21
ATOM     21  C   UNL     1       7.529   7.541  17.541  0.00  0.00    +0.000 C 
ATOM     22  C   UNL     1       8.277   8.800  17.984  0.00  0.00    +0.000 C 
ENDBRANCH  20  21
ENDBRANCH  16  20
ENDBRANCH  14  16
ENDBRANCH  13  14
ENDBRANCH   1  13
BRANCH   2  23
ATOM     23  C   UNL     1       2.047   4.841  18.243  0.00  0.00    +0.000 C 
BRANCH  23  24
ATOM     24  N   UNL     1       1.901   4.176  19.542  0.00  0.00    +0.000 N 
ATOM     25  C   UNL     1       0.953   3.280  19.865  0.00  0.00    +0.000 A 
ATOM     26  N   UNL     1       1.117   2.848  21.129  0.00  0.00    +0.000 NA
ATOM     27  C   UNL     1       2.204   3.528  21.551  0.00  0.00    +0.000 A 
ATOM     28  N   UNL     1       2.687   4.341  20.593  0.00  0.00    +0.000 NA
ENDBRANCH  23  24
ENDBRANCH   2  23
TORSDOF 10
ENDMDL
MODEL 3
REMARK VINA RESULT:      -8.2      1.557      3.048
REMARK  Name = 
REMARK  12 active torsions:
REMARK  status: ('A' for Active; 'I' for Inactive)
REMARK    1  A    between atoms: C_1  and  C_2
REMARK    2  A    between atoms: C_2  and  C_3
REMARK    3  A    between atoms: C_3  and  C_4
REMARK    4  A    between atoms: C_4  and  C_5
REMARK    5  A    between atoms: C_4  and  C_8
REMARK    6  A    between atoms: C_5  and  C_6
REMARK    7  A    between atoms: C_6  and  C_7
REMARK    8  A    between atoms: C_8  and  O_10
REMARK    9  A    between atoms: O_10  and  N_11
REMARK   10  A    between atoms: C_12  and  C_13
REMARK   11  A    between atoms: C_12  and  C_19
REMARK   12  A    between atoms: C_13  and  N_14
REMARK                            x       y       z     vdW  Elec       q    Type
REMARK                         _______ _______ _______ _____ _____    ______ ____
ROOT
ATOM      1  N   UNL     1       3.537   6.398  17.490  0.00  0.00    +0.000 NA
ATOM      2  C   UNL     1       3.070   6.440  18.695  0.00  0.00    +0.000 C 
ENDROOT
BRANCH   2   3
ATOM      3  C   UNL     1       2.239   7.627  19.088  0.00  0.00    +0.000 A 
ATOM      4  C   UNL     1       1.904   8.639  18.162  0.00  0.00    +0.000 A 
ATOM      5  C   UNL     1       1.152   9.748  18.552  0.00  0.00    +0.000 A 
ATOM      6  C   UNL     1       0.708   9.873  19.874  0.00  0.00    +0.000 A 
ATOM      7  C   UNL     1      -0.042  10.989  20.276  0.00  0.00    +0.000 A 
ATOM      8  C   UNL     1      -0.480  11.098  21.598  0.00  0.00    +0.000 A 
ATOM      9  C   UNL     1      -0.176  10.098  22.525  0.00  0.00    +0.000 A 
ATOM     10  C   UNL     1       0.571   8.983  22.136  0.00  0.00    +0.000 A 
ATOM     11  C   UNL     1       1.020   8.862  20.812  0.00  0.00    +0.000 A 
ATOM     12  C   UNL     1       1.778   7.753  20.415  0.00  0.00    +0.000 A 
ENDBRANCH   2   3
BRANCH   1  13
ATOM     13  O   UNL     1       4.283   5.408  17.035  0.00  0.00    +0.000 OA
BRANCH  13  14
ATOM     14  C   UNL     1       5.230   5.627  16.087  0.00  0.00    +0.000 C 
ATOM     15  O   UNL     1       5.258   6.695  15.495  0.00  0.00    +0.000 OA
BRANCH  14  16
ATOM     16  C   UNL     1       6.292   4.574  15.794  0.00  0.00    +0.000 C 
BRANCH  16  17
ATOM     17  C   UNL     1       6.637   4.600  14.280  0.00  0.00    +0.000 C 
BRANCH  17  19
ATOM     18  C   UNL     1       6.284   3.271  12.163  0.00  0.00    +0.000 C 
ATOM     19  C   UNL     1       5.610   3.884  13.388  0.00  0.00    +0.000 C 
ENDBRANCH  17  19
ENDBRANCH  16  17
BRANCH  16  20
ATOM     20  C   UNL     1       7.567   4.775  16.671  0.00  0.00    +0.000 C 
BRANCH  20  21
ATOM     21  C   UNL     1       7.352   4.824  18.199  0.00  0.00    +0.000 C 
ATOM     22  C   UNL     1       7.790   6.147  18.829  0.00  0.00    +0.000 C 
ENDBRANCH  20  21
ENDBRANCH  16  20
ENDBRANCH  14  16
ENDBRANCH  13  14
ENDBRANCH   1  13
BRANCH   2  23
ATOM     23  C   UNL     1       3.365   5.327  19.695  0.00  0.00    +0.000 C 
BRANCH  23  24
ATOM     24  N   UNL     1       2.426   4.207  19.569  0.00  0.00    +0.000 N 
ATOM     25  C   UNL     1       1.229   4.113  20.172  0.00  0.00    +0.000 A 
ATOM     26  N   UNL     1       0.611   2.968  19.827  0.00  0.00    +0.000 NA
ATOM     27  C   UNL     1       1.493   2.378  18.992  0.00  0.00    +0.000 A 
ATOM     28  N   UNL     1       2.603   3.123  18.831  0.00  0.00    +0.000 NA
ENDBRANCH  23  24
ENDBRANCH   2  23
TORSDOF 10
ENDMDL
MODEL 4
REMARK VINA RESULT:      -8.2      1.252      1.714
REMARK  Name = 
REMARK  12 active torsions:
REMARK  status: ('A' for Active; 'I' for Inactive)
REMARK    1  A    between atoms: C_1  and  C_2
REMARK    2  A    between atoms: C_2  and  C_3
REMARK    3  A    between atoms: C_3  and  C_4
REMARK    4  A    between atoms: C_4  and  C_5
REMARK    5  A    between atoms: C_4  and  C_8
REMARK    6  A    between atoms: C_5  and  C_6
REMARK    7  A    between atoms: C_6  and  C_7
REMARK    8  A    between atoms: C_8  and  O_10
REMARK    9  A    between atoms: O_10  and  N_11
REMARK   10  A    between atoms: C_12  and  C_13
REMARK   11  A    between atoms: C_12  and  C_19
REMARK   12  A    between atoms: C_13  and  N_14
REMARK                            x       y       z     vdW  Elec       q    Type
REMARK                         _______ _______ _______ _____ _____    ______ ____
ROOT
ATOM      1  N   UNL     1       3.985   6.022  18.815  0.00  0.00    +0.000 NA
ATOM      2  C   UNL     1       2.912   6.196  19.514  0.00  0.00    +0.000 C 
ENDROOT
BRANCH   2   3
ATOM      3  C   UNL     1       2.178   7.497  19.368  0.00  0.00    +0.000 A 
ATOM      4  C   UNL     1       2.148   8.200  18.144  0.00  0.00    +0.000 A 
ATOM      5  C   UNL     1       1.482   9.423  18.035  0.00  0.00    +0.000 A 
ATOM      6  C   UNL     1       0.823   9.970  19.141  0.00  0.00    +0.000 A 
ATOM      7  C   UNL     1       0.158  11.202  19.042  0.00  0.00    +0.000 A 
ATOM      8  C   UNL     1      -0.498  11.736  20.154  0.00  0.00    +0.000 A 
ATOM      9  C   UNL     1      -0.496  11.046  21.369  0.00  0.00    +0.000 A 
ATOM     10  C   UNL     1       0.164   9.820  21.480  0.00  0.00    +0.000 A 
ATOM     11  C   UNL     1       0.829   9.274  20.371  0.00  0.00    +0.000 A 
ATOM     12  C   UNL     1       1.502   8.050  20.476  0.00  0.00    +0.000 A 
ENDBRANCH   2   3
BRANCH   1  13
ATOM     13  O   UNL     1       4.714   4.922  18.864  0.00  0.00    +0.000 OA
BRANCH  13  14
ATOM     14  C   UNL     1       5.126   4.306  17.726  0.00  0.00    +0.000 C 
ATOM     15  O   UNL     1       4.512   3.336  17.307  0.00  0.00    +0.000 OA
BRANCH  14  16
ATOM     16  C   UNL     1       6.312   4.847  16.937  0.00  0.00    +0.000 C 
BRANCH  16  17
ATOM     17  C   UNL     1       7.567   4.876  17.852  0.00  0.00    +0.000 C 
BRANCH  17  19
ATOM     18  C   UNL     1       7.564   7.386  17.579  0.00  0.00    +0.000 C 
ATOM     19  C   UNL     1       7.809   6.228  18.543  0.00  0.00    +0.000 C 
ENDBRANCH  17  19
ENDBRANCH  16  17
BRANCH  16  20
ATOM     20  C   UNL     1       6.573   4.019  15.640  0.00  0.00    +0.000 C 
BRANCH  20  21
ATOM     21  C   UNL     1       6.034   4.615  14.321  0.00  0.00    +0.000 C 
ATOM     22  C   UNL     1       6.135   3.651  13.138  0.00  0.00    +0.000 C 
ENDBRANCH  20  21
ENDBRANCH  16  20
ENDBRANCH  14  16
ENDBRANCH  13  14
ENDBRANCH   1  13
BRANCH   2  23
ATOM     23  C   UNL     1       2.411   5.119  20.471  0.00  0.00    +0.000 C 
BRANCH  23  24
ATOM     24  N   UNL     1       2.014   3.895  19.767  0.00  0.00    +0.000 N 
ATOM     25  C   UNL     1       1.235   3.833  18.674  0.00  0.00    +0.000 A 
ATOM     26  N   UNL     1       1.085   2.559  18.267  0.00  0.00    +0.000 NA
ATOM     27  C   UNL     1       1.806   1.858  19.168  0.00  0.00    +0.000 A 
ATOM     28  N   UNL     1       2.373   2.662  20.087  0.00  0.00    +0.000 NA
ENDBRANCH  23  24
ENDBRANCH   2  23
TORSDOF 10
ENDMDL
MODEL 5
REMARK VINA RESULT:      -8.1      3.887      6.889
REMARK  Name = 
REMARK  12 active torsions:
REMARK  status: ('A' for Active; 'I' for Inactive)
REMARK    1  A    between atoms: C_1  and  C_2
REMARK    2  A    between atoms: C_2  and  C_3
REMARK    3  A    between atoms: C_3  and  C_4
REMARK    4  A    between atoms: C_4  and  C_5
REMARK    5  A    between atoms: C_4  and  C_8
REMARK    6  A    between atoms: C_5  and  C_6
REMARK    7  A    between atoms: C_6  and  C_7
REMARK    8  A    between atoms: C_8  and  O_10
REMARK    9  A    between atoms: O_10  and  N_11
REMARK   10  A    between atoms: C_12  and  C_13
REMARK   11  A    between atoms: C_12  and  C_19
REMARK   12  A    between atoms: C_13  and  N_14
REMARK                            x       y       z     vdW  Elec       q    Type
REMARK                         _______ _______ _______ _____ _____    ______ ____
ROOT
ATOM      1  N   UNL     1       5.483   3.790  14.693  0.00  0.00    +0.000 NA
ATOM      2  C   UNL     1       5.764   4.071  15.924  0.00  0.00    +0.000 C 
ENDROOT
BRANCH   2   3
ATOM      3  C   UNL     1       4.624   4.270  16.879  0.00  0.00    +0.000 A 
ATOM      4  C   UNL     1       4.133   5.556  17.192  0.00  0.00    +0.000 A 
ATOM      5  C   UNL     1       3.088   5.724  18.103  0.00  0.00    +0.000 A 
ATOM      6  C   UNL     1       2.501   4.612  18.718  0.00  0.00    +0.000 A 
ATOM      7  C   UNL     1       1.456   4.772  19.641  0.00  0.00    +0.000 A 
ATOM      8  C   UNL     1       0.878   3.653  20.245  0.00  0.00    +0.000 A 
ATOM      9  C   UNL     1       1.336   2.371  19.934  0.00  0.00    +0.000 A 
ATOM     10  C   UNL     1       2.377   2.199  19.017  0.00  0.00    +0.000 A 
ATOM     11  C   UNL     1       2.968   3.315  18.405  0.00  0.00    +0.000 A 
ATOM     12  C   UNL     1       4.019   3.154  17.494  0.00  0.00    +0.000 A 
ENDBRANCH   2   3
BRANCH   1  13
ATOM     13  O   UNL     1       6.402   3.598  13.764  0.00  0.00    +0.000 OA
BRANCH  13  14
ATOM     14  C   UNL     1       6.110   3.765  12.448  0.00  0.00    +0.000 C 
ATOM     15  O   UNL     1       6.915   4.318  11.715  0.00  0.00    +0.000 OA
BRANCH  14  16
ATOM     16  C   UNL     1       4.811   3.219  11.867  0.00  0.00    +0.000 C 
BRANCH  16  17
ATOM     17  C   UNL     1       4.353   4.127  10.692  0.00  0.00    +0.000 C 
BRANCH  17  19
ATOM     18  C   UNL     1       2.436   4.775   9.185  0.00  0.00    +0.000 C 
ATOM     19  C   UNL     1       3.075   3.645   9.987  0.00  0.00    +0.000 C 
ENDBRANCH  17  19
ENDBRANCH  16  17
BRANCH  16  20
ATOM     20  C   UNL     1       4.956   1.733  11.415  0.00  0.00    +0.000 C 
BRANCH  20  21
ATOM     21  C   UNL     1       6.394   1.217  11.192  0.00  0.00    +0.000 C 
ATOM     22  C   UNL     1       6.514  -0.304  11.310  0.00  0.00    +0.000 C 
ENDBRANCH  20  21
ENDBRANCH  16  20
ENDBRANCH  14  16
ENDBRANCH  13  14
ENDBRANCH   1  13
BRANCH   2  23
ATOM     23  C   UNL     1       7.209   4.212  16.390  0.00  0.00    +0.000 C 
BRANCH  23  24
ATOM     24  N   UNL     1       7.446   5.483  17.082  0.00  0.00    +0.000 N 
ATOM     25  C   UNL     1       7.705   5.629  18.393  0.00  0.00    +0.000 A 
ATOM     26  N   UNL     1       7.894   6.926  18.699  0.00  0.00    +0.000 NA
ATOM     27  C   UNL     1       7.735   7.552  17.514  0.00  0.00    +0.000 A 
ATOM     28  N   UNL     1       7.458   6.683  16.524  0.00  0.00    +0.000 NA
ENDBRANCH  23  24
ENDBRANCH   2  23
TORSDOF 10
ENDMDL
MODEL 6
REMARK VINA RESULT:      -8.0      1.024      2.426
REMARK  Name = 
REMARK  12 active torsions:
REMARK  status: ('A' for Active; 'I' for Inactive)
REMARK    1  A    between atoms: C_1  and  C_2
REMARK    2  A    between atoms: C_2  and  C_3
REMARK    3  A    between atoms: C_3  and  C_4
REMARK    4  A    between atoms: C_4  and  C_5
REMARK    5  A    between atoms: C_4  and  C_8
REMARK    6  A    between atoms: C_5  and  C_6
REMARK    7  A    between atoms: C_6  and  C_7
REMARK    8  A    between atoms: C_8  and  O_10
REMARK    9  A    between atoms: O_10  and  N_11
REMARK   10  A    between atoms: C_12  and  C_13
REMARK   11  A    between atoms: C_12  and  C_19
REMARK   12  A    between atoms: C_13  and  N_14
REMARK                            x       y       z     vdW  Elec       q    Type
REMARK                         _______ _______ _______ _____ _____    ______ ____
ROOT
ATOM      1  N   UNL     1       3.711   6.098  18.611  0.00  0.00    +0.000 NA
ATOM      2  C   UNL     1       2.863   6.164  19.585  0.00  0.00    +0.000 C 
ENDROOT
BRANCH   2   3
ATOM      3  C   UNL     1       2.079   7.433  19.752  0.00  0.00    +0.000 A 
ATOM      4  C   UNL     1       1.974   8.384  18.714  0.00  0.00    +0.000 A 
ATOM      5  C   UNL     1       1.262   9.571  18.896  0.00  0.00    +0.000 A 
ATOM      6  C   UNL     1       0.630   9.835  20.116  0.00  0.00    +0.000 A 
ATOM      7  C   UNL     1      -0.082  11.029  20.311  0.00  0.00    +0.000 A 
ATOM      8  C   UNL     1      -0.710  11.279  21.534  0.00  0.00    +0.000 A 
ATOM      9  C   UNL     1      -0.633  10.343  22.567  0.00  0.00    +0.000 A 
ATOM     10  C   UNL     1       0.073   9.151  22.386  0.00  0.00    +0.000 A 
ATOM     11  C   UNL     1       0.710   8.889  21.163  0.00  0.00    +0.000 A 
ATOM     12  C   UNL     1       1.430   7.702  20.975  0.00  0.00    +0.000 A 
ENDBRANCH   2   3
BRANCH   1  13
ATOM     13  O   UNL     1       4.458   5.036  18.370  0.00  0.00    +0.000 OA
BRANCH  13  14
ATOM     14  C   UNL     1       5.790   5.044  18.637  0.00  0.00    +0.000 C 
ATOM     15  O   UNL     1       6.174   5.016  19.796  0.00  0.00    +0.000 OA
BRANCH  14  16
ATOM     16  C   UNL     1       6.808   5.031  17.504  0.00  0.00    +0.000 C 
BRANCH  16  17
ATOM     17  C   UNL     1       6.235   4.222  16.308  0.00  0.00    +0.000 C 
BRANCH  17  19
ATOM     18  C   UNL     1       6.708   4.457  13.840  0.00  0.00    +0.000 C 
ATOM     19  C   UNL     1       5.987   5.059  15.043  0.00  0.00    +0.000 C 
ENDBRANCH  17  19
ENDBRANCH  16  17
BRANCH  16  20
ATOM     20  C   UNL     1       7.214   6.475  17.070  0.00  0.00    +0.000 C 
BRANCH  20  21
ATOM     21  C   UNL     1       7.939   7.334  18.128  0.00  0.00    +0.000 C 
ATOM     22  C   UNL     1       7.996   8.819  17.765  0.00  0.00    +0.000 C 
ENDBRANCH  20  21
ENDBRANCH  16  20
ENDBRANCH  14  16
ENDBRANCH  13  14
ENDBRANCH   1  13
BRANCH   2  23
ATOM     23  C   UNL     1       2.675   4.996  20.547  0.00  0.00    +0.000 C 
BRANCH  23  24
ATOM     24  N   UNL     1       2.119   3.814  19.880  0.00  0.00    +0.000 N 
ATOM     25  C   UNL     1       2.593   2.560  19.978  0.00  0.00    +0.000 A 
ATOM     26  N   UNL     1       1.838   1.709  19.258  0.00  0.00    +0.000 NA
ATOM     27  C   UNL     1       0.892   2.509  18.722  0.00  0.00    +0.000 A 
ATOM     28  N   UNL     1       1.057   3.793  19.092  0.00  0.00    +0.000 NA
ENDBRANCH  23  24
ENDBRANCH   2  23
TORSDOF 10
ENDMDL
MODEL 7
REMARK VINA RESULT:      -8.0      0.992      1.075
REMARK  Name = 
REMARK  12 active torsions:
REMARK  status: ('A' for Active; 'I' for Inactive)
REMARK    1  A    between atoms: C_1  and  C_2
REMARK    2  A    between atoms: C_2  and  C_3
REMARK    3  A    between atoms: C_3  and  C_4
REMARK    4  A    between atoms: C_4  and  C_5
REMARK    5  A    between atoms: C_4  and  C_8
REMARK    6  A    between atoms: C_5  and  C_6
REMARK    7  A    between atoms: C_6  and  C_7
REMARK    8  A    between atoms: C_8  and  O_10
REMARK    9  A    between atoms: O_10  and  N_11
REMARK   10  A    between atoms: C_12  and  C_13
REMARK   11  A    between atoms: C_12  and  C_19
REMARK   12  A    between atoms: C_13  and  N_14
REMARK                            x       y       z     vdW  Elec       q    Type
REMARK                         _______ _______ _______ _____ _____    ______ ____
ROOT
ATOM      1  N   UNL     1       3.660   6.231  18.269  0.00  0.00    +0.000 NA
ATOM      2  C   UNL     1       2.924   6.275  19.331  0.00  0.00    +0.000 C 
ENDROOT
BRANCH   2   3
ATOM      3  C   UNL     1       2.105   7.510  19.571  0.00  0.00    +0.000 A 
ATOM      4  C   UNL     1       1.941   8.497  18.575  0.00  0.00    +0.000 A 
ATOM      5  C   UNL     1       1.196   9.652  18.825  0.00  0.00    +0.000 A 
ATOM      6  C   UNL     1       0.591   9.847  20.072  0.00  0.00    +0.000 A 
ATOM      7  C   UNL     1      -0.152  11.008  20.334  0.00  0.00    +0.000 A 
ATOM      8  C   UNL     1      -0.753  11.188  21.583  0.00  0.00    +0.000 A 
ATOM      9  C   UNL     1      -0.618  10.214  22.575  0.00  0.00    +0.000 A 
ATOM     10  C   UNL     1       0.120   9.054  22.326  0.00  0.00    +0.000 A 
ATOM     11  C   UNL     1       0.731   8.862  21.077  0.00  0.00    +0.000 A 
ATOM     12  C   UNL     1       1.482   7.708  20.821  0.00  0.00    +0.000 A 
ENDBRANCH   2   3
BRANCH   1  13
ATOM     13  O   UNL     1       4.424   5.200  17.957  0.00  0.00    +0.000 OA
BRANCH  13  14
ATOM     14  C   UNL     1       5.769   5.249  18.137  0.00  0.00    +0.000 C 
ATOM     15  O   UNL     1       6.266   4.728  19.124  0.00  0.00    +0.000 OA
BRANCH  14  16
ATOM     16  C   UNL     1       6.668   5.898  17.093  0.00  0.00    +0.000 C 
BRANCH  16  17
ATOM     17  C   UNL     1       7.697   6.821  17.802  0.00  0.00    +0.000 C 
BRANCH  17  19
ATOM     18  C   UNL     1       8.504   9.159  18.303  0.00  0.00    +0.000 C 
ATOM     19  C   UNL     1       7.477   8.321  17.547  0.00  0.00    +0.000 C 
ENDBRANCH  17  19
ENDBRANCH  16  17
BRANCH  16  20
ATOM     20  C   UNL     1       7.381   4.836  16.198  0.00  0.00    +0.000 C 
BRANCH  20  21
ATOM     21  C   UNL     1       6.933   4.766  14.722  0.00  0.00    +0.000 C 
ATOM     22  C   UNL     1       5.467   4.365  14.554  0.00  0.00    +0.000 C 
ENDBRANCH  20  21
ENDBRANCH  16  20
ENDBRANCH  14  16
ENDBRANCH  13  14
ENDBRANCH   1  13
BRANCH   2  23
ATOM     23  C   UNL     1       2.898   5.115  20.321  0.00  0.00    +0.000 C 
BRANCH  23  24
ATOM     24  N   UNL     1       2.243   3.927  19.764  0.00  0.00    +0.000 N 
ATOM     25  C   UNL     1       2.723   2.672  19.804  0.00  0.00    +0.000 A 
ATOM     26  N   UNL     1       1.863   1.815  19.222  0.00  0.00    +0.000 NA
ATOM     27  C   UNL     1       0.848   2.612  18.828  0.00  0.00    +0.000 A 
ATOM     28  N   UNL     1       1.071   3.900  19.151  0.00  0.00    +0.000 NA
ENDBRANCH  23  24
ENDBRANCH   2  23
TORSDOF 10
ENDMDL
MODEL 8
REMARK VINA RESULT:      -8.0      0.911      1.108
REMARK  Name = 
REMARK  12 active torsions:
REMARK  status: ('A' for Active; 'I' for Inactive)
REMARK    1  A    between atoms: C_1  and  C_2
REMARK    2  A    between atoms: C_2  and  C_3
REMARK    3  A    between atoms: C_3  and  C_4
REMARK    4  A    between atoms: C_4  and  C_5
REMARK    5  A    between atoms: C_4  and  C_8
REMARK    6  A    between atoms: C_5  and  C_6
REMARK    7  A    between atoms: C_6  and  C_7
REMARK    8  A    between atoms: C_8  and  O_10
REMARK    9  A    between atoms: O_10  and  N_11
REMARK   10  A    between atoms: C_12  and  C_13
REMARK   11  A    between atoms: C_12  and  C_19
REMARK   12  A    between atoms: C_13  and  N_14
REMARK                            x       y       z     vdW  Elec       q    Type
REMARK                         _______ _______ _______ _____ _____    ______ ____
ROOT
ATOM      1  N   UNL     1       3.911   6.229  19.654  0.00  0.00    +0.000 NA
ATOM      2  C   UNL     1       2.783   6.462  19.067  0.00  0.00    +0.000 C 
ENDROOT
BRANCH   2   3
ATOM      3  C   UNL     1       2.009   7.678  19.484  0.00  0.00    +0.000 A 
ATOM      4  C   UNL     1       1.796   8.761  18.604  0.00  0.00    +0.000 A 
ATOM      5  C   UNL     1       1.096   9.896  19.017  0.00  0.00    +0.000 A 
ATOM      6  C   UNL     1       0.584   9.976  20.317  0.00  0.00    +0.000 A 
ATOM      7  C   UNL     1      -0.114  11.116  20.743  0.00  0.00    +0.000 A 
ATOM      8  C   UNL     1      -0.623  11.181  22.044  0.00  0.00    +0.000 A 
ATOM      9  C   UNL     1      -0.439  10.112  22.924  0.00  0.00    +0.000 A 
ATOM     10  C   UNL     1       0.255   8.972  22.511  0.00  0.00    +0.000 A 
ATOM     11  C   UNL     1       0.773   8.896  21.209  0.00  0.00    +0.000 A 
ATOM     12  C   UNL     1       1.479   7.761  20.789  0.00  0.00    +0.000 A 
ENDBRANCH   2   3
BRANCH   1  13
ATOM     13  O   UNL     1       4.675   5.188  19.374  0.00  0.00    +0.000 OA
BRANCH  13  14
ATOM     14  C   UNL     1       5.863   5.346  18.736  0.00  0.00    +0.000 C 
ATOM     15  O   UNL     1       6.794   4.600  18.998  0.00  0.00    +0.000 OA
BRANCH  14  16
ATOM     16  C   UNL     1       6.028   6.408  17.656  0.00  0.00    +0.000 C 
BRANCH  16  17
ATOM     17  C   UNL     1       7.522   6.822  17.568  0.00  0.00    +0.000 C 
BRANCH  17  19
ATOM     18  C   UNL     1       8.593   8.841  18.640  0.00  0.00    +0.000 C 
ATOM     19  C   UNL     1       7.750   8.339  17.471  0.00  0.00    +0.000 C 
ENDBRANCH  17  19
ENDBRANCH  16  17
BRANCH  16  20
ATOM     20  C   UNL     1       5.491   5.921  16.274  0.00  0.00    +0.000 C 
BRANCH  20  21
ATOM     21  C   UNL     1       6.498   5.189  15.362  0.00  0.00    +0.000 C 
ATOM     22  C   UNL     1       6.083   3.754  15.033  0.00  0.00    +0.000 C 
ENDBRANCH  20  21
ENDBRANCH  16  20
ENDBRANCH  14  16
ENDBRANCH  13  14
ENDBRANCH   1  13
BRANCH   2  23
ATOM     23  C   UNL     1       2.243   5.521  17.995  0.00  0.00    +0.000 C 
BRANCH  23  24
ATOM     24  N   UNL     1       1.699   4.284  18.566  0.00  0.00    +0.000 N 
ATOM     25  C   UNL     1       1.289   4.118  19.834  0.00  0.00    +0.000 A 
ATOM     26  N   UNL     1       0.825   2.869  20.024  0.00  0.00    +0.000 NA
ATOM     27  C   UNL     1       0.977   2.292  18.813  0.00  0.00    +0.000 A 
ATOM     28  N   UNL     1       1.512   3.145  17.919  0.00  0.00    +0.000 NA
ENDBRANCH  23  24
ENDBRANCH   2  23
TORSDOF 10
ENDMDL
MODEL 9
REMARK VINA RESULT:      -8.0      1.547      2.051
REMARK  Name = 
REMARK  12 active torsions:
REMARK  status: ('A' for Active; 'I' for Inactive)
REMARK    1  A    between atoms: C_1  and  C_2
REMARK    2  A    between atoms: C_2  and  C_3
REMARK    3  A    between atoms: C_3  and  C_4
REMARK    4  A    between atoms: C_4  and  C_5
REMARK    5  A    between atoms: C_4  and  C_8
REMARK    6  A    between atoms: C_5  and  C_6
REMARK    7  A    between atoms: C_6  and  C_7
REMARK    8  A    between atoms: C_8  and  O_10
REMARK    9  A    between atoms: O_10  and  N_11
REMARK   10  A    between atoms: C_12  and  C_13
REMARK   11  A    between atoms: C_12  and  C_19
REMARK   12  A    between atoms: C_13  and  N_14
REMARK                            x       y       z     vdW  Elec       q    Type
REMARK                         _______ _______ _______ _____ _____    ______ ____
ROOT
ATOM      1  N   UNL     1       3.668   6.824  17.463  0.00  0.00    +0.000 NA
ATOM      2  C   UNL     1       3.096   6.695  18.615  0.00  0.00    +0.000 C 
ENDROOT
BRANCH   2   3
ATOM      3  C   UNL     1       2.190   7.797  19.080  0.00  0.00    +0.000 A 
ATOM      4  C   UNL     1       1.737   8.806  18.203  0.00  0.00    +0.000 A 
ATOM      5  C   UNL     1       0.916   9.839  18.659  0.00  0.00    +0.000 A 
ATOM      6  C   UNL     1       0.519   9.886  20.001  0.00  0.00    +0.000 A 
ATOM      7  C   UNL     1      -0.301  10.924  20.469  0.00  0.00    +0.000 A 
ATOM      8  C   UNL     1      -0.692  10.957  21.810  0.00  0.00    +0.000 A 
ATOM      9  C   UNL     1      -0.270   9.957  22.690  0.00  0.00    +0.000 A 
ATOM     10  C   UNL     1       0.547   8.919  22.235  0.00  0.00    +0.000 A 
ATOM     11  C   UNL     1       0.949   8.876  20.891  0.00  0.00    +0.000 A 
ATOM     12  C   UNL     1       1.776   7.845  20.427  0.00  0.00    +0.000 A 
ENDBRANCH   2   3
BRANCH   1  13
ATOM     13  O   UNL     1       4.488   5.922  16.954  0.00  0.00    +0.000 OA
BRANCH  13  14
ATOM     14  C   UNL     1       5.398   6.263  16.006  0.00  0.00    +0.000 C 
ATOM     15  O   UNL     1       5.073   7.009  15.095  0.00  0.00    +0.000 OA
BRANCH  14  16
ATOM     16  C   UNL     1       6.836   5.768  16.099  0.00  0.00    +0.000 C 
BRANCH  16  17
ATOM     17  C   UNL     1       7.095   5.207  17.524  0.00  0.00    +0.000 C 
BRANCH  17  19
ATOM     18  C   UNL     1       8.037   5.580  19.836  0.00  0.00    +0.000 C 
ATOM     19  C   UNL     1       7.651   6.242  18.516  0.00  0.00    +0.000 C 
ENDBRANCH  17  19
ENDBRANCH  16  17
BRANCH  16  20
ATOM     20  C   UNL     1       7.158   4.705  15.002  0.00  0.00    +0.000 C 
BRANCH  20  21
ATOM     21  C   UNL     1       5.969   3.868  14.484  0.00  0.00    +0.000 C 
ATOM     22  C   UNL     1       6.012   3.628  12.974  0.00  0.00    +0.000 C 
ENDBRANCH  20  21
ENDBRANCH  16  20
ENDBRANCH  14  16
ENDBRANCH  13  14
ENDBRANCH   1  13
BRANCH   2  23
ATOM     23  C   UNL     1       3.345   5.467  19.486  0.00  0.00    +0.000 C 
BRANCH  23  24
ATOM     24  N   UNL     1       2.342   4.420  19.266  0.00  0.00    +0.000 N 
ATOM     25  C   UNL     1       1.736   4.144  18.099  0.00  0.00    +0.000 A 
ATOM     26  N   UNL     1       0.887   3.109  18.237  0.00  0.00    +0.000 NA
ATOM     27  C   UNL     1       1.007   2.779  19.540  0.00  0.00    +0.000 A 
ATOM     28  N   UNL     1       1.889   3.573  20.176  0.00  0.00    +0.000 NA
ENDBRANCH  23  24
ENDBRANCH   2  23
TORSDOF 10
ENDMDL
