MODEL 1
REMARK VINA RESULT:      -8.0      0.000      0.000
REMARK  Name = 
REMARK  6 active torsions:
REMARK  status: ('A' for Active; 'I' for Inactive)
REMARK    1  A    between atoms: N_3  and  C_4
REMARK    2  A    between atoms: C_4  and  C_5
REMARK    3  A    between atoms: C_5  and  C_6
REMARK    4  A    between atoms: N_9  and  C_10
REMARK    5  A    between atoms: C_10  and  C_11
REMARK    6  A    between atoms: C_20  and  C_22
REMARK                            x       y       z     vdW  Elec       q    Type
REMARK                         _______ _______ _______ _____ _____    ______ ____
ROOT
ATOM      1  C   UNL     1       6.895   4.442  17.432  0.00  0.00    +0.000 C 
ENDROOT
BRANCH   1   4
ATOM      2  O   UNL     1       8.343   5.281  19.744  0.00  0.00    +0.000 OA
ATOM      3  C   UNL     1       8.018   6.094  18.883  0.00  0.00    +0.000 C 
ATOM      4  N   UNL     1       7.334   5.777  17.749  0.00  0.00    +0.000 N 
ATOM      5  N   UNL     1       8.358   7.415  19.026  0.00  0.00    +0.000 N 
ATOM      6  C   UNL     1       8.169   8.439  18.115  0.00  0.00    +0.000 C 
ATOM      7  O   UNL     1       7.588   8.311  17.044  0.00  0.00    +0.000 OA
ATOM      8  H   UNL     1       7.101   6.544  17.121  0.00  0.00    +0.000 HD
ATOM      9  H   UNL     1       8.903   7.573  19.859  0.00  0.00    +0.000 HD
BRANCH   6  10
ATOM     10  C   UNL     1       8.742   9.765  18.477  0.00  0.00    +0.000 A 
ATOM     11  C   UNL     1       9.252   9.923  19.774  0.00  0.00    +0.000 A 
ATOM     12  C   UNL     1       9.779  11.148  20.179  0.00  0.00    +0.000 A 
ATOM     13  C   UNL     1       9.811  12.219  19.287  0.00  0.00    +0.000 A 
ATOM     14  C   UNL     1       9.331  12.062  17.987  0.00  0.00    +0.000 A 
ATOM     15  C   UNL     1       8.798  10.837  17.576  0.00  0.00    +0.000 A 
ENDBRANCH   6  10
ENDBRANCH   1   4
BRANCH   1  16
ATOM     16  C   UNL     1       5.478   4.159  17.938  0.00  0.00    +0.000 C 
BRANCH  16  17
ATOM     17  C   UNL     1       4.389   4.754  17.014  0.00  0.00    +0.000 C 
ATOM     18  C   UNL     1       4.404   6.285  16.966  0.00  0.00    +0.000 C 
ATOM     19  C   UNL     1       3.953   6.903  18.289  0.00  0.00    +0.000 C 
ATOM     20  N   UNL     1       2.589   6.480  18.644  0.00  0.00    +0.000 NA
ATOM     21  C   UNL     1       2.483   5.009  18.706  0.00  0.00    +0.000 C 
ATOM     22  C   UNL     1       2.976   4.313  17.428  0.00  0.00    +0.000 C 
BRANCH  20  23
ATOM     23  C   UNL     1       2.196   7.063  19.946  0.00  0.00    +0.000 C 
BRANCH  23  24
ATOM     24  C   UNL     1       1.494   8.408  19.859  0.00  0.00    +0.000 A 
ATOM     25  C   UNL     1       0.970   9.031  21.001  0.00  0.00    +0.000 A 
ATOM     26  C   UNL     1       0.354  10.284  20.909  0.00  0.00    +0.000 A 
ATOM     27  C   UNL     1       0.268  10.933  19.678  0.00  0.00    +0.000 A 
ATOM     28  C   UNL     1       0.776  10.322  18.534  0.00  0.00    +0.000 A 
ATOM     29  C   UNL     1       1.372   9.062  18.622  0.00  0.00    +0.000 A 
ENDBRANCH  23  24
ENDBRANCH  20  23
ENDBRANCH  16  17
ENDBRANCH   1  16
TORSDOF 6
ENDMDL
MODEL 2
REMARK VINA RESULT:      -7.9      3.303      7.122
REMARK  Name = 
REMARK  6 active torsions:
REMARK  status: ('A' for Active; 'I' for Inactive)
REMARK    1  A    between atoms: N_3  and  C_4
REMARK    2  A    between atoms: C_4  and  C_5
REMARK    3  A    between atoms: C_5  and  C_6
REMARK    4  A    between atoms: N_9  and  C_10
REMARK    5  A    between atoms: C_10  and  C_11
REMARK    6  A    between atoms: C_20  and  C_22
REMARK                            x       y       z     vdW  Elec       q    Type
REMARK                         _______ _______ _______ _____ _____    ______ ____
ROOT
ATOM      1  C   UNL     1       2.081   5.146  20.923  0.00  0.00    +0.000 C 
ENDROOT
BRANCH   1   4
ATOM      2  O   UNL     1       2.904   7.009  18.923  0.00  0.00    +0.000 OA
ATOM      3  C   UNL     1       2.087   7.335  19.780  0.00  0.00    +0.000 C 
ATOM      4  N   UNL     1       1.637   6.508  20.764  0.00  0.00    +0.000 N 
ATOM      5  N   UNL     1       1.558   8.601  19.776  0.00  0.00    +0.000 N 
ATOM      6  C   UNL     1       0.559   9.101  20.592  0.00  0.00    +0.000 C 
ATOM      7  O   UNL     1       0.040   8.477  21.509  0.00  0.00    +0.000 OA
ATOM      8  H   UNL     1       0.976   6.901  21.431  0.00  0.00    +0.000 HD
ATOM      9  H   UNL     1       1.895   9.144  18.997  0.00  0.00    +0.000 HD
BRANCH   6  10
ATOM     10  C   UNL     1       0.087  10.482  20.295  0.00  0.00    +0.000 A 
ATOM     11  C   UNL     1       0.805  11.550  20.851  0.00  0.00    +0.000 A 
ATOM     12  C   UNL     1       0.399  12.865  20.628  0.00  0.00    +0.000 A 
ATOM     13  C   UNL     1      -0.721  13.120  19.837  0.00  0.00    +0.000 A 
ATOM     14  C   UNL     1      -1.424  12.064  19.258  0.00  0.00    +0.000 A 
ATOM     15  C   UNL     1      -1.022  10.744  19.481  0.00  0.00    +0.000 A 
ENDBRANCH   6  10
ENDBRANCH   1   4
BRANCH   1  16
ATOM     16  C   UNL     1       1.251   4.161  20.095  0.00  0.00    +0.000 C 
BRANCH  16  17
ATOM     17  C   UNL     1       1.980   2.816  19.868  0.00  0.00    +0.000 C 
ATOM     18  C   UNL     1       3.496   2.906  20.074  0.00  0.00    +0.000 C 
ATOM     19  C   UNL     1       4.174   3.728  18.980  0.00  0.00    +0.000 C 
ATOM     20  N   UNL     1       3.937   3.151  17.647  0.00  0.00    +0.000 NA
ATOM     21  C   UNL     1       2.493   3.022  17.368  0.00  0.00    +0.000 C 
ATOM     22  C   UNL     1       1.732   2.255  18.460  0.00  0.00    +0.000 C 
BRANCH  20  23
ATOM     23  C   UNL     1       4.572   3.990  16.606  0.00  0.00    +0.000 C 
BRANCH  23  24
ATOM     24  C   UNL     1       5.628   4.955  17.120  0.00  0.00    +0.000 A 
ATOM     25  C   UNL     1       6.753   4.498  17.822  0.00  0.00    +0.000 A 
ATOM     26  C   UNL     1       7.731   5.397  18.259  0.00  0.00    +0.000 A 
ATOM     27  C   UNL     1       7.604   6.758  17.989  0.00  0.00    +0.000 A 
ATOM     28  C   UNL     1       6.487   7.228  17.301  0.00  0.00    +0.000 A 
ATOM     29  C   UNL     1       5.500   6.333  16.881  0.00  0.00    +0.000 A 
ENDBRANCH  23  24
ENDBRANCH  20  23
ENDBRANCH  16  17
ENDBRANCH   1  16
TORSDOF 6
ENDMDL
MODEL 3
REMARK VINA RESULT:      -7.8      3.318      7.161
REMARK  Name = 
REMARK  6 active torsions:
REMARK  status: ('A' for Active; 'I' for Inactive)
REMARK    1  A    between atoms: N_3  and  C_4
REMARK    2  A    between atoms: C_4  and  C_5
REMARK    3  A    between atoms: C_5  and  C_6
REMARK    4  A    between atoms: N_9  and  C_10
REMARK    5  A    between atoms: C_10  and  C_11
REMARK    6  A    between atoms: C_20  and  C_22
REMARK                            x       y       z     vdW  Elec       q    Type
REMARK                         _______ _______ _______ _____ _____    ______ ____
ROOT
ATOM      1  C   UNL     1       2.093   5.185  20.976  0.00  0.00    +0.000 C 
ENDROOT
BRANCH   1   4
ATOM      2  O   UNL     1       2.857   6.986  18.898  0.00  0.00    +0.000 OA
ATOM      3  C   UNL     1       2.075   7.342  19.775  0.00  0.00    +0.000 C 
ATOM      4  N   UNL     1       1.654   6.545  20.796  0.00  0.00    +0.000 N 
ATOM      5  N   UNL     1       1.557   8.612  19.755  0.00  0.00    +0.000 N 
ATOM      6  C   UNL     1       0.593   9.143  20.593  0.00  0.00    +0.000 C 
ATOM      7  O   UNL     1       0.103   8.549  21.545  0.00  0.00    +0.000 OA
ATOM      8  H   UNL     1       1.022   6.963  21.476  0.00  0.00    +0.000 HD
ATOM      9  H   UNL     1       1.870   9.131  18.950  0.00  0.00    +0.000 HD
BRANCH   6  10
ATOM     10  C   UNL     1       0.123  10.521  20.276  0.00  0.00    +0.000 A 
ATOM     11  C   UNL     1       0.619  11.127  19.113  0.00  0.00    +0.000 A 
ATOM     12  C   UNL     1       0.234  12.424  18.776  0.00  0.00    +0.000 A 
ATOM     13  C   UNL     1      -0.658  13.118  19.593  0.00  0.00    +0.000 A 
ATOM     14  C   UNL     1      -1.177  12.511  20.737  0.00  0.00    +0.000 A 
ATOM     15  C   UNL     1      -0.792  11.212  21.081  0.00  0.00    +0.000 A 
ENDBRANCH   6  10
ENDBRANCH   1   4
BRANCH   1  16
ATOM     16  C   UNL     1       1.290   4.197  20.124  0.00  0.00    +0.000 C 
BRANCH  16  17
ATOM     17  C   UNL     1       2.025   2.849  19.931  0.00  0.00    +0.000 C 
ATOM     18  C   UNL     1       3.544   2.956  20.100  0.00  0.00    +0.000 C 
ATOM     19  C   UNL     1       4.191   3.741  18.960  0.00  0.00    +0.000 C 
ATOM     20  N   UNL     1       3.929   3.113  17.655  0.00  0.00    +0.000 NA
ATOM     21  C   UNL     1       2.480   2.965  17.414  0.00  0.00    +0.000 C 
ATOM     22  C   UNL     1       1.749   2.234  18.550  0.00  0.00    +0.000 C 
BRANCH  20  23
ATOM     23  C   UNL     1       4.535   3.917  16.571  0.00  0.00    +0.000 C 
BRANCH  23  24
ATOM     24  C   UNL     1       5.591   4.910  17.024  0.00  0.00    +0.000 A 
ATOM     25  C   UNL     1       5.415   6.291  16.849  0.00  0.00    +0.000 A 
ATOM     26  C   UNL     1       6.383   7.194  17.301  0.00  0.00    +0.000 A 
ATOM     27  C   UNL     1       7.529   6.729  17.945  0.00  0.00    +0.000 A 
ATOM     28  C   UNL     1       7.722   5.360  18.117  0.00  0.00    +0.000 A 
ATOM     29  C   UNL     1       6.765   4.457  17.648  0.00  0.00    +0.000 A 
ENDBRANCH  23  24
ENDBRANCH  20  23
ENDBRANCH  16  17
ENDBRANCH   1  16
TORSDOF 6
ENDMDL
MODEL 4
REMARK VINA RESULT:      -7.8      3.731      7.074
REMARK  Name = 
REMARK  6 active torsions:
REMARK  status: ('A' for Active; 'I' for Inactive)
REMARK    1  A    between atoms: N_3  and  C_4
REMARK    2  A    between atoms: C_4  and  C_5
REMARK    3  A    between atoms: C_5  and  C_6
REMARK    4  A    between atoms: N_9  and  C_10
REMARK    5  A    between atoms: C_10  and  C_11
REMARK    6  A    between atoms: C_20  and  C_22
REMARK                            x       y       z     vdW  Elec       q    Type
REMARK                         _______ _______ _______ _____ _____    ______ ____
ROOT
ATOM      1  C   UNL     1       3.297   6.609  17.726  0.00  0.00    +0.000 C 
ENDROOT
BRANCH   1   4
ATOM      2  O   UNL     1       2.105   9.128  17.110  0.00  0.00    +0.000 OA
ATOM      3  C   UNL     1       2.008   8.652  18.237  0.00  0.00    +0.000 C 
ATOM      4  N   UNL     1       2.539   7.456  18.612  0.00  0.00    +0.000 N 
ATOM      5  N   UNL     1       1.315   9.329  19.209  0.00  0.00    +0.000 N 
ATOM      6  C   UNL     1       1.017   8.897  20.489  0.00  0.00    +0.000 C 
ATOM      7  O   UNL     1       1.406   7.840  20.969  0.00  0.00    +0.000 OA
ATOM      8  H   UNL     1       2.411   7.178  19.583  0.00  0.00    +0.000 HD
ATOM      9  H   UNL     1       0.907  10.179  18.854  0.00  0.00    +0.000 HD
BRANCH   6  10
ATOM     10  C   UNL     1       0.144   9.787  21.304  0.00  0.00    +0.000 A 
ATOM     11  C   UNL     1      -0.331  10.962  20.704  0.00  0.00    +0.000 A 
ATOM     12  C   UNL     1      -1.133  11.846  21.424  0.00  0.00    +0.000 A 
ATOM     13  C   UNL     1      -1.473  11.556  22.745  0.00  0.00    +0.000 A 
ATOM     14  C   UNL     1      -1.027  10.376  23.340  0.00  0.00    +0.000 A 
ATOM     15  C   UNL     1      -0.220   9.488  22.623  0.00  0.00    +0.000 A 
ENDBRANCH   6  10
ENDBRANCH   1   4
BRANCH   1  16
ATOM     16  C   UNL     1       4.665   7.206  17.380  0.00  0.00    +0.000 C 
BRANCH  16  17
ATOM     17  C   UNL     1       5.673   6.135  16.900  0.00  0.00    +0.000 C 
ATOM     18  C   UNL     1       5.005   4.837  16.436  0.00  0.00    +0.000 C 
ATOM     19  C   UNL     1       4.382   4.068  17.601  0.00  0.00    +0.000 C 
ATOM     20  N   UNL     1       5.390   3.716  18.614  0.00  0.00    +0.000 NA
ATOM     21  C   UNL     1       6.091   4.915  19.112  0.00  0.00    +0.000 C 
ATOM     22  C   UNL     1       6.694   5.773  17.989  0.00  0.00    +0.000 C 
BRANCH  20  23
ATOM     23  C   UNL     1       4.751   3.007  19.745  0.00  0.00    +0.000 C 
BRANCH  23  24
ATOM     24  C   UNL     1       3.240   3.147  19.816  0.00  0.00    +0.000 A 
ATOM     25  C   UNL     1       2.639   4.203  20.519  0.00  0.00    +0.000 A 
ATOM     26  C   UNL     1       1.247   4.336  20.548  0.00  0.00    +0.000 A 
ATOM     27  C   UNL     1       0.441   3.426  19.865  0.00  0.00    +0.000 A 
ATOM     28  C   UNL     1       1.024   2.368  19.171  0.00  0.00    +0.000 A 
ATOM     29  C   UNL     1       2.413   2.223  19.158  0.00  0.00    +0.000 A 
ENDBRANCH  23  24
ENDBRANCH  20  23
ENDBRANCH  16  17
ENDBRANCH   1  16
TORSDOF 6
ENDMDL
MODEL 5
REMARK VINA RESULT:      -7.8      3.250      5.014
REMARK  Name = 
REMARK  6 active torsions:
REMARK  status: ('A' for Active; 'I' for Inactive)
REMARK    1  A    between atoms: N_3  and  C_4
REMARK    2  A    between atoms: C_4  and  C_5
REMARK    3  A    between atoms: C_5  and  C_6
REMARK    4  A    between atoms: N_9  and  C_10
REMARK    5  A    between atoms: C_10  and  C_11
REMARK    6  A    between atoms: C_20  and  C_22
REMARK                            x       y       z     vdW  Elec       q    Type
REMARK                         _______ _______ _______ _____ _____    ______ ____
ROOT
ATOM      1  C   UNL     1       8.472   8.697  18.340  0.00  0.00    +0.000 C 
ENDROOT
BRANCH   1   4
ATOM      2  O   UNL     1       9.973  10.349  20.120  0.00  0.00    +0.000 OA
ATOM      3  C   UNL     1       9.302  10.849  19.221  0.00  0.00    +0.000 C 
ATOM      4  N   UNL     1       8.564  10.135  18.327  0.00  0.00    +0.000 N 
ATOM      5  N   UNL     1       9.276  12.212  19.063  0.00  0.00    +0.000 N 
ATOM      6  C   UNL     1       8.666  12.933  18.052  0.00  0.00    +0.000 C 
ATOM      7  O   UNL     1       7.984  12.437  17.165  0.00  0.00    +0.000 OA
ATOM      8  H   UNL     1       8.030  10.666  17.641  0.00  0.00    +0.000 HD
ATOM      9  H   UNL     1       9.879  12.677  19.723  0.00  0.00    +0.000 HD
BRANCH   6  10
ATOM     10  C   UNL     1       8.894  14.405  18.055  0.00  0.00    +0.000 A 
ATOM     11  C   UNL     1       7.803  15.234  18.355  0.00  0.00    +0.000 A 
ATOM     12  C   UNL     1       7.949  16.620  18.351  0.00  0.00    +0.000 A 
ATOM     13  C   UNL     1       9.190  17.186  18.058  0.00  0.00    +0.000 A 
ATOM     14  C   UNL     1      10.286  16.368  17.786  0.00  0.00    +0.000 A 
ATOM     15  C   UNL     1      10.144  14.978  17.786  0.00  0.00    +0.000 A 
ENDBRANCH   6  10
ENDBRANCH   1   4
BRANCH   1  16
ATOM     16  C   UNL     1       7.316   8.179  17.479  0.00  0.00    +0.000 C 
BRANCH  16  17
ATOM     17  C   UNL     1       7.421   6.662  17.196  0.00  0.00    +0.000 C 
ATOM     18  C   UNL     1       6.174   6.083  16.519  0.00  0.00    +0.000 C 
ATOM     19  C   UNL     1       4.970   6.065  17.459  0.00  0.00    +0.000 C 
ATOM     20  N   UNL     1       5.239   5.263  18.664  0.00  0.00    +0.000 NA
ATOM     21  C   UNL     1       6.435   5.751  19.377  0.00  0.00    +0.000 C 
ATOM     22  C   UNL     1       7.676   5.853  18.478  0.00  0.00    +0.000 C 
BRANCH  20  23
ATOM     23  C   UNL     1       4.070   5.296  19.570  0.00  0.00    +0.000 C 
BRANCH  23  24
ATOM     24  C   UNL     1       2.992   4.269  19.263  0.00  0.00    +0.000 A 
ATOM     25  C   UNL     1       2.916   3.060  19.970  0.00  0.00    +0.000 A 
ATOM     26  C   UNL     1       1.899   2.140  19.697  0.00  0.00    +0.000 A 
ATOM     27  C   UNL     1       0.940   2.423  18.726  0.00  0.00    +0.000 A 
ATOM     28  C   UNL     1       1.009   3.616  18.009  0.00  0.00    +0.000 A 
ATOM     29  C   UNL     1       2.036   4.526  18.267  0.00  0.00    +0.000 A 
ENDBRANCH  23  24
ENDBRANCH  20  23
ENDBRANCH  16  17
ENDBRANCH   1  16
TORSDOF 6
ENDMDL
MODEL 6
REMARK VINA RESULT:      -7.7      3.706      7.016
REMARK  Name = 
REMARK  6 active torsions:
REMARK  status: ('A' for Active; 'I' for Inactive)
REMARK    1  A    between atoms: N_3  and  C_4
REMARK    2  A    between atoms: C_4  and  C_5
REMARK    3  A    between atoms: C_5  and  C_6
REMARK    4  A    between atoms: N_9  and  C_10
REMARK    5  A    between atoms: C_10  and  C_11
REMARK    6  A    between atoms: C_20  and  C_22
REMARK                            x       y       z     vdW  Elec       q    Type
REMARK                         _______ _______ _______ _____ _____    ______ ____
ROOT
ATOM      1  C   UNL     1       3.328   6.433  17.782  0.00  0.00    +0.000 C 
ENDROOT
BRANCH   1   4
ATOM      2  O   UNL     1       2.219   8.975  17.105  0.00  0.00    +0.000 OA
ATOM      3  C   UNL     1       2.085   8.518  18.237  0.00  0.00    +0.000 C 
ATOM      4  N   UNL     1       2.576   7.314  18.640  0.00  0.00    +0.000 N 
ATOM      5  N   UNL     1       1.393   9.229  19.184  0.00  0.00    +0.000 N 
ATOM      6  C   UNL     1       1.058   8.825  20.464  0.00  0.00    +0.000 C 
ATOM      7  O   UNL     1       1.407   7.764  20.967  0.00  0.00    +0.000 OA
ATOM      8  H   UNL     1       2.420   7.055  19.612  0.00  0.00    +0.000 HD
ATOM      9  H   UNL     1       1.016  10.085  18.809  0.00  0.00    +0.000 HD
BRANCH   6  10
ATOM     10  C   UNL     1       0.194   9.751  21.248  0.00  0.00    +0.000 A 
ATOM     11  C   UNL     1      -0.069   9.422  22.586  0.00  0.00    +0.000 A 
ATOM     12  C   UNL     1      -0.890  10.238  23.363  0.00  0.00    +0.000 A 
ATOM     13  C   UNL     1      -1.443  11.393  22.812  0.00  0.00    +0.000 A 
ATOM     14  C   UNL     1      -1.163  11.741  21.491  0.00  0.00    +0.000 A 
ATOM     15  C   UNL     1      -0.344  10.926  20.706  0.00  0.00    +0.000 A 
ENDBRANCH   6  10
ENDBRANCH   1   4
BRANCH   1  16
ATOM     16  C   UNL     1       4.565   7.114  17.190  0.00  0.00    +0.000 C 
BRANCH  16  17
ATOM     17  C   UNL     1       5.684   6.106  16.838  0.00  0.00    +0.000 C 
ATOM     18  C   UNL     1       5.152   4.747  16.373  0.00  0.00    +0.000 C 
ATOM     19  C   UNL     1       4.488   3.973  17.511  0.00  0.00    +0.000 C 
ATOM     20  N   UNL     1       5.427   3.731  18.617  0.00  0.00    +0.000 NA
ATOM     21  C   UNL     1       5.996   4.995  19.124  0.00  0.00    +0.000 C 
ATOM     22  C   UNL     1       6.631   5.857  18.022  0.00  0.00    +0.000 C 
BRANCH  20  23
ATOM     23  C   UNL     1       4.745   3.015  19.718  0.00  0.00    +0.000 C 
BRANCH  23  24
ATOM     24  C   UNL     1       3.232   3.158  19.734  0.00  0.00    +0.000 A 
ATOM     25  C   UNL     1       2.412   2.293  18.994  0.00  0.00    +0.000 A 
ATOM     26  C   UNL     1       1.019   2.418  19.045  0.00  0.00    +0.000 A 
ATOM     27  C   UNL     1       0.432   3.397  19.845  0.00  0.00    +0.000 A 
ATOM     28  C   UNL     1       1.235   4.268  20.578  0.00  0.00    +0.000 A 
ATOM     29  C   UNL     1       2.626   4.157  20.512  0.00  0.00    +0.000 A 
ENDBRANCH  23  24
ENDBRANCH  20  23
ENDBRANCH  16  17
ENDBRANCH   1  16
TORSDOF 6
ENDMDL
MODEL 7
REMARK VINA RESULT:      -7.7      3.933      5.238
REMARK  Name = 
REMARK  6 active torsions:
REMARK  status: ('A' for Active; 'I' for Inactive)
REMARK    1  A    between atoms: N_3  and  C_4
REMARK    2  A    between atoms: C_4  and  C_5
REMARK    3  A    between atoms: C_5  and  C_6
REMARK    4  A    between atoms: N_9  and  C_10
REMARK    5  A    between atoms: C_10  and  C_11
REMARK    6  A    between atoms: C_20  and  C_22
REMARK                            x       y       z     vdW  Elec       q    Type
REMARK                         _______ _______ _______ _____ _____    ______ ____
ROOT
ATOM      1  C   UNL     1       4.544   3.090  19.746  0.00  0.00    +0.000 C 
ENDROOT
BRANCH   1   4
ATOM      2  O   UNL     1       6.620   4.928  19.070  0.00  0.00    +0.000 OA
ATOM      3  C   UNL     1       6.005   4.331  18.191  0.00  0.00    +0.000 C 
ATOM      4  N   UNL     1       5.008   3.435  18.426  0.00  0.00    +0.000 N 
ATOM      5  N   UNL     1       6.320   4.542  16.872  0.00  0.00    +0.000 N 
ATOM      6  C   UNL     1       5.808   3.885  15.767  0.00  0.00    +0.000 C 
ATOM      7  O   UNL     1       4.921   3.042  15.814  0.00  0.00    +0.000 OA
ATOM      8  H   UNL     1       4.556   3.023  17.612  0.00  0.00    +0.000 HD
ATOM      9  H   UNL     1       7.096   5.177  16.769  0.00  0.00    +0.000 HD
BRANCH   6  10
ATOM     10  C   UNL     1       6.414   4.229  14.450  0.00  0.00    +0.000 A 
ATOM     11  C   UNL     1       5.953   3.539  13.320  0.00  0.00    +0.000 A 
ATOM     12  C   UNL     1       6.498   3.801  12.064  0.00  0.00    +0.000 A 
ATOM     13  C   UNL     1       7.499   4.763  11.928  0.00  0.00    +0.000 A 
ATOM     14  C   UNL     1       7.943   5.473  13.044  0.00  0.00    +0.000 A 
ATOM     15  C   UNL     1       7.402   5.212  14.306  0.00  0.00    +0.000 A 
ENDBRANCH   6  10
ENDBRANCH   1   4
BRANCH   1  16
ATOM     16  C   UNL     1       3.362   2.115  19.712  0.00  0.00    +0.000 C 
BRANCH  16  17
ATOM     17  C   UNL     1       2.038   2.775  20.163  0.00  0.00    +0.000 C 
ATOM     18  C   UNL     1       1.173   3.261  18.995  0.00  0.00    +0.000 C 
ATOM     19  C   UNL     1       1.799   4.456  18.279  0.00  0.00    +0.000 C 
ATOM     20  N   UNL     1       1.993   5.592  19.195  0.00  0.00    +0.000 NA
ATOM     21  C   UNL     1       2.815   5.207  20.359  0.00  0.00    +0.000 C 
ATOM     22  C   UNL     1       2.277   3.971  21.097  0.00  0.00    +0.000 C 
BRANCH  20  23
ATOM     23  C   UNL     1       2.635   6.719  18.483  0.00  0.00    +0.000 C 
BRANCH  23  24
ATOM     24  C   UNL     1       2.060   8.089  18.802  0.00  0.00    +0.000 A 
ATOM     25  C   UNL     1       2.054   9.117  17.847  0.00  0.00    +0.000 A 
ATOM     26  C   UNL     1       1.492  10.362  18.147  0.00  0.00    +0.000 A 
ATOM     27  C   UNL     1       0.917  10.589  19.397  0.00  0.00    +0.000 A 
ATOM     28  C   UNL     1       0.925   9.580  20.358  0.00  0.00    +0.000 A 
ATOM     29  C   UNL     1       1.504   8.343  20.066  0.00  0.00    +0.000 A 
ENDBRANCH  23  24
ENDBRANCH  20  23
ENDBRANCH  16  17
ENDBRANCH   1  16
TORSDOF 6
ENDMDL
MODEL 8
REMARK VINA RESULT:      -7.7      4.179      8.368
REMARK  Name = 
REMARK  6 active torsions:
REMARK  status: ('A' for Active; 'I' for Inactive)
REMARK    1  A    between atoms: N_3  and  C_4
REMARK    2  A    between atoms: C_4  and  C_5
REMARK    3  A    between atoms: C_5  and  C_6
REMARK    4  A    between atoms: N_9  and  C_10
REMARK    5  A    between atoms: C_10  and  C_11
REMARK    6  A    between atoms: C_20  and  C_22
REMARK                            x       y       z     vdW  Elec       q    Type
REMARK                         _______ _______ _______ _____ _____    ______ ____
ROOT
ATOM      1  C   UNL     1       2.827   6.875  18.543  0.00  0.00    +0.000 C 
ENDROOT
BRANCH   1   4
ATOM      2  O   UNL     1       1.833   9.335  17.490  0.00  0.00    +0.000 OA
ATOM      3  C   UNL     1       1.603   9.017  18.653  0.00  0.00    +0.000 C 
ATOM      4  N   UNL     1       2.032   7.861  19.231  0.00  0.00    +0.000 N 
ATOM      5  N   UNL     1       0.857   9.844  19.454  0.00  0.00    +0.000 N 
ATOM      6  C   UNL     1       0.416   9.599  20.743  0.00  0.00    +0.000 C 
ATOM      7  O   UNL     1       0.701   8.600  21.391  0.00  0.00    +0.000 OA
ATOM      8  H   UNL     1       1.798   7.721  20.212  0.00  0.00    +0.000 HD
ATOM      9  H   UNL     1       0.530  10.655  18.953  0.00  0.00    +0.000 HD
BRANCH   6  10
ATOM     10  C   UNL     1      -0.483  10.623  21.343  0.00  0.00    +0.000 A 
ATOM     11  C   UNL     1      -1.004  11.611  20.496  0.00  0.00    +0.000 A 
ATOM     12  C   UNL     1      -1.832  12.611  21.004  0.00  0.00    +0.000 A 
ATOM     13  C   UNL     1      -2.154  12.622  22.361  0.00  0.00    +0.000 A 
ATOM     14  C   UNL     1      -1.661  11.627  23.206  0.00  0.00    +0.000 A 
ATOM     15  C   UNL     1      -0.828  10.624  22.701  0.00  0.00    +0.000 A 
ENDBRANCH   6  10
ENDBRANCH   1   4
BRANCH   1  16
ATOM     16  C   UNL     1       3.473   5.874  19.505  0.00  0.00    +0.000 C 
BRANCH  16  17
ATOM     17  C   UNL     1       3.561   4.450  18.907  0.00  0.00    +0.000 C 
ATOM     18  C   UNL     1       4.918   3.777  19.138  0.00  0.00    +0.000 C 
ATOM     19  C   UNL     1       6.030   4.441  18.329  0.00  0.00    +0.000 C 
ATOM     20  N   UNL     1       5.748   4.394  16.885  0.00  0.00    +0.000 NA
ATOM     21  C   UNL     1       4.448   5.019  16.573  0.00  0.00    +0.000 C 
ATOM     22  C   UNL     1       3.286   4.441  17.395  0.00  0.00    +0.000 C 
BRANCH  20  23
ATOM     23  C   UNL     1       6.823   5.078  16.132  0.00  0.00    +0.000 C 
BRANCH  23  24
ATOM     24  C   UNL     1       6.888   4.732  14.654  0.00  0.00    +0.000 A 
ATOM     25  C   UNL     1       6.086   3.719  14.107  0.00  0.00    +0.000 A 
ATOM     26  C   UNL     1       6.135   3.435  12.738  0.00  0.00    +0.000 A 
ATOM     27  C   UNL     1       6.973   4.168  11.899  0.00  0.00    +0.000 A 
ATOM     28  C   UNL     1       7.782   5.170  12.431  0.00  0.00    +0.000 A 
ATOM     29  C   UNL     1       7.749   5.441  13.800  0.00  0.00    +0.000 A 
ENDBRANCH  23  24
ENDBRANCH  20  23
ENDBRANCH  16  17
ENDBRANCH   1  16
TORSDOF 6
ENDMDL
MODEL 9
REMARK VINA RESULT:      -7.6      2.876      4.052
REMARK  Name = 
REMARK  6 active torsions:
REMARK  status: ('A' for Active; 'I' for Inactive)
REMARK    1  A    between atoms: N_3  and  C_4
REMARK    2  A    between atoms: C_4  and  C_5
REMARK    3  A    between atoms: C_5  and  C_6
REMARK    4  A    between atoms: N_9  and  C_10
REMARK    5  A    between atoms: C_10  and  C_11
REMARK    6  A    between atoms: C_20  and  C_22
REMARK                            x       y       z     vdW  Elec       q    Type
REMARK                         _______ _______ _______ _____ _____    ______ ____
ROOT
ATOM      1  C   UNL     1       6.450   7.168  17.181  0.00  0.00    +0.000 C 
ENDROOT
BRANCH   1   4
ATOM      2  O   UNL     1       8.565   7.003  19.091  0.00  0.00    +0.000 OA
ATOM      3  C   UNL     1       8.293   8.073  18.552  0.00  0.00    +0.000 C 
ATOM      4  N   UNL     1       7.307   8.236  17.628  0.00  0.00    +0.000 N 
ATOM      5  N   UNL     1       9.014   9.198  18.863  0.00  0.00    +0.000 N 
ATOM      6  C   UNL     1       8.916  10.450  18.282  0.00  0.00    +0.000 C 
ATOM      7  O   UNL     1       8.094  10.751  17.426  0.00  0.00    +0.000 OA
ATOM      8  H   UNL     1       7.162   9.179  17.270  0.00  0.00    +0.000 HD
ATOM      9  H   UNL     1       9.757   8.999  19.514  0.00  0.00    +0.000 HD
BRANCH   6  10
ATOM     10  C   UNL     1       9.906  11.469  18.730  0.00  0.00    +0.000 A 
ATOM     11  C   UNL     1       9.739  12.785  18.274  0.00  0.00    +0.000 A 
ATOM     12  C   UNL     1      10.646  13.777  18.640  0.00  0.00    +0.000 A 
ATOM     13  C   UNL     1      11.719  13.464  19.474  0.00  0.00    +0.000 A 
ATOM     14  C   UNL     1      11.876  12.163  19.954  0.00  0.00    +0.000 A 
ATOM     15  C   UNL     1      10.971  11.164  19.587  0.00  0.00    +0.000 A 
ENDBRANCH   6  10
ENDBRANCH   1   4
BRANCH   1  16
ATOM     16  C   UNL     1       7.120   6.291  16.118  0.00  0.00    +0.000 C 
BRANCH  16  17
ATOM     17  C   UNL     1       7.195   4.804  16.539  0.00  0.00    +0.000 C 
ATOM     18  C   UNL     1       6.419   3.869  15.605  0.00  0.00    +0.000 C 
ATOM     19  C   UNL     1       4.909   4.070  15.721  0.00  0.00    +0.000 C 
ATOM     20  N   UNL     1       4.436   3.826  17.093  0.00  0.00    +0.000 NA
ATOM     21  C   UNL     1       5.141   4.685  18.064  0.00  0.00    +0.000 C 
ATOM     22  C   UNL     1       6.671   4.581  17.966  0.00  0.00    +0.000 C 
BRANCH  20  23
ATOM     23  C   UNL     1       2.979   4.065  17.182  0.00  0.00    +0.000 C 
BRANCH  23  24
ATOM     24  C   UNL     1       2.361   3.758  18.536  0.00  0.00    +0.000 A 
ATOM     25  C   UNL     1       2.338   2.451  19.046  0.00  0.00    +0.000 A 
ATOM     26  C   UNL     1       1.795   2.190  20.308  0.00  0.00    +0.000 A 
ATOM     27  C   UNL     1       1.281   3.232  21.079  0.00  0.00    +0.000 A 
ATOM     28  C   UNL     1       1.288   4.533  20.581  0.00  0.00    +0.000 A 
ATOM     29  C   UNL     1       1.812   4.791  19.313  0.00  0.00    +0.000 A 
ENDBRANCH  23  24
ENDBRANCH  20  23
ENDBRANCH  16  17
ENDBRANCH   1  16
TORSDOF 6
ENDMDL
