MODEL 1
REMARK VINA RESULT:      -6.7      0.000      0.000
REMARK  Name = 
REMARK  5 active torsions:
REMARK  status: ('A' for Active; 'I' for Inactive)
REMARK    1  A    between atoms: C_1  and  N_2
REMARK    2  A    between atoms: N_2  and  C_3
REMARK    3  A    between atoms: C_4  and  O_6
REMARK    4  A    between atoms: O_6  and  C_7
REMARK    5  A    between atoms: C_10  and  N_11
REMARK                            x       y       z     vdW  Elec       q    Type
REMARK                         _______ _______ _______ _____ _____    ______ ____
ROOT
ATOM      1  C   UNL     1       3.349   4.899  17.672  0.00  0.00    +0.000 A 
ATOM      2  C   UNL     1       3.814   3.731  17.059  0.00  0.00    +0.000 A 
ATOM      3  C   UNL     1       5.091   3.702  16.506  0.00  0.00    +0.000 A 
ATOM      4  C   UNL     1       5.897   4.847  16.595  0.00  0.00    +0.000 A 
ATOM      5  C   UNL     1       5.446   6.013  17.217  0.00  0.00    +0.000 A 
ATOM      6 CL   UNL     1       6.422   7.423  17.415  0.00  0.00    +0.000 Cl
ATOM      7  C   UNL     1       4.157   6.037  17.761  0.00  0.00    +0.000 A 
ENDROOT
BRANCH   4   8
ATOM      8  N   UNL     1       7.233   4.763  16.051  0.00  0.00    +0.000 N 
ATOM      9  O   UNL     1       7.413   5.274  14.936  0.00  0.00    +0.000 OA
ATOM     10  O   UNL     1       8.106   4.243  16.757  0.00  0.00    +0.000 OA
ENDBRANCH   4   8
BRANCH   1  11
ATOM     11  O   UNL     1       2.111   4.928  18.339  0.00  0.00    +0.000 OA
BRANCH  11  15
ATOM     12  C   UNL     1       1.215   2.894  21.234  0.00  0.00    +0.000 C 
ATOM     13  N   UNL     1       1.491   3.308  19.873  0.00  0.00    +0.000 N 
ATOM     14  C   UNL     1       0.909   2.562  18.773  0.00  0.00    +0.000 C 
ATOM     15  C   UNL     1       2.087   4.547  19.683  0.00  0.00    +0.000 C 
ATOM     16  O   UNL     1       2.505   5.243  20.603  0.00  0.00    +0.000 OA
ENDBRANCH  11  15
ENDBRANCH   1  11
TORSDOF 3
ENDMDL
MODEL 2
REMARK VINA RESULT:      -6.6      0.867      1.341
REMARK  Name = 
REMARK  5 active torsions:
REMARK  status: ('A' for Active; 'I' for Inactive)
REMARK    1  A    between atoms: C_1  and  N_2
REMARK    2  A    between atoms: N_2  and  C_3
REMARK    3  A    between atoms: C_4  and  O_6
REMARK    4  A    between atoms: O_6  and  C_7
REMARK    5  A    between atoms: C_10  and  N_11
REMARK                            x       y       z     vdW  Elec       q    Type
REMARK                         _______ _______ _______ _____ _____    ______ ____
ROOT
ATOM      1  C   UNL     1       3.337   5.060  17.554  0.00  0.00    +0.000 A 
ATOM      2  C   UNL     1       3.786   3.832  17.059  0.00  0.00    +0.000 A 
ATOM      3  C   UNL     1       5.099   3.704  16.616  0.00  0.00    +0.000 A 
ATOM      4  C   UNL     1       5.955   4.813  16.695  0.00  0.00    +0.000 A 
ATOM      5  C   UNL     1       5.518   6.039  17.201  0.00  0.00    +0.000 A 
ATOM      6 CL   UNL     1       6.549   7.412  17.384  0.00  0.00    +0.000 Cl
ATOM      7  C   UNL     1       4.194   6.162  17.635  0.00  0.00    +0.000 A 
ENDROOT
BRANCH   4   8
ATOM      8  N   UNL     1       7.323   4.628  16.269  0.00  0.00    +0.000 N 
ATOM      9  O   UNL     1       7.593   4.957  15.104  0.00  0.00    +0.000 OA
ATOM     10  O   UNL     1       8.132   4.214  17.107  0.00  0.00    +0.000 OA
ENDBRANCH   4   8
BRANCH   1  11
ATOM     11  O   UNL     1       2.053   5.194  18.115  0.00  0.00    +0.000 OA
BRANCH  11  15
ATOM     12  C   UNL     1       1.177   2.877  20.795  0.00  0.00    +0.000 C 
ATOM     13  N   UNL     1       1.548   4.084  20.083  0.00  0.00    +0.000 N 
ATOM     14  C   UNL     1       2.219   5.152  20.799  0.00  0.00    +0.000 C 
ATOM     15  C   UNL     1       1.477   4.062  18.697  0.00  0.00    +0.000 C 
ATOM     16  O   UNL     1       0.999   3.129  18.059  0.00  0.00    +0.000 OA
ENDBRANCH  11  15
ENDBRANCH   1  11
TORSDOF 3
ENDMDL
MODEL 3
REMARK VINA RESULT:      -6.6      1.724      2.248
REMARK  Name = 
REMARK  5 active torsions:
REMARK  status: ('A' for Active; 'I' for Inactive)
REMARK    1  A    between atoms: C_1  and  N_2
REMARK    2  A    between atoms: N_2  and  C_3
REMARK    3  A    between atoms: C_4  and  O_6
REMARK    4  A    between atoms: O_6  and  C_7
REMARK    5  A    between atoms: C_10  and  N_11
REMARK                            x       y       z     vdW  Elec       q    Type
REMARK                         _______ _______ _______ _____ _____    ______ ____
ROOT
ATOM      1  C   UNL     1       3.469   4.051  18.045  0.00  0.00    +0.000 A 
ATOM      2  C   UNL     1       4.412   4.434  19.005  0.00  0.00    +0.000 A 
ATOM      3  C   UNL     1       5.712   4.737  18.612  0.00  0.00    +0.000 A 
ATOM      4  C   UNL     1       6.046   4.669  17.251  0.00  0.00    +0.000 A 
ATOM      5  C   UNL     1       5.107   4.301  16.286  0.00  0.00    +0.000 A 
ATOM      6 CL   UNL     1       5.447   4.270  14.593  0.00  0.00    +0.000 Cl
ATOM      7  C   UNL     1       3.804   3.988  16.690  0.00  0.00    +0.000 A 
ENDROOT
BRANCH   4   8
ATOM      8  N   UNL     1       7.392   5.036  16.879  0.00  0.00    +0.000 N 
ATOM      9  O   UNL     1       8.280   4.200  17.104  0.00  0.00    +0.000 OA
ATOM     10  O   UNL     1       7.553   6.124  16.313  0.00  0.00    +0.000 OA
ENDBRANCH   4   8
BRANCH   1  11
ATOM     11  O   UNL     1       2.119   3.849  18.391  0.00  0.00    +0.000 OA
BRANCH  11  15
ATOM     12  C   UNL     1       1.288   2.618  21.724  0.00  0.00    +0.000 C 
ATOM     13  N   UNL     1       1.412   3.478  20.564  0.00  0.00    +0.000 N 
ATOM     14  C   UNL     1       1.355   4.917  20.737  0.00  0.00    +0.000 C 
ATOM     15  C   UNL     1       1.835   2.900  19.375  0.00  0.00    +0.000 C 
ATOM     16  O   UNL     1       1.982   1.690  19.227  0.00  0.00    +0.000 OA
ENDBRANCH  11  15
ENDBRANCH   1  11
TORSDOF 3
ENDMDL
MODEL 4
REMARK VINA RESULT:      -6.4      1.319      1.602
REMARK  Name = 
REMARK  5 active torsions:
REMARK  status: ('A' for Active; 'I' for Inactive)
REMARK    1  A    between atoms: C_1  and  N_2
REMARK    2  A    between atoms: N_2  and  C_3
REMARK    3  A    between atoms: C_4  and  O_6
REMARK    4  A    between atoms: O_6  and  C_7
REMARK    5  A    between atoms: C_10  and  N_11
REMARK                            x       y       z     vdW  Elec       q    Type
REMARK                         _______ _______ _______ _____ _____    ______ ____
ROOT
ATOM      1  C   UNL     1       3.394   4.463  17.847  0.00  0.00    +0.000 A 
ATOM      2  C   UNL     1       3.739   4.073  16.549  0.00  0.00    +0.000 A 
ATOM      3  C   UNL     1       5.055   4.202  16.116  0.00  0.00    +0.000 A 
ATOM      4  C   UNL     1       6.018   4.705  17.005  0.00  0.00    +0.000 A 
ATOM      5  C   UNL     1       5.683   5.083  18.307  0.00  0.00    +0.000 A 
ATOM      6 CL   UNL     1       6.841   5.641  19.461  0.00  0.00    +0.000 Cl
ATOM      7  C   UNL     1       4.356   4.959  18.731  0.00  0.00    +0.000 A 
ENDROOT
BRANCH   4   8
ATOM      8  N   UNL     1       7.381   4.780  16.535  0.00  0.00    +0.000 N 
ATOM      9  O   UNL     1       7.598   5.531  15.572  0.00  0.00    +0.000 OA
ATOM     10  O   UNL     1       8.237   4.140  17.157  0.00  0.00    +0.000 OA
ENDBRANCH   4   8
BRANCH   1  11
ATOM     11  O   UNL     1       2.099   4.240  18.354  0.00  0.00    +0.000 OA
BRANCH  11  15
ATOM     12  C   UNL     1       1.529   2.667  21.597  0.00  0.00    +0.000 C 
ATOM     13  N   UNL     1       1.537   3.632  20.516  0.00  0.00    +0.000 N 
ATOM     14  C   UNL     1       1.405   5.044  20.825  0.00  0.00    +0.000 C 
ATOM     15  C   UNL     1       1.927   3.191  19.259  0.00  0.00    +0.000 C 
ATOM     16  O   UNL     1       2.137   2.011  18.992  0.00  0.00    +0.000 OA
ENDBRANCH  11  15
ENDBRANCH   1  11
TORSDOF 3
ENDMDL
MODEL 5
REMARK VINA RESULT:      -6.4      1.462      1.871
REMARK  Name = 
REMARK  5 active torsions:
REMARK  status: ('A' for Active; 'I' for Inactive)
REMARK    1  A    between atoms: C_1  and  N_2
REMARK    2  A    between atoms: N_2  and  C_3
REMARK    3  A    between atoms: C_4  and  O_6
REMARK    4  A    between atoms: O_6  and  C_7
REMARK    5  A    between atoms: C_10  and  N_11
REMARK                            x       y       z     vdW  Elec       q    Type
REMARK                         _______ _______ _______ _____ _____    ______ ____
ROOT
ATOM      1  C   UNL     1       3.468   4.739  18.414  0.00  0.00    +0.000 A 
ATOM      2  C   UNL     1       4.485   5.201  19.256  0.00  0.00    +0.000 A 
ATOM      3  C   UNL     1       5.781   5.333  18.766  0.00  0.00    +0.000 A 
ATOM      4  C   UNL     1       6.036   5.016  17.423  0.00  0.00    +0.000 A 
ATOM      5  C   UNL     1       5.023   4.568  16.573  0.00  0.00    +0.000 A 
ATOM      6 CL   UNL     1       5.270   4.232  14.897  0.00  0.00    +0.000 Cl
ATOM      7  C   UNL     1       3.725   4.428  17.076  0.00  0.00    +0.000 A 
ENDROOT
BRANCH   4   8
ATOM      8  N   UNL     1       7.383   5.210  16.940  0.00  0.00    +0.000 N 
ATOM      9  O   UNL     1       8.169   4.262  17.084  0.00  0.00    +0.000 OA
ATOM     10  O   UNL     1       7.638   6.277  16.368  0.00  0.00    +0.000 OA
ENDBRANCH   4   8
BRANCH   1  11
ATOM     11  O   UNL     1       2.128   4.703  18.843  0.00  0.00    +0.000 OA
BRANCH  11  15
ATOM     12  C   UNL     1       1.291   2.627  21.726  0.00  0.00    +0.000 C 
ATOM     13  N   UNL     1       1.753   3.047  20.418  0.00  0.00    +0.000 N 
ATOM     14  C   UNL     1       1.803   2.079  19.338  0.00  0.00    +0.000 C 
ATOM     15  C   UNL     1       1.883   4.410  20.187  0.00  0.00    +0.000 C 
ATOM     16  O   UNL     1       1.753   5.259  21.064  0.00  0.00    +0.000 OA
ENDBRANCH  11  15
ENDBRANCH   1  11
TORSDOF 3
ENDMDL
MODEL 6
REMARK VINA RESULT:      -6.3      2.800      6.030
REMARK  Name = 
REMARK  5 active torsions:
REMARK  status: ('A' for Active; 'I' for Inactive)
REMARK    1  A    between atoms: C_1  and  N_2
REMARK    2  A    between atoms: N_2  and  C_3
REMARK    3  A    between atoms: C_4  and  O_6
REMARK    4  A    between atoms: O_6  and  C_7
REMARK    5  A    between atoms: C_10  and  N_11
REMARK                            x       y       z     vdW  Elec       q    Type
REMARK                         _______ _______ _______ _____ _____    ______ ____
ROOT
ATOM      1  C   UNL     1       5.071   4.038  19.197  0.00  0.00    +0.000 A 
ATOM      2  C   UNL     1       4.749   2.699  19.441  0.00  0.00    +0.000 A 
ATOM      3  C   UNL     1       3.534   2.378  20.037  0.00  0.00    +0.000 A 
ATOM      4  C   UNL     1       2.643   3.412  20.364  0.00  0.00    +0.000 A 
ATOM      5  C   UNL     1       2.950   4.750  20.111  0.00  0.00    +0.000 A 
ATOM      6 CL   UNL     1       1.861   6.051  20.430  0.00  0.00    +0.000 Cl
ATOM      7  C   UNL     1       4.179   5.064  19.521  0.00  0.00    +0.000 A 
ENDROOT
BRANCH   4   8
ATOM      8  N   UNL     1       1.372   3.035  20.939  0.00  0.00    +0.000 N 
ATOM      9  O   UNL     1       1.371   2.738  22.143  0.00  0.00    +0.000 OA
ATOM     10  O   UNL     1       0.375   3.093  20.209  0.00  0.00    +0.000 OA
ENDBRANCH   4   8
BRANCH   1  11
ATOM     11  O   UNL     1       6.239   4.391  18.494  0.00  0.00    +0.000 OA
BRANCH  11  15
ATOM     12  C   UNL     1       8.161   7.491  18.409  0.00  0.00    +0.000 C 
ATOM     13  N   UNL     1       7.205   6.453  18.079  0.00  0.00    +0.000 N 
ATOM     14  C   UNL     1       6.694   6.363  16.724  0.00  0.00    +0.000 C 
ATOM     15  C   UNL     1       7.014   5.435  19.002  0.00  0.00    +0.000 C 
ATOM     16  O   UNL     1       7.510   5.439  20.125  0.00  0.00    +0.000 OA
ENDBRANCH  11  15
ENDBRANCH   1  11
TORSDOF 3
ENDMDL
MODEL 7
REMARK VINA RESULT:      -6.2      2.824      5.895
REMARK  Name = 
REMARK  5 active torsions:
REMARK  status: ('A' for Active; 'I' for Inactive)
REMARK    1  A    between atoms: C_1  and  N_2
REMARK    2  A    between atoms: N_2  and  C_3
REMARK    3  A    between atoms: C_4  and  O_6
REMARK    4  A    between atoms: O_6  and  C_7
REMARK    5  A    between atoms: C_10  and  N_11
REMARK                            x       y       z     vdW  Elec       q    Type
REMARK                         _______ _______ _______ _____ _____    ______ ____
ROOT
ATOM      1  C   UNL     1       4.960   3.760  18.441  0.00  0.00    +0.000 A 
ATOM      2  C   UNL     1       3.979   4.133  17.516  0.00  0.00    +0.000 A 
ATOM      3  C   UNL     1       2.635   3.939  17.819  0.00  0.00    +0.000 A 
ATOM      4  C   UNL     1       2.290   3.389  19.063  0.00  0.00    +0.000 A 
ATOM      5  C   UNL     1       3.262   3.027  19.997  0.00  0.00    +0.000 A 
ATOM      6 CL   UNL     1       2.889   2.412  21.567  0.00  0.00    +0.000 Cl
ATOM      7  C   UNL     1       4.612   3.216  19.680  0.00  0.00    +0.000 A 
ENDROOT
BRANCH   4   8
ATOM      8  N   UNL     1       0.883   3.247  19.359  0.00  0.00    +0.000 N 
ATOM      9  O   UNL     1       0.280   2.335  18.774  0.00  0.00    +0.000 OA
ATOM     10  O   UNL     1       0.399   4.002  20.211  0.00  0.00    +0.000 OA
ENDBRANCH   4   8
BRANCH   1  11
ATOM     11  O   UNL     1       6.320   4.045  18.216  0.00  0.00    +0.000 OA
BRANCH  11  15
ATOM     12  C   UNL     1       7.816   7.368  18.023  0.00  0.00    +0.000 C 
ATOM     13  N   UNL     1       7.101   6.157  17.675  0.00  0.00    +0.000 N 
ATOM     14  C   UNL     1       6.946   5.801  16.277  0.00  0.00    +0.000 C 
ATOM     15  C   UNL     1       6.817   5.259  18.695  0.00  0.00    +0.000 C 
ATOM     16  O   UNL     1       7.025   5.497  19.881  0.00  0.00    +0.000 OA
ENDBRANCH  11  15
ENDBRANCH   1  11
TORSDOF 3
ENDMDL
MODEL 8
REMARK VINA RESULT:      -6.1      1.749      2.327
REMARK  Name = 
REMARK  5 active torsions:
REMARK  status: ('A' for Active; 'I' for Inactive)
REMARK    1  A    between atoms: C_1  and  N_2
REMARK    2  A    between atoms: N_2  and  C_3
REMARK    3  A    between atoms: C_4  and  O_6
REMARK    4  A    between atoms: O_6  and  C_7
REMARK    5  A    between atoms: C_10  and  N_11
REMARK                            x       y       z     vdW  Elec       q    Type
REMARK                         _______ _______ _______ _____ _____    ______ ____
ROOT
ATOM      1  C   UNL     1       3.522   5.732  18.731  0.00  0.00    +0.000 A 
ATOM      2  C   UNL     1       3.499   6.482  17.552  0.00  0.00    +0.000 A 
ATOM      3  C   UNL     1       4.695   6.858  16.949  0.00  0.00    +0.000 A 
ATOM      4  C   UNL     1       5.907   6.456  17.532  0.00  0.00    +0.000 A 
ATOM      5  C   UNL     1       5.938   5.695  18.702  0.00  0.00    +0.000 A 
ATOM      6 CL   UNL     1       7.398   5.116  19.419  0.00  0.00    +0.000 Cl
ATOM      7  C   UNL     1       4.731   5.330  19.307  0.00  0.00    +0.000 A 
ENDROOT
BRANCH   4   8
ATOM      8  N   UNL     1       7.126   6.826  16.851  0.00  0.00    +0.000 N 
ATOM      9  O   UNL     1       7.515   6.065  15.952  0.00  0.00    +0.000 OA
ATOM     10  O   UNL     1       7.658   7.896  17.170  0.00  0.00    +0.000 OA
ENDBRANCH   4   8
BRANCH   1  11
ATOM     11  O   UNL     1       2.334   5.238  19.304  0.00  0.00    +0.000 OA
BRANCH  11  15
ATOM     12  C   UNL     1       0.669   2.010  18.958  0.00  0.00    +0.000 C 
ATOM     13  N   UNL     1       1.183   3.242  19.523  0.00  0.00    +0.000 N 
ATOM     14  C   UNL     1       1.407   3.328  20.953  0.00  0.00    +0.000 C 
ATOM     15  C   UNL     1       1.679   4.196  18.645  0.00  0.00    +0.000 C 
ATOM     16  O   UNL     1       1.586   4.104  17.424  0.00  0.00    +0.000 OA
ENDBRANCH  11  15
ENDBRANCH   1  11
TORSDOF 3
ENDMDL
MODEL 9
REMARK VINA RESULT:      -6.0      1.992      2.096
REMARK  Name = 
REMARK  5 active torsions:
REMARK  status: ('A' for Active; 'I' for Inactive)
REMARK    1  A    between atoms: C_1  and  N_2
REMARK    2  A    between atoms: N_2  and  C_3
REMARK    3  A    between atoms: C_4  and  O_6
REMARK    4  A    between atoms: O_6  and  C_7
REMARK    5  A    between atoms: C_10  and  N_11
REMARK                            x       y       z     vdW  Elec       q    Type
REMARK                         _______ _______ _______ _____ _____    ______ ____
ROOT
ATOM      1  C   UNL     1       4.316   3.497  18.146  0.00  0.00    +0.000 A 
ATOM      2  C   UNL     1       4.142   3.973  16.843  0.00  0.00    +0.000 A 
ATOM      3  C   UNL     1       4.958   4.995  16.366  0.00  0.00    +0.000 A 
ATOM      4  C   UNL     1       5.957   5.515  17.203  0.00  0.00    +0.000 A 
ATOM      5  C   UNL     1       6.146   5.036  18.500  0.00  0.00    +0.000 A 
ATOM      6 CL   UNL     1       7.404   5.592  19.544  0.00  0.00    +0.000 Cl
ATOM      7  C   UNL     1       5.315   4.015  18.975  0.00  0.00    +0.000 A 
ENDROOT
BRANCH   4   8
ATOM      8  N   UNL     1       6.813   6.542  16.656  0.00  0.00    +0.000 N 
ATOM      9  O   UNL     1       6.646   7.693  17.085  0.00  0.00    +0.000 OA
ATOM     10  O   UNL     1       7.683   6.192  15.849  0.00  0.00    +0.000 OA
ENDBRANCH   4   8
BRANCH   1  11
ATOM     11  O   UNL     1       3.587   2.390  18.621  0.00  0.00    +0.000 OA
BRANCH  11  15
ATOM     12  C   UNL     1       1.277   2.807  21.414  0.00  0.00    +0.000 C 
ATOM     13  N   UNL     1       1.803   2.564  20.086  0.00  0.00    +0.000 N 
ATOM     14  C   UNL     1       0.942   2.758  18.935  0.00  0.00    +0.000 C 
ATOM     15  C   UNL     1       3.176   2.406  19.955  0.00  0.00    +0.000 C 
ATOM     16  O   UNL     1       3.942   2.332  20.912  0.00  0.00    +0.000 OA
ENDBRANCH  11  15
ENDBRANCH   1  11
TORSDOF 3
ENDMDL
