MODEL 1
REMARK VINA RESULT:      -7.0      0.000      0.000
REMARK  Name = 
REMARK  6 active torsions:
REMARK  status: ('A' for Active; 'I' for Inactive)
REMARK    1  A    between atoms: C_2  and  C_3
REMARK    2  A    between atoms: C_3  and  C_4
REMARK    3  A    between atoms: C_5  and  O_6
REMARK    4  A    between atoms: O_6  and  C_7
REMARK    5  A    between atoms: C_7  and  C_8
REMARK    6  A    between atoms: N_16  and  C_17
REMARK                            x       y       z     vdW  Elec       q    Type
REMARK                         _______ _______ _______ _____ _____    ______ ____
ROOT
ATOM      1  C   UNL     1       2.588   7.544  18.846  0.00  0.00    +0.000 A 
ATOM      2  C   UNL     1       2.041   6.844  19.855  0.00  0.00    +0.000 A 
ATOM      3  C   UNL     1       2.469   5.463  20.126  0.00  0.00    +0.000 A 
ATOM      4  C   UNL     1       1.896   4.712  21.167  0.00  0.00    +0.000 A 
ATOM      5  C   UNL     1       2.247   3.380  21.347  0.00  0.00    +0.000 A 
ATOM      6  C   UNL     1       3.167   2.837  20.475  0.00  0.00    +0.000 A 
ATOM      7  N   UNL     1       3.757   3.535  19.481  0.00  0.00    +0.000 NA
ATOM      8  C   UNL     1       3.429   4.845  19.315  0.00  0.00    +0.000 A 
ATOM      9  N   UNL     1       4.022   5.601  18.263  0.00  0.00    +0.000 N 
ATOM     10  C   UNL     1       3.696   6.938  18.037  0.00  0.00    +0.000 A 
ATOM     11  O   UNL     1       4.262   7.654  17.204  0.00  0.00    +0.000 OA
ENDROOT
BRANCH   9  12
ATOM     12  C   UNL     1       5.025   4.993  17.441  0.00  0.00    +0.000 A 
ATOM     13  C   UNL     1       6.380   5.009  17.800  0.00  0.00    +0.000 A 
ATOM     14  C   UNL     1       7.359   4.593  16.891  0.00  0.00    +0.000 A 
ATOM     15  C   UNL     1       6.995   4.129  15.627  0.00  0.00    +0.000 A 
ATOM     16  C   UNL     1       5.651   4.058  15.277  0.00  0.00    +0.000 A 
ATOM     17  C   UNL     1       4.676   4.491  16.176  0.00  0.00    +0.000 A 
ENDBRANCH   9  12
BRANCH   1  18
ATOM     18  C   UNL     1       2.182   8.936  18.425  0.00  0.00    +0.000 C 
BRANCH  18  20
ATOM     19  C   UNL     1      -0.171   9.892  18.061  0.00  0.00    +0.000 C 
ATOM     20  C   UNL     1       0.829   9.048  17.771  0.00  0.00    +0.000 C 
ENDBRANCH  18  20
ENDBRANCH   1  18
BRANCH   2  21
ATOM     21  O   UNL     1       0.876   7.253  20.543  0.00  0.00    +0.000 OA
BRANCH  21  22
ATOM     22  C   UNL     1       0.959   8.280  21.446  0.00  0.00    +0.000 C 
ATOM     23  C   UNL     1      -0.423   8.818  21.701  0.00  0.00    +0.000 C 
ATOM     24  O   UNL     1       1.967   8.665  22.021  0.00  0.00    +0.000 OA
ENDBRANCH  21  22
ENDBRANCH   2  21
TORSDOF 5
ENDMDL
MODEL 2
REMARK VINA RESULT:      -6.6      0.219      1.008
REMARK  Name = 
REMARK  6 active torsions:
REMARK  status: ('A' for Active; 'I' for Inactive)
REMARK    1  A    between atoms: C_2  and  C_3
REMARK    2  A    between atoms: C_3  and  C_4
REMARK    3  A    between atoms: C_5  and  O_6
REMARK    4  A    between atoms: O_6  and  C_7
REMARK    5  A    between atoms: C_7  and  C_8
REMARK    6  A    between atoms: N_16  and  C_17
REMARK                            x       y       z     vdW  Elec       q    Type
REMARK                         _______ _______ _______ _____ _____    ______ ____
ROOT
ATOM      1  C   UNL     1       2.464   7.660  18.955  0.00  0.00    +0.000 A 
ATOM      2  C   UNL     1       2.002   6.883  19.950  0.00  0.00    +0.000 A 
ATOM      3  C   UNL     1       2.507   5.513  20.124  0.00  0.00    +0.000 A 
ATOM      4  C   UNL     1       2.023   4.682  21.150  0.00  0.00    +0.000 A 
ATOM      5  C   UNL     1       2.444   3.361  21.241  0.00  0.00    +0.000 A 
ATOM      6  C   UNL     1       3.344   2.910  20.298  0.00  0.00    +0.000 A 
ATOM      7  N   UNL     1       3.850   3.686  19.316  0.00  0.00    +0.000 NA
ATOM      8  C   UNL     1       3.453   4.986  19.237  0.00  0.00    +0.000 A 
ATOM      9  N   UNL     1       3.956   5.823  18.200  0.00  0.00    +0.000 N 
ATOM     10  C   UNL     1       3.557   7.153  18.062  0.00  0.00    +0.000 A 
ATOM     11  O   UNL     1       4.046   7.937  17.244  0.00  0.00    +0.000 OA
ENDROOT
BRANCH   9  12
ATOM     12  C   UNL     1       4.944   5.309  17.300  0.00  0.00    +0.000 A 
ATOM     13  C   UNL     1       4.591   4.690  16.093  0.00  0.00    +0.000 A 
ATOM     14  C   UNL     1       5.554   4.019  15.332  0.00  0.00    +0.000 A 
ATOM     15  C   UNL     1       6.884   3.982  15.751  0.00  0.00    +0.000 A 
ATOM     16  C   UNL     1       7.259   4.637  16.920  0.00  0.00    +0.000 A 
ATOM     17  C   UNL     1       6.295   5.291  17.689  0.00  0.00    +0.000 A 
ENDBRANCH   9  12
BRANCH   1  18
ATOM     18  C   UNL     1       1.973   9.050  18.630  0.00  0.00    +0.000 C 
BRANCH  18  20
ATOM     19  C   UNL     1      -0.340   9.964  17.994  0.00  0.00    +0.000 C 
ATOM     20  C   UNL     1       0.690   9.118  17.842  0.00  0.00    +0.000 C 
ENDBRANCH  18  20
ENDBRANCH   1  18
BRANCH   2  21
ATOM     21  O   UNL     1       0.855   7.198  20.713  0.00  0.00    +0.000 OA
BRANCH  21  22
ATOM     22  C   UNL     1       0.879   8.293  21.535  0.00  0.00    +0.000 C 
ATOM     23  C   UNL     1      -0.511   8.860  21.634  0.00  0.00    +0.000 C 
ATOM     24  O   UNL     1       1.843   8.715  22.158  0.00  0.00    +0.000 OA
ENDBRANCH  21  22
ENDBRANCH   2  21
TORSDOF 5
ENDMDL
MODEL 3
REMARK VINA RESULT:      -6.6      2.137      6.210
REMARK  Name = 
REMARK  6 active torsions:
REMARK  status: ('A' for Active; 'I' for Inactive)
REMARK    1  A    between atoms: C_2  and  C_3
REMARK    2  A    between atoms: C_3  and  C_4
REMARK    3  A    between atoms: C_5  and  O_6
REMARK    4  A    between atoms: O_6  and  C_7
REMARK    5  A    between atoms: C_7  and  C_8
REMARK    6  A    between atoms: N_16  and  C_17
REMARK                            x       y       z     vdW  Elec       q    Type
REMARK                         _______ _______ _______ _____ _____    ______ ____
ROOT
ATOM      1  C   UNL     1       5.336   6.368  17.123  0.00  0.00    +0.000 A 
ATOM      2  C   UNL     1       5.041   5.067  16.956  0.00  0.00    +0.000 A 
ATOM      3  C   UNL     1       3.736   4.537  17.379  0.00  0.00    +0.000 A 
ATOM      4  C   UNL     1       3.417   3.176  17.226  0.00  0.00    +0.000 A 
ATOM      5  C   UNL     1       2.217   2.677  17.718  0.00  0.00    +0.000 A 
ATOM      6  C   UNL     1       1.367   3.560  18.350  0.00  0.00    +0.000 A 
ATOM      7  N   UNL     1       1.628   4.877  18.491  0.00  0.00    +0.000 NA
ATOM      8  C   UNL     1       2.795   5.372  17.994  0.00  0.00    +0.000 A 
ATOM      9  N   UNL     1       3.106   6.754  18.145  0.00  0.00    +0.000 N 
ATOM     10  C   UNL     1       4.301   7.300  17.676  0.00  0.00    +0.000 A 
ATOM     11  O   UNL     1       4.560   8.507  17.695  0.00  0.00    +0.000 OA
ENDROOT
BRANCH   9  12
ATOM     12  C   UNL     1       2.144   7.628  18.746  0.00  0.00    +0.000 A 
ATOM     13  C   UNL     1       1.478   8.614  18.003  0.00  0.00    +0.000 A 
ATOM     14  C   UNL     1       0.700   9.582  18.647  0.00  0.00    +0.000 A 
ATOM     15  C   UNL     1       0.555   9.561  20.033  0.00  0.00    +0.000 A 
ATOM     16  C   UNL     1       1.167   8.558  20.778  0.00  0.00    +0.000 A 
ATOM     17  C   UNL     1       1.958   7.604  20.139  0.00  0.00    +0.000 A 
ENDBRANCH   9  12
BRANCH   1  18
ATOM     18  C   UNL     1       6.662   7.013  16.797  0.00  0.00    +0.000 C 
BRANCH  18  20
ATOM     19  C   UNL     1       7.875   6.145  18.886  0.00  0.00    +0.000 C 
ATOM     20  C   UNL     1       7.657   7.058  17.928  0.00  0.00    +0.000 C 
ENDBRANCH  18  20
ENDBRANCH   1  18
BRANCH   2  21
ATOM     21  O   UNL     1       6.003   4.087  16.624  0.00  0.00    +0.000 OA
BRANCH  21  22
ATOM     22  C   UNL     1       6.704   4.208  15.453  0.00  0.00    +0.000 C 
ATOM     23  C   UNL     1       5.782   3.920  14.300  0.00  0.00    +0.000 C 
ATOM     24  O   UNL     1       7.868   4.563  15.335  0.00  0.00    +0.000 OA
ENDBRANCH  21  22
ENDBRANCH   2  21
TORSDOF 5
ENDMDL
MODEL 4
REMARK VINA RESULT:      -6.3      4.768      8.959
REMARK  Name = 
REMARK  6 active torsions:
REMARK  status: ('A' for Active; 'I' for Inactive)
REMARK    1  A    between atoms: C_2  and  C_3
REMARK    2  A    between atoms: C_3  and  C_4
REMARK    3  A    between atoms: C_5  and  O_6
REMARK    4  A    between atoms: O_6  and  C_7
REMARK    5  A    between atoms: C_7  and  C_8
REMARK    6  A    between atoms: N_16  and  C_17
REMARK                            x       y       z     vdW  Elec       q    Type
REMARK                         _______ _______ _______ _____ _____    ______ ____
ROOT
ATOM      1  C   UNL     1      -1.330  11.419  19.130  0.00  0.00    +0.000 A 
ATOM      2  C   UNL     1      -0.527  10.362  19.345  0.00  0.00    +0.000 A 
ATOM      3  C   UNL     1      -0.156   9.973  20.714  0.00  0.00    +0.000 A 
ATOM      4  C   UNL     1       0.694   8.880  20.956  0.00  0.00    +0.000 A 
ATOM      5  C   UNL     1       1.109   8.585  22.250  0.00  0.00    +0.000 A 
ATOM      6  C   UNL     1       0.655   9.397  23.267  0.00  0.00    +0.000 A 
ATOM      7  N   UNL     1      -0.184  10.438  23.076  0.00  0.00    +0.000 NA
ATOM      8  C   UNL     1      -0.605  10.717  21.812  0.00  0.00    +0.000 A 
ATOM      9  N   UNL     1      -1.475  11.821  21.577  0.00  0.00    +0.000 N 
ATOM     10  C   UNL     1      -1.911  12.161  20.297  0.00  0.00    +0.000 A 
ATOM     11  O   UNL     1      -2.744  13.043  20.065  0.00  0.00    +0.000 OA
ENDROOT
BRANCH   9  12
ATOM     12  C   UNL     1      -1.966  12.576  22.690  0.00  0.00    +0.000 A 
ATOM     13  C   UNL     1      -3.203  12.291  23.286  0.00  0.00    +0.000 A 
ATOM     14  C   UNL     1      -3.751  13.163  24.232  0.00  0.00    +0.000 A 
ATOM     15  C   UNL     1      -3.061  14.312  24.616  0.00  0.00    +0.000 A 
ATOM     16  C   UNL     1      -1.809  14.580  24.072  0.00  0.00    +0.000 A 
ATOM     17  C   UNL     1      -1.270  13.721  23.114  0.00  0.00    +0.000 A 
ENDBRANCH   9  12
BRANCH   1  18
ATOM     18  C   UNL     1      -1.721  11.960  17.776  0.00  0.00    +0.000 C 
BRANCH  18  20
ATOM     19  C   UNL     1      -3.434  10.079  17.436  0.00  0.00    +0.000 C 
ATOM     20  C   UNL     1      -2.719  11.130  17.009  0.00  0.00    +0.000 C 
ENDBRANCH  18  20
ENDBRANCH   1  18
BRANCH   2  21
ATOM     21  O   UNL     1       0.211   9.726  18.323  0.00  0.00    +0.000 OA
BRANCH  21  22
ATOM     22  C   UNL     1       1.529  10.055  18.146  0.00  0.00    +0.000 C 
ATOM     23  C   UNL     1       2.289   8.823  17.734  0.00  0.00    +0.000 C 
ATOM     24  O   UNL     1       2.018  11.173  18.229  0.00  0.00    +0.000 OA
ENDBRANCH  21  22
ENDBRANCH   2  21
TORSDOF 5
ENDMDL
MODEL 5
REMARK VINA RESULT:      -6.3      4.854      9.002
REMARK  Name = 
REMARK  6 active torsions:
REMARK  status: ('A' for Active; 'I' for Inactive)
REMARK    1  A    between atoms: C_2  and  C_3
REMARK    2  A    between atoms: C_3  and  C_4
REMARK    3  A    between atoms: C_5  and  O_6
REMARK    4  A    between atoms: O_6  and  C_7
REMARK    5  A    between atoms: C_7  and  C_8
REMARK    6  A    between atoms: N_16  and  C_17
REMARK                            x       y       z     vdW  Elec       q    Type
REMARK                         _______ _______ _______ _____ _____    ______ ____
ROOT
ATOM      1  C   UNL     1      -1.399  11.440  19.047  0.00  0.00    +0.000 A 
ATOM      2  C   UNL     1      -0.628  10.380  19.346  0.00  0.00    +0.000 A 
ATOM      3  C   UNL     1      -0.320  10.050  20.746  0.00  0.00    +0.000 A 
ATOM      4  C   UNL     1       0.497   8.955  21.075  0.00  0.00    +0.000 A 
ATOM      5  C   UNL     1       0.853   8.716  22.397  0.00  0.00    +0.000 A 
ATOM      6  C   UNL     1       0.376   9.586  23.355  0.00  0.00    +0.000 A 
ATOM      7  N   UNL     1      -0.432  10.632  23.079  0.00  0.00    +0.000 NA
ATOM      8  C   UNL     1      -0.797  10.857  21.787  0.00  0.00    +0.000 A 
ATOM      9  N   UNL     1      -1.633  11.964  21.464  0.00  0.00    +0.000 N 
ATOM     10  C   UNL     1      -2.010  12.250  20.151  0.00  0.00    +0.000 A 
ATOM     11  O   UNL     1      -2.814  13.134  19.843  0.00  0.00    +0.000 OA
ENDROOT
BRANCH   9  12
ATOM     12  C   UNL     1      -2.152  12.782  22.517  0.00  0.00    +0.000 A 
ATOM     13  C   UNL     1      -1.429  13.868  23.032  0.00  0.00    +0.000 A 
ATOM     14  C   UNL     1      -1.862  14.523  24.189  0.00  0.00    +0.000 A 
ATOM     15  C   UNL     1      -3.034  14.123  24.829  0.00  0.00    +0.000 A 
ATOM     16  C   UNL     1      -3.790  13.081  24.301  0.00  0.00    +0.000 A 
ATOM     17  C   UNL     1      -3.349  12.415  23.157  0.00  0.00    +0.000 A 
ENDBRANCH   9  12
BRANCH   1  18
ATOM     18  C   UNL     1      -1.724  11.920  17.653  0.00  0.00    +0.000 C 
BRANCH  18  20
ATOM     19  C   UNL     1      -2.593  10.276  15.884  0.00  0.00    +0.000 C 
ATOM     20  C   UNL     1      -2.763  11.116  16.915  0.00  0.00    +0.000 C 
ENDBRANCH  18  20
ENDBRANCH   1  18
BRANCH   2  21
ATOM     21  O   UNL     1       0.137   9.679  18.386  0.00  0.00    +0.000 OA
BRANCH  21  22
ATOM     22  C   UNL     1       1.449  10.022  18.197  0.00  0.00    +0.000 C 
ATOM     23  C   UNL     1       2.218   8.800  17.773  0.00  0.00    +0.000 C 
ATOM     24  O   UNL     1       1.928  11.145  18.280  0.00  0.00    +0.000 OA
ENDBRANCH  21  22
ENDBRANCH   2  21
TORSDOF 5
ENDMDL
MODEL 6
REMARK VINA RESULT:      -6.0      2.127      6.153
REMARK  Name = 
REMARK  6 active torsions:
REMARK  status: ('A' for Active; 'I' for Inactive)
REMARK    1  A    between atoms: C_2  and  C_3
REMARK    2  A    between atoms: C_3  and  C_4
REMARK    3  A    between atoms: C_5  and  O_6
REMARK    4  A    between atoms: O_6  and  C_7
REMARK    5  A    between atoms: C_7  and  C_8
REMARK    6  A    between atoms: N_16  and  C_17
REMARK                            x       y       z     vdW  Elec       q    Type
REMARK                         _______ _______ _______ _____ _____    ______ ____
ROOT
ATOM      1  C   UNL     1       5.318   6.373  17.129  0.00  0.00    +0.000 A 
ATOM      2  C   UNL     1       4.952   5.087  16.989  0.00  0.00    +0.000 A 
ATOM      3  C   UNL     1       3.639   4.627  17.467  0.00  0.00    +0.000 A 
ATOM      4  C   UNL     1       3.246   3.284  17.342  0.00  0.00    +0.000 A 
ATOM      5  C   UNL     1       2.042   2.850  17.882  0.00  0.00    +0.000 A 
ATOM      6  C   UNL     1       1.261   3.782  18.534  0.00  0.00    +0.000 A 
ATOM      7  N   UNL     1       1.593   5.086  18.649  0.00  0.00    +0.000 NA
ATOM      8  C   UNL     1       2.764   5.516  18.104  0.00  0.00    +0.000 A 
ATOM      9  N   UNL     1       3.149   6.882  18.227  0.00  0.00    +0.000 N 
ATOM     10  C   UNL     1       4.352   7.362  17.709  0.00  0.00    +0.000 A 
ATOM     11  O   UNL     1       4.672   8.555  17.703  0.00  0.00    +0.000 OA
ENDROOT
BRANCH   9  12
ATOM     12  C   UNL     1       2.255   7.810  18.851  0.00  0.00    +0.000 A 
ATOM     13  C   UNL     1       1.951   7.735  20.218  0.00  0.00    +0.000 A 
ATOM     14  C   UNL     1       0.926   8.518  20.760  0.00  0.00    +0.000 A 
ATOM     15  C   UNL     1       0.214   9.403  19.953  0.00  0.00    +0.000 A 
ATOM     16  C   UNL     1       0.539   9.527  18.607  0.00  0.00    +0.000 A 
ATOM     17  C   UNL     1       1.548   8.733  18.061  0.00  0.00    +0.000 A 
ENDBRANCH   9  12
BRANCH   1  18
ATOM     18  C   UNL     1       6.662   6.947  16.748  0.00  0.00    +0.000 C 
BRANCH  18  20
ATOM     19  C   UNL     1       7.859   6.168  18.881  0.00  0.00    +0.000 C 
ATOM     20  C   UNL     1       7.676   7.019  17.860  0.00  0.00    +0.000 C 
ENDBRANCH  18  20
ENDBRANCH   1  18
BRANCH   2  21
ATOM     21  O   UNL     1       5.851   4.056  16.635  0.00  0.00    +0.000 OA
BRANCH  21  22
ATOM     22  C   UNL     1       6.590   4.179  15.488  0.00  0.00    +0.000 C 
ATOM     23  C   UNL     1       5.670   4.076  14.301  0.00  0.00    +0.000 C 
ATOM     24  O   UNL     1       7.789   4.409  15.414  0.00  0.00    +0.000 OA
ENDBRANCH  21  22
ENDBRANCH   2  21
TORSDOF 5
ENDMDL
MODEL 7
REMARK VINA RESULT:      -5.9      1.883      5.815
REMARK  Name = 
REMARK  6 active torsions:
REMARK  status: ('A' for Active; 'I' for Inactive)
REMARK    1  A    between atoms: C_2  and  C_3
REMARK    2  A    between atoms: C_3  and  C_4
REMARK    3  A    between atoms: C_5  and  O_6
REMARK    4  A    between atoms: O_6  and  C_7
REMARK    5  A    between atoms: C_7  and  C_8
REMARK    6  A    between atoms: N_16  and  C_17
REMARK                            x       y       z     vdW  Elec       q    Type
REMARK                         _______ _______ _______ _____ _____    ______ ____
ROOT
ATOM      1  C   UNL     1       4.434   6.490  17.518  0.00  0.00    +0.000 A 
ATOM      2  C   UNL     1       4.415   5.303  18.149  0.00  0.00    +0.000 A 
ATOM      3  C   UNL     1       3.409   5.023  19.184  0.00  0.00    +0.000 A 
ATOM      4  C   UNL     1       3.385   3.793  19.864  0.00  0.00    +0.000 A 
ATOM      5  C   UNL     1       2.486   3.582  20.903  0.00  0.00    +0.000 A 
ATOM      6  C   UNL     1       1.632   4.615  21.230  0.00  0.00    +0.000 A 
ATOM      7  N   UNL     1       1.609   5.799  20.581  0.00  0.00    +0.000 NA
ATOM      8  C   UNL     1       2.476   6.000  19.551  0.00  0.00    +0.000 A 
ATOM      9  N   UNL     1       2.486   7.247  18.861  0.00  0.00    +0.000 N 
ATOM     10  C   UNL     1       3.375   7.508  17.818  0.00  0.00    +0.000 A 
ATOM     11  O   UNL     1       3.346   8.533  17.130  0.00  0.00    +0.000 OA
ENDROOT
BRANCH   9  12
ATOM     12  C   UNL     1       1.522   8.247  19.205  0.00  0.00    +0.000 A 
ATOM     13  C   UNL     1       0.841   8.983  18.224  0.00  0.00    +0.000 A 
ATOM     14  C   UNL     1       0.060  10.087  18.581  0.00  0.00    +0.000 A 
ATOM     15  C   UNL     1      -0.074  10.453  19.920  0.00  0.00    +0.000 A 
ATOM     16  C   UNL     1       0.552   9.700  20.908  0.00  0.00    +0.000 A 
ATOM     17  C   UNL     1       1.347   8.610  20.552  0.00  0.00    +0.000 A 
ENDBRANCH   9  12
BRANCH   1  18
ATOM     18  C   UNL     1       5.457   6.921  16.495  0.00  0.00    +0.000 C 
BRANCH  18  20
ATOM     19  C   UNL     1       5.801   5.095  14.725  0.00  0.00    +0.000 C 
ATOM     20  C   UNL     1       5.328   6.280  15.137  0.00  0.00    +0.000 C 
ENDBRANCH  18  20
ENDBRANCH   1  18
BRANCH   2  21
ATOM     21  O   UNL     1       5.469   4.365  18.072  0.00  0.00    +0.000 OA
BRANCH  21  22
ATOM     22  C   UNL     1       6.674   4.665  18.650  0.00  0.00    +0.000 C 
ATOM     23  C   UNL     1       7.766   4.466  17.634  0.00  0.00    +0.000 C 
ATOM     24  O   UNL     1       6.853   5.096  19.780  0.00  0.00    +0.000 OA
ENDBRANCH  21  22
ENDBRANCH   2  21
TORSDOF 5
ENDMDL
MODEL 8
REMARK VINA RESULT:      -5.9      5.921      9.015
REMARK  Name = 
REMARK  6 active torsions:
REMARK  status: ('A' for Active; 'I' for Inactive)
REMARK    1  A    between atoms: C_2  and  C_3
REMARK    2  A    between atoms: C_3  and  C_4
REMARK    3  A    between atoms: C_5  and  O_6
REMARK    4  A    between atoms: O_6  and  C_7
REMARK    5  A    between atoms: C_7  and  C_8
REMARK    6  A    between atoms: N_16  and  C_17
REMARK                            x       y       z     vdW  Elec       q    Type
REMARK                         _______ _______ _______ _____ _____    ______ ____
ROOT
ATOM      1  C   UNL     1      -3.143  12.773  21.412  0.00  0.00    +0.000 A 
ATOM      2  C   UNL     1      -4.175  12.688  20.554  0.00  0.00    +0.000 A 
ATOM      3  C   UNL     1      -3.980  12.144  19.202  0.00  0.00    +0.000 A 
ATOM      4  C   UNL     1      -5.044  12.061  18.288  0.00  0.00    +0.000 A 
ATOM      5  C   UNL     1      -4.820  11.632  16.985  0.00  0.00    +0.000 A 
ATOM      6  C   UNL     1      -3.529  11.294  16.636  0.00  0.00    +0.000 A 
ATOM      7  N   UNL     1      -2.488  11.335  17.495  0.00  0.00    +0.000 NA
ATOM      8  C   UNL     1      -2.709  11.738  18.776  0.00  0.00    +0.000 A 
ATOM      9  N   UNL     1      -1.626  11.809  19.699  0.00  0.00    +0.000 N 
ATOM     10  C   UNL     1      -1.799  12.242  21.013  0.00  0.00    +0.000 A 
ATOM     11  O   UNL     1      -0.910  12.218  21.869  0.00  0.00    +0.000 OA
ENDROOT
BRANCH   9  12
ATOM     12  C   UNL     1      -0.325  11.372  19.289  0.00  0.00    +0.000 A 
ATOM     13  C   UNL     1       0.643  12.273  18.824  0.00  0.00    +0.000 A 
ATOM     14  C   UNL     1       1.825  11.805  18.241  0.00  0.00    +0.000 A 
ATOM     15  C   UNL     1       2.068  10.435  18.142  0.00  0.00    +0.000 A 
ATOM     16  C   UNL     1       1.141   9.530  18.647  0.00  0.00    +0.000 A 
ATOM     17  C   UNL     1      -0.047   9.996  19.211  0.00  0.00    +0.000 A 
ENDBRANCH   9  12
BRANCH   1  18
ATOM     18  C   UNL     1      -3.202  13.378  22.794  0.00  0.00    +0.000 C 
BRANCH  18  20
ATOM     19  C   UNL     1      -4.619  12.446  24.721  0.00  0.00    +0.000 C 
ATOM     20  C   UNL     1      -3.553  12.424  23.906  0.00  0.00    +0.000 C 
ENDBRANCH  18  20
ENDBRANCH   1  18
BRANCH   2  21
ATOM     21  O   UNL     1      -5.417  13.327  20.766  0.00  0.00    +0.000 OA
BRANCH  21  22
ATOM     22  C   UNL     1      -6.396  12.671  21.464  0.00  0.00    +0.000 C 
ATOM     23  C   UNL     1      -7.348  13.685  22.040  0.00  0.00    +0.000 C 
ATOM     24  O   UNL     1      -6.538  11.460  21.557  0.00  0.00    +0.000 OA
ENDBRANCH  21  22
ENDBRANCH   2  21
TORSDOF 5
ENDMDL
MODEL 9
REMARK VINA RESULT:      -5.9      5.994     10.584
REMARK  Name = 
REMARK  6 active torsions:
REMARK  status: ('A' for Active; 'I' for Inactive)
REMARK    1  A    between atoms: C_2  and  C_3
REMARK    2  A    between atoms: C_3  and  C_4
REMARK    3  A    between atoms: C_5  and  O_6
REMARK    4  A    between atoms: O_6  and  C_7
REMARK    5  A    between atoms: C_7  and  C_8
REMARK    6  A    between atoms: N_16  and  C_17
REMARK                            x       y       z     vdW  Elec       q    Type
REMARK                         _______ _______ _______ _____ _____    ______ ____
ROOT
ATOM      1  C   UNL     1      -1.594  11.849  20.873  0.00  0.00    +0.000 A 
ATOM      2  C   UNL     1      -1.320  11.307  19.674  0.00  0.00    +0.000 A 
ATOM      3  C   UNL     1      -2.328  11.311  18.603  0.00  0.00    +0.000 A 
ATOM      4  C   UNL     1      -2.063  10.736  17.348  0.00  0.00    +0.000 A 
ATOM      5  C   UNL     1      -3.059  10.666  16.382  0.00  0.00    +0.000 A 
ATOM      6  C   UNL     1      -4.298  11.181  16.703  0.00  0.00    +0.000 A 
ATOM      7  N   UNL     1      -4.581  11.765  17.887  0.00  0.00    +0.000 NA
ATOM      8  C   UNL     1      -3.601  11.850  18.828  0.00  0.00    +0.000 A 
ATOM      9  N   UNL     1      -3.876  12.444  20.093  0.00  0.00    +0.000 N 
ATOM     10  C   UNL     1      -2.911  12.529  21.097  0.00  0.00    +0.000 A 
ATOM     11  O   UNL     1      -3.079  13.127  22.165  0.00  0.00    +0.000 OA
ENDROOT
BRANCH   9  12
ATOM     12  C   UNL     1      -5.163  13.025  20.331  0.00  0.00    +0.000 A 
ATOM     13  C   UNL     1      -6.241  12.261  20.802  0.00  0.00    +0.000 A 
ATOM     14  C   UNL     1      -7.531  12.800  20.832  0.00  0.00    +0.000 A 
ATOM     15  C   UNL     1      -7.757  14.113  20.421  0.00  0.00    +0.000 A 
ATOM     16  C   UNL     1      -6.689  14.900  20.001  0.00  0.00    +0.000 A 
ATOM     17  C   UNL     1      -5.405  14.357  19.953  0.00  0.00    +0.000 A 
ENDBRANCH   9  12
BRANCH   1  18
ATOM     18  C   UNL     1      -0.672  11.840  22.069  0.00  0.00    +0.000 C 
BRANCH  18  20
ATOM     19  C   UNL     1      -0.285   9.426  22.849  0.00  0.00    +0.000 C 
ATOM     20  C   UNL     1      -0.810  10.652  22.986  0.00  0.00    +0.000 C 
ENDBRANCH  18  20
ENDBRANCH   1  18
BRANCH   2  21
ATOM     21  O   UNL     1      -0.195  10.487  19.429  0.00  0.00    +0.000 OA
BRANCH  21  22
ATOM     22  C   UNL     1       0.926  11.040  18.870  0.00  0.00    +0.000 C 
ATOM     23  C   UNL     1       1.679   9.970  18.126  0.00  0.00    +0.000 C 
ATOM     24  O   UNL     1       1.246  12.220  18.892  0.00  0.00    +0.000 OA
ENDBRANCH  21  22
ENDBRANCH   2  21
TORSDOF 5
ENDMDL
