MODEL 1
REMARK VINA RESULT:      -8.0      0.000      0.000
REMARK  Name = 
REMARK  7 active torsions:
REMARK  status: ('A' for Active; 'I' for Inactive)
REMARK    1  A    between atoms: C_1  and  N_2
REMARK    2  A    between atoms: N_6  and  C_7
REMARK    3  A    between atoms: C_7  and  C_8
REMARK    4  A    between atoms: C_8  and  C_9
REMARK    5  A    between atoms: C_8  and  C_10
REMARK    6  A    between atoms: C_8  and  C_11
REMARK    7  A    between atoms: C_13  and  C_14
REMARK                            x       y       z     vdW  Elec       q    Type
REMARK                         _______ _______ _______ _____ _____    ______ ____
ROOT
ATOM      1  C   UNL     1       8.084   6.975  18.500  0.00  0.00    +0.000 C 
ATOM      2  N   UNL     1       7.172   5.988  19.011  0.00  0.00    +0.000 N 
ATOM      3  C   UNL     1       6.449   5.214  18.128  0.00  0.00    +0.000 A 
ATOM      4  N   UNL     1       5.482   4.453  18.646  0.00  0.00    +0.000 NA
ATOM      5  C   UNL     1       4.841   3.606  17.817  0.00  0.00    +0.000 A 
ATOM      6  N   UNL     1       3.944   2.654  18.314  0.00  0.00    +0.000 N 
ATOM      7  C   UNL     1       5.153   3.545  16.482  0.00  0.00    +0.000 A 
ATOM      8  C   UNL     1       6.127   4.397  16.009  0.00  0.00    +0.000 A 
ATOM      9  N   UNL     1       6.778   5.233  16.839  0.00  0.00    +0.000 NA
ATOM     10  H   UNL     1       6.695   6.125  19.891  0.00  0.00    +0.000 HD
ATOM     11  H   UNL     1       3.234   2.394  17.636  0.00  0.00    +0.000 HD
ENDROOT
BRANCH   8  12
ATOM     12  C   UNL     1       6.518   4.438  14.578  0.00  0.00    +0.000 A 
ATOM     13  C   UNL     1       5.889   3.641  13.620  0.00  0.00    +0.000 A 
ATOM     14  C   UNL     1       6.324   3.702  12.289  0.00  0.00    +0.000 A 
ATOM     15  C   UNL     1       7.367   4.547  11.962  0.00  0.00    +0.000 A 
ATOM     16  C   UNL     1       7.935   5.316  12.960  0.00  0.00    +0.000 A 
ATOM     17  N   UNL     1       7.538   5.274  14.251  0.00  0.00    +0.000 NA
ENDBRANCH   8  12
BRANCH   6  18
ATOM     18  C   UNL     1       3.470   2.814  19.684  0.00  0.00    +0.000 C 
BRANCH  18  19
ATOM     19  C   UNL     1       1.961   3.188  19.717  0.00  0.00    +0.000 C 
ATOM     20  C   UNL     1       1.165   2.302  18.740  0.00  0.00    +0.000 C 
ATOM     21  C   UNL     1       1.424   2.957  21.143  0.00  0.00    +0.000 C 
ATOM     22  C   UNL     1       1.745   4.670  19.358  0.00  0.00    +0.000 C 
ENDBRANCH  18  19
ENDBRANCH   6  18
TORSDOF 3
ENDMDL
MODEL 2
REMARK VINA RESULT:      -8.0      0.423      1.005
REMARK  Name = 
REMARK  7 active torsions:
REMARK  status: ('A' for Active; 'I' for Inactive)
REMARK    1  A    between atoms: C_1  and  N_2
REMARK    2  A    between atoms: N_6  and  C_7
REMARK    3  A    between atoms: C_7  and  C_8
REMARK    4  A    between atoms: C_8  and  C_9
REMARK    5  A    between atoms: C_8  and  C_10
REMARK    6  A    between atoms: C_8  and  C_11
REMARK    7  A    between atoms: C_13  and  C_14
REMARK                            x       y       z     vdW  Elec       q    Type
REMARK                         _______ _______ _______ _____ _____    ______ ____
ROOT
ATOM      1  C   UNL     1       8.246   6.513  18.944  0.00  0.00    +0.000 C 
ATOM      2  N   UNL     1       7.253   5.585  19.415  0.00  0.00    +0.000 N 
ATOM      3  C   UNL     1       6.450   4.935  18.503  0.00  0.00    +0.000 A 
ATOM      4  N   UNL     1       5.424   4.236  18.994  0.00  0.00    +0.000 NA
ATOM      5  C   UNL     1       4.696   3.502  18.131  0.00  0.00    +0.000 A 
ATOM      6  N   UNL     1       3.721   2.608  18.590  0.00  0.00    +0.000 N 
ATOM      7  C   UNL     1       4.981   3.491  16.788  0.00  0.00    +0.000 A 
ATOM      8  C   UNL     1       6.024   4.277  16.347  0.00  0.00    +0.000 A 
ATOM      9  N   UNL     1       6.761   4.999  17.211  0.00  0.00    +0.000 NA
ATOM     10  H   UNL     1       6.803   5.713  20.311  0.00  0.00    +0.000 HD
ATOM     11  H   UNL     1       2.980   2.455  17.912  0.00  0.00    +0.000 HD
ENDROOT
BRANCH   8  12
ATOM     12  C   UNL     1       6.397   4.367  14.913  0.00  0.00    +0.000 A 
ATOM     13  C   UNL     1       5.738   3.622  13.933  0.00  0.00    +0.000 A 
ATOM     14  C   UNL     1       6.157   3.726  12.600  0.00  0.00    +0.000 A 
ATOM     15  C   UNL     1       7.213   4.561  12.292  0.00  0.00    +0.000 A 
ATOM     16  C   UNL     1       7.811   5.278  13.312  0.00  0.00    +0.000 A 
ATOM     17  N   UNL     1       7.430   5.193  14.605  0.00  0.00    +0.000 NA
ENDBRANCH   8  12
BRANCH   6  18
ATOM     18  C   UNL     1       3.283   2.729  19.975  0.00  0.00    +0.000 C 
BRANCH  18  19
ATOM     19  C   UNL     1       1.790   3.156  20.058  0.00  0.00    +0.000 C 
ATOM     20  C   UNL     1       1.186   2.741  21.413  0.00  0.00    +0.000 C 
ATOM     21  C   UNL     1       1.705   4.689  19.929  0.00  0.00    +0.000 C 
ATOM     22  C   UNL     1       0.966   2.532  18.916  0.00  0.00    +0.000 C 
ENDBRANCH  18  19
ENDBRANCH   6  18
TORSDOF 3
ENDMDL
MODEL 3
REMARK VINA RESULT:      -7.7      0.869      1.358
REMARK  Name = 
REMARK  7 active torsions:
REMARK  status: ('A' for Active; 'I' for Inactive)
REMARK    1  A    between atoms: C_1  and  N_2
REMARK    2  A    between atoms: N_6  and  C_7
REMARK    3  A    between atoms: C_7  and  C_8
REMARK    4  A    between atoms: C_8  and  C_9
REMARK    5  A    between atoms: C_8  and  C_10
REMARK    6  A    between atoms: C_8  and  C_11
REMARK    7  A    between atoms: C_13  and  C_14
REMARK                            x       y       z     vdW  Elec       q    Type
REMARK                         _______ _______ _______ _____ _____    ______ ____
ROOT
ATOM      1  C   UNL     1       7.951   8.020  17.648  0.00  0.00    +0.000 C 
ATOM      2  N   UNL     1       7.109   7.101  18.366  0.00  0.00    +0.000 N 
ATOM      3  C   UNL     1       6.431   6.122  17.671  0.00  0.00    +0.000 A 
ATOM      4  N   UNL     1       5.520   5.422  18.352  0.00  0.00    +0.000 NA
ATOM      5  C   UNL     1       4.930   4.387  17.723  0.00  0.00    +0.000 A 
ATOM      6  N   UNL     1       4.100   3.501  18.420  0.00  0.00    +0.000 N 
ATOM      7  C   UNL     1       5.234   4.077  16.421  0.00  0.00    +0.000 A 
ATOM      8  C   UNL     1       6.147   4.875  15.767  0.00  0.00    +0.000 A 
ATOM      9  N   UNL     1       6.748   5.900  16.399  0.00  0.00    +0.000 NA
ATOM     10  H   UNL     1       6.631   7.384  19.210  0.00  0.00    +0.000 HD
ATOM     11  H   UNL     1       3.403   3.066  17.823  0.00  0.00    +0.000 HD
ENDROOT
BRANCH   8  12
ATOM     12  C   UNL     1       6.524   4.651  14.349  0.00  0.00    +0.000 A 
ATOM     13  C   UNL     1       5.874   3.702  13.557  0.00  0.00    +0.000 A 
ATOM     14  C   UNL     1       6.297   3.515  12.233  0.00  0.00    +0.000 A 
ATOM     15  C   UNL     1       7.346   4.272  11.750  0.00  0.00    +0.000 A 
ATOM     16  C   UNL     1       7.934   5.201  12.587  0.00  0.00    +0.000 A 
ATOM     17  N   UNL     1       7.550   5.400  13.868  0.00  0.00    +0.000 NA
ENDBRANCH   8  12
BRANCH   6  18
ATOM     18  C   UNL     1       3.628   3.903  19.739  0.00  0.00    +0.000 C 
BRANCH  18  19
ATOM     19  C   UNL     1       2.075   3.994  19.778  0.00  0.00    +0.000 C 
ATOM     20  C   UNL     1       1.629   5.264  20.524  0.00  0.00    +0.000 C 
ATOM     21  C   UNL     1       1.547   4.059  18.332  0.00  0.00    +0.000 C 
ATOM     22  C   UNL     1       1.460   2.756  20.457  0.00  0.00    +0.000 C 
ENDBRANCH  18  19
ENDBRANCH   6  18
TORSDOF 3
ENDMDL
MODEL 4
REMARK VINA RESULT:      -7.5      0.834      1.221
REMARK  Name = 
REMARK  7 active torsions:
REMARK  status: ('A' for Active; 'I' for Inactive)
REMARK    1  A    between atoms: C_1  and  N_2
REMARK    2  A    between atoms: N_6  and  C_7
REMARK    3  A    between atoms: C_7  and  C_8
REMARK    4  A    between atoms: C_8  and  C_9
REMARK    5  A    between atoms: C_8  and  C_10
REMARK    6  A    between atoms: C_8  and  C_11
REMARK    7  A    between atoms: C_13  and  C_14
REMARK                            x       y       z     vdW  Elec       q    Type
REMARK                         _______ _______ _______ _____ _____    ______ ____
ROOT
ATOM      1  C   UNL     1       8.219   5.601  18.990  0.00  0.00    +0.000 C 
ATOM      2  N   UNL     1       6.858   5.198  19.220  0.00  0.00    +0.000 N 
ATOM      3  C   UNL     1       6.022   4.994  18.142  0.00  0.00    +0.000 A 
ATOM      4  N   UNL     1       4.728   4.809  18.411  0.00  0.00    +0.000 NA
ATOM      5  C   UNL     1       3.915   4.496  17.383  0.00  0.00    +0.000 A 
ATOM      6  N   UNL     1       2.587   4.115  17.607  0.00  0.00    +0.000 N 
ATOM      7  C   UNL     1       4.394   4.393  16.101  0.00  0.00    +0.000 A 
ATOM      8  C   UNL     1       5.732   4.647  15.893  0.00  0.00    +0.000 A 
ATOM      9  N   UNL     1       6.548   4.947  16.921  0.00  0.00    +0.000 NA
ATOM     10  H   UNL     1       6.361   5.489  20.050  0.00  0.00    +0.000 HD
ATOM     11  H   UNL     1       1.981   4.323  16.819  0.00  0.00    +0.000 HD
ENDROOT
BRANCH   8  12
ATOM     12  C   UNL     1       6.349   4.598  14.544  0.00  0.00    +0.000 A 
ATOM     13  C   UNL     1       5.863   3.753  13.544  0.00  0.00    +0.000 A 
ATOM     14  C   UNL     1       6.507   3.729  12.299  0.00  0.00    +0.000 A 
ATOM     15  C   UNL     1       7.606   4.541  12.097  0.00  0.00    +0.000 A 
ATOM     16  C   UNL     1       8.024   5.361  13.128  0.00  0.00    +0.000 A 
ATOM     17  N   UNL     1       7.425   5.401  14.339  0.00  0.00    +0.000 NA
ENDBRANCH   8  12
BRANCH   6  18
ATOM     18  C   UNL     1       2.013   4.382  18.921  0.00  0.00    +0.000 C 
BRANCH  18  19
ATOM     19  C   UNL     1       1.698   3.059  19.677  0.00  0.00    +0.000 C 
ATOM     20  C   UNL     1       2.983   2.234  19.874  0.00  0.00    +0.000 C 
ATOM     21  C   UNL     1       1.116   3.405  21.060  0.00  0.00    +0.000 C 
ATOM     22  C   UNL     1       0.658   2.216  18.916  0.00  0.00    +0.000 C 
ENDBRANCH  18  19
ENDBRANCH   6  18
TORSDOF 3
ENDMDL
MODEL 5
REMARK VINA RESULT:      -7.3      0.683      1.094
REMARK  Name = 
REMARK  7 active torsions:
REMARK  status: ('A' for Active; 'I' for Inactive)
REMARK    1  A    between atoms: C_1  and  N_2
REMARK    2  A    between atoms: N_6  and  C_7
REMARK    3  A    between atoms: C_7  and  C_8
REMARK    4  A    between atoms: C_8  and  C_9
REMARK    5  A    between atoms: C_8  and  C_10
REMARK    6  A    between atoms: C_8  and  C_11
REMARK    7  A    between atoms: C_13  and  C_14
REMARK                            x       y       z     vdW  Elec       q    Type
REMARK                         _______ _______ _______ _____ _____    ______ ____
ROOT
ATOM      1  C   UNL     1       8.111   6.893  18.508  0.00  0.00    +0.000 C 
ATOM      2  N   UNL     1       7.166   5.950  19.041  0.00  0.00    +0.000 N 
ATOM      3  C   UNL     1       6.413   5.185  18.176  0.00  0.00    +0.000 A 
ATOM      4  N   UNL     1       5.421   4.468  18.712  0.00  0.00    +0.000 NA
ATOM      5  C   UNL     1       4.748   3.629  17.903  0.00  0.00    +0.000 A 
ATOM      6  N   UNL     1       3.819   2.719  18.422  0.00  0.00    +0.000 N 
ATOM      7  C   UNL     1       5.052   3.529  16.568  0.00  0.00    +0.000 A 
ATOM      8  C   UNL     1       6.054   4.337  16.075  0.00  0.00    +0.000 A 
ATOM      9  N   UNL     1       6.737   5.166  16.887  0.00  0.00    +0.000 NA
ATOM     10  H   UNL     1       6.697   6.121  19.920  0.00  0.00    +0.000 HD
ATOM     11  H   UNL     1       3.098   2.471  17.751  0.00  0.00    +0.000 HD
ENDROOT
BRANCH   8  12
ATOM     12  C   UNL     1       6.441   4.336  14.642  0.00  0.00    +0.000 A 
ATOM     13  C   UNL     1       7.434   5.184  14.148  0.00  0.00    +0.000 A 
ATOM     14  C   UNL     1       7.734   5.158  12.779  0.00  0.00    +0.000 A 
ATOM     15  C   UNL     1       7.037   4.296  11.956  0.00  0.00    +0.000 A 
ATOM     16  C   UNL     1       6.075   3.476  12.516  0.00  0.00    +0.000 A 
ATOM     17  N   UNL     1       5.763   3.483  13.831  0.00  0.00    +0.000 NA
ENDBRANCH   8  12
BRANCH   6  18
ATOM     18  C   UNL     1       3.357   2.922  19.789  0.00  0.00    +0.000 C 
BRANCH  18  19
ATOM     19  C   UNL     1       1.871   3.380  19.818  0.00  0.00    +0.000 C 
ATOM     20  C   UNL     1       1.104   2.796  18.617  0.00  0.00    +0.000 C 
ATOM     21  C   UNL     1       1.220   2.868  21.117  0.00  0.00    +0.000 C 
ATOM     22  C   UNL     1       1.760   4.917  19.800  0.00  0.00    +0.000 C 
ENDBRANCH  18  19
ENDBRANCH   6  18
TORSDOF 3
ENDMDL
MODEL 6
REMARK VINA RESULT:      -7.3      0.840      1.586
REMARK  Name = 
REMARK  7 active torsions:
REMARK  status: ('A' for Active; 'I' for Inactive)
REMARK    1  A    between atoms: C_1  and  N_2
REMARK    2  A    between atoms: N_6  and  C_7
REMARK    3  A    between atoms: C_7  and  C_8
REMARK    4  A    between atoms: C_8  and  C_9
REMARK    5  A    between atoms: C_8  and  C_10
REMARK    6  A    between atoms: C_8  and  C_11
REMARK    7  A    between atoms: C_13  and  C_14
REMARK                            x       y       z     vdW  Elec       q    Type
REMARK                         _______ _______ _______ _____ _____    ______ ____
ROOT
ATOM      1  C   UNL     1       8.126   6.811  18.533  0.00  0.00    +0.000 C 
ATOM      2  N   UNL     1       7.115   5.902  19.001  0.00  0.00    +0.000 N 
ATOM      3  C   UNL     1       6.370   5.190  18.086  0.00  0.00    +0.000 A 
ATOM      4  N   UNL     1       5.323   4.510  18.560  0.00  0.00    +0.000 NA
ATOM      5  C   UNL     1       4.651   3.718  17.702  0.00  0.00    +0.000 A 
ATOM      6  N   UNL     1       3.659   2.843  18.158  0.00  0.00    +0.000 N 
ATOM      7  C   UNL     1       5.013   3.631  16.381  0.00  0.00    +0.000 A 
ATOM      8  C   UNL     1       6.073   4.401  15.953  0.00  0.00    +0.000 A 
ATOM      9  N   UNL     1       6.754   5.181  16.812  0.00  0.00    +0.000 NA
ATOM     10  H   UNL     1       6.614   6.078  19.861  0.00  0.00    +0.000 HD
ATOM     11  H   UNL     1       2.959   2.642  17.450  0.00  0.00    +0.000 HD
ENDROOT
BRANCH   8  12
ATOM     12  C   UNL     1       6.526   4.410  14.539  0.00  0.00    +0.000 A 
ATOM     13  C   UNL     1       7.511   5.291  14.089  0.00  0.00    +0.000 A 
ATOM     14  C   UNL     1       7.875   5.273  12.735  0.00  0.00    +0.000 A 
ATOM     15  C   UNL     1       7.248   4.384  11.884  0.00  0.00    +0.000 A 
ATOM     16  C   UNL     1       6.291   3.532  12.402  0.00  0.00    +0.000 A 
ATOM     17  N   UNL     1       5.918   3.532  13.701  0.00  0.00    +0.000 NA
ENDBRANCH   8  12
BRANCH   6  18
ATOM     18  C   UNL     1       3.142   3.041  19.507  0.00  0.00    +0.000 C 
BRANCH  18  19
ATOM     19  C   UNL     1       1.828   3.873  19.490  0.00  0.00    +0.000 C 
ATOM     20  C   UNL     1       2.080   5.287  20.047  0.00  0.00    +0.000 C 
ATOM     21  C   UNL     1       1.339   3.996  18.034  0.00  0.00    +0.000 C 
ATOM     22  C   UNL     1       0.721   3.186  20.311  0.00  0.00    +0.000 C 
ENDBRANCH  18  19
ENDBRANCH   6  18
TORSDOF 3
ENDMDL
MODEL 7
REMARK VINA RESULT:      -7.2      0.806      1.477
REMARK  Name = 
REMARK  7 active torsions:
REMARK  status: ('A' for Active; 'I' for Inactive)
REMARK    1  A    between atoms: C_1  and  N_2
REMARK    2  A    between atoms: N_6  and  C_7
REMARK    3  A    between atoms: C_7  and  C_8
REMARK    4  A    between atoms: C_8  and  C_9
REMARK    5  A    between atoms: C_8  and  C_10
REMARK    6  A    between atoms: C_8  and  C_11
REMARK    7  A    between atoms: C_13  and  C_14
REMARK                            x       y       z     vdW  Elec       q    Type
REMARK                         _______ _______ _______ _____ _____    ______ ____
ROOT
ATOM      1  C   UNL     1       8.260   6.585  18.926  0.00  0.00    +0.000 C 
ATOM      2  N   UNL     1       7.272   5.673  19.437  0.00  0.00    +0.000 N 
ATOM      3  C   UNL     1       6.461   4.992  18.555  0.00  0.00    +0.000 A 
ATOM      4  N   UNL     1       5.440   4.309  19.079  0.00  0.00    +0.000 NA
ATOM      5  C   UNL     1       4.705   3.546  18.247  0.00  0.00    +0.000 A 
ATOM      6  N   UNL     1       3.736   2.668  18.745  0.00  0.00    +0.000 N 
ATOM      7  C   UNL     1       4.978   3.491  16.903  0.00  0.00    +0.000 A 
ATOM      8  C   UNL     1       6.015   4.263  16.426  0.00  0.00    +0.000 A 
ATOM      9  N   UNL     1       6.760   5.014  17.259  0.00  0.00    +0.000 NA
ATOM     10  H   UNL     1       6.831   5.831  20.332  0.00  0.00    +0.000 HD
ATOM     11  H   UNL     1       2.989   2.492  18.079  0.00  0.00    +0.000 HD
ENDROOT
BRANCH   8  12
ATOM     12  C   UNL     1       6.376   4.305  14.986  0.00  0.00    +0.000 A 
ATOM     13  C   UNL     1       7.407   5.117  14.510  0.00  0.00    +0.000 A 
ATOM     14  C   UNL     1       7.679   5.137  13.135  0.00  0.00    +0.000 A 
ATOM     15  C   UNL     1       6.918   4.354  12.289  0.00  0.00    +0.000 A 
ATOM     16  C   UNL     1       5.921   3.565  12.832  0.00  0.00    +0.000 A 
ATOM     17  N   UNL     1       5.635   3.530  14.153  0.00  0.00    +0.000 NA
ENDBRANCH   8  12
BRANCH   6  18
ATOM     18  C   UNL     1       3.311   2.834  20.130  0.00  0.00    +0.000 C 
BRANCH  18  19
ATOM     19  C   UNL     1       1.812   3.244  20.213  0.00  0.00    +0.000 C 
ATOM     20  C   UNL     1       1.183   2.720  21.517  0.00  0.00    +0.000 C 
ATOM     21  C   UNL     1       1.718   4.782  20.202  0.00  0.00    +0.000 C 
ATOM     22  C   UNL     1       1.019   2.707  19.007  0.00  0.00    +0.000 C 
ENDBRANCH  18  19
ENDBRANCH   6  18
TORSDOF 3
ENDMDL
MODEL 8
REMARK VINA RESULT:      -7.2      1.087      1.637
REMARK  Name = 
REMARK  7 active torsions:
REMARK  status: ('A' for Active; 'I' for Inactive)
REMARK    1  A    between atoms: C_1  and  N_2
REMARK    2  A    between atoms: N_6  and  C_7
REMARK    3  A    between atoms: C_7  and  C_8
REMARK    4  A    between atoms: C_8  and  C_9
REMARK    5  A    between atoms: C_8  and  C_10
REMARK    6  A    between atoms: C_8  and  C_11
REMARK    7  A    between atoms: C_13  and  C_14
REMARK                            x       y       z     vdW  Elec       q    Type
REMARK                         _______ _______ _______ _____ _____    ______ ____
ROOT
ATOM      1  C   UNL     1       7.903   7.930  17.537  0.00  0.00    +0.000 C 
ATOM      2  N   UNL     1       7.002   7.079  18.266  0.00  0.00    +0.000 N 
ATOM      3  C   UNL     1       6.294   6.108  17.590  0.00  0.00    +0.000 A 
ATOM      4  N   UNL     1       5.335   5.477  18.272  0.00  0.00    +0.000 NA
ATOM      5  C   UNL     1       4.710   4.449  17.666  0.00  0.00    +0.000 A 
ATOM      6  N   UNL     1       3.824   3.628  18.374  0.00  0.00    +0.000 N 
ATOM      7  C   UNL     1       5.028   4.078  16.384  0.00  0.00    +0.000 A 
ATOM      8  C   UNL     1       5.992   4.809  15.724  0.00  0.00    +0.000 A 
ATOM      9  N   UNL     1       6.628   5.827  16.334  0.00  0.00    +0.000 NA
ATOM     10  H   UNL     1       6.520   7.413  19.089  0.00  0.00    +0.000 HD
ATOM     11  H   UNL     1       3.120   3.205  17.776  0.00  0.00    +0.000 HD
ENDROOT
BRANCH   8  12
ATOM     12  C   UNL     1       6.389   4.517  14.323  0.00  0.00    +0.000 A 
ATOM     13  C   UNL     1       7.431   5.202  13.696  0.00  0.00    +0.000 A 
ATOM     14  C   UNL     1       7.738   4.903  12.362  0.00  0.00    +0.000 A 
ATOM     15  C   UNL     1       7.000   3.939  11.703  0.00  0.00    +0.000 A 
ATOM     16  C   UNL     1       5.991   3.292  12.391  0.00  0.00    +0.000 A 
ATOM     17  N   UNL     1       5.671   3.564  13.675  0.00  0.00    +0.000 NA
ENDBRANCH   8  12
BRANCH   6  18
ATOM     18  C   UNL     1       3.342   4.099  19.667  0.00  0.00    +0.000 C 
BRANCH  18  19
ATOM     19  C   UNL     1       2.152   3.235  20.173  0.00  0.00    +0.000 C 
ATOM     20  C   UNL     1       2.463   2.654  21.565  0.00  0.00    +0.000 C 
ATOM     21  C   UNL     1       0.901   4.128  20.278  0.00  0.00    +0.000 C 
ATOM     22  C   UNL     1       1.840   2.087  19.194  0.00  0.00    +0.000 C 
ENDBRANCH  18  19
ENDBRANCH   6  18
TORSDOF 3
ENDMDL
MODEL 9
REMARK VINA RESULT:      -7.0      1.218      6.617
REMARK  Name = 
REMARK  7 active torsions:
REMARK  status: ('A' for Active; 'I' for Inactive)
REMARK    1  A    between atoms: C_1  and  N_2
REMARK    2  A    between atoms: N_6  and  C_7
REMARK    3  A    between atoms: C_7  and  C_8
REMARK    4  A    between atoms: C_8  and  C_9
REMARK    5  A    between atoms: C_8  and  C_10
REMARK    6  A    between atoms: C_8  and  C_11
REMARK    7  A    between atoms: C_13  and  C_14
REMARK                            x       y       z     vdW  Elec       q    Type
REMARK                         _______ _______ _______ _____ _____    ______ ____
ROOT
ATOM      1  C   UNL     1       7.858   5.530  19.718  0.00  0.00    +0.000 C 
ATOM      2  N   UNL     1       7.751   5.346  18.296  0.00  0.00    +0.000 N 
ATOM      3  C   UNL     1       6.599   4.802  17.769  0.00  0.00    +0.000 A 
ATOM      4  N   UNL     1       6.624   4.475  16.475  0.00  0.00    +0.000 NA
ATOM      5  C   UNL     1       5.475   4.050  15.916  0.00  0.00    +0.000 A 
ATOM      6  N   UNL     1       5.376   3.859  14.533  0.00  0.00    +0.000 N 
ATOM      7  C   UNL     1       4.324   3.932  16.654  0.00  0.00    +0.000 A 
ATOM      8  C   UNL     1       4.387   4.239  17.996  0.00  0.00    +0.000 A 
ATOM      9  N   UNL     1       5.531   4.678  18.552  0.00  0.00    +0.000 NA
ATOM     10  H   UNL     1       8.568   5.151  17.733  0.00  0.00    +0.000 HD
ATOM     11  H   UNL     1       4.678   3.164  14.282  0.00  0.00    +0.000 HD
ENDROOT
BRANCH   8  12
ATOM     12  C   UNL     1       3.211   4.115  18.894  0.00  0.00    +0.000 A 
ATOM     13  C   UNL     1       2.734   5.199  19.634  0.00  0.00    +0.000 A 
ATOM     14  C   UNL     1       1.639   5.011  20.489  0.00  0.00    +0.000 A 
ATOM     15  C   UNL     1       1.063   3.759  20.577  0.00  0.00    +0.000 A 
ATOM     16  C   UNL     1       1.581   2.735  19.805  0.00  0.00    +0.000 A 
ATOM     17  N   UNL     1       2.638   2.887  18.977  0.00  0.00    +0.000 NA
ENDBRANCH   8  12
BRANCH   6  18
ATOM     18  C   UNL     1       6.612   3.807  13.761  0.00  0.00    +0.000 C 
BRANCH  18  19
ATOM     19  C   UNL     1       6.322   3.600  12.247  0.00  0.00    +0.000 C 
ATOM     20  C   UNL     1       4.809   3.691  11.972  0.00  0.00    +0.000 C 
ATOM     21  C   UNL     1       7.037   4.707  11.449  0.00  0.00    +0.000 C 
ATOM     22  C   UNL     1       6.851   2.238  11.758  0.00  0.00    +0.000 C 
ENDBRANCH  18  19
ENDBRANCH   6  18
TORSDOF 3
ENDMDL
