MODEL 1
REMARK VINA RESULT:      -8.9      0.000      0.000
REMARK  Name = 
REMARK  3 active torsions:
REMARK  status: ('A' for Active; 'I' for Inactive)
REMARK    1  A    between atoms: O_1  and  C_2
REMARK    2  A    between atoms: C_6  and  C_7
REMARK    3  A    between atoms: C_12  and  O_13
REMARK                            x       y       z     vdW  Elec       q    Type
REMARK                         _______ _______ _______ _____ _____    ______ ____
ROOT
ATOM      1  C   UNL     1       3.149   6.087  18.504  0.00  0.00    +0.000 C 
ATOM      2  O   UNL     1       4.180   5.558  19.369  0.00  0.00    +0.000 OA
ATOM      3  C   UNL     1       5.171   5.112  18.524  0.00  0.00    +0.000 A 
ATOM      4  C   UNL     1       6.461   5.594  18.695  0.00  0.00    +0.000 A 
ATOM      5  C   UNL     1       7.387   5.392  17.671  0.00  0.00    +0.000 A 
ATOM      6  C   UNL     1       6.995   4.695  16.524  0.00  0.00    +0.000 A 
ATOM      7  C   UNL     1       5.726   4.129  16.402  0.00  0.00    +0.000 A 
ATOM      8  C   UNL     1       4.797   4.331  17.419  0.00  0.00    +0.000 A 
ATOM      9  C   UNL     1       3.376   3.816  17.387  0.00  0.00    +0.000 C 
ATOM     10  C   UNL     1       3.224   2.643  18.370  0.00  0.00    +0.000 C 
ATOM     11  C   UNL     1       1.966   2.884  19.187  0.00  0.00    +0.000 C 
ATOM     12  C   UNL     1       1.340   4.176  18.689  0.00  0.00    +0.000 C 
ATOM     13  C   UNL     1       2.377   4.915  17.846  0.00  0.00    +0.000 C 
ENDROOT
BRANCH   1  18
ATOM     14  C   UNL     1       1.255   9.365  18.837  0.00  0.00    +0.000 A 
ATOM     15  C   UNL     1       0.781   9.319  20.140  0.00  0.00    +0.000 A 
ATOM     16  C   UNL     1       1.134   8.243  20.957  0.00  0.00    +0.000 A 
ATOM     17  C   UNL     1       1.955   7.218  20.470  0.00  0.00    +0.000 A 
ATOM     18  C   UNL     1       2.447   7.264  19.160  0.00  0.00    +0.000 A 
ATOM     19  C   UNL     1       2.075   8.355  18.348  0.00  0.00    +0.000 A 
BRANCH  14  20
ATOM     20  O   UNL     1       0.912  10.369  17.982  0.00  0.00    +0.000 OA
ATOM     21  H   UNL     1       1.620  11.033  17.984  0.00  0.00    +0.000 HD
ENDBRANCH  14  20
ENDBRANCH   1  18
BRANCH   6  22
ATOM     22  O   UNL     1       7.846   4.576  15.464  0.00  0.00    +0.000 OA
ATOM     23  H   UNL     1       8.381   5.384  15.412  0.00  0.00    +0.000 HD
ENDBRANCH   6  22
TORSDOF 3
ENDMDL
MODEL 2
REMARK VINA RESULT:      -8.7      1.091      1.509
REMARK  Name = 
REMARK  3 active torsions:
REMARK  status: ('A' for Active; 'I' for Inactive)
REMARK    1  A    between atoms: O_1  and  C_2
REMARK    2  A    between atoms: C_6  and  C_7
REMARK    3  A    between atoms: C_12  and  O_13
REMARK                            x       y       z     vdW  Elec       q    Type
REMARK                         _______ _______ _______ _____ _____    ______ ____
ROOT
ATOM      1  C   UNL     1       3.020   6.078  18.094  0.00  0.00    +0.000 C 
ATOM      2  O   UNL     1       4.171   5.803  18.926  0.00  0.00    +0.000 OA
ATOM      3  C   UNL     1       5.153   5.377  18.059  0.00  0.00    +0.000 A 
ATOM      4  C   UNL     1       6.374   6.037  18.057  0.00  0.00    +0.000 A 
ATOM      5  C   UNL     1       7.246   5.819  16.990  0.00  0.00    +0.000 A 
ATOM      6  C   UNL     1       6.874   4.931  15.976  0.00  0.00    +0.000 A 
ATOM      7  C   UNL     1       5.688   4.198  16.035  0.00  0.00    +0.000 A 
ATOM      8  C   UNL     1       4.814   4.415  17.095  0.00  0.00    +0.000 A 
ATOM      9  C   UNL     1       3.478   3.725  17.250  0.00  0.00    +0.000 C 
ATOM     10  C   UNL     1       3.555   2.684  18.379  0.00  0.00    +0.000 C 
ATOM     11  C   UNL     1       2.336   2.870  19.265  0.00  0.00    +0.000 C 
ATOM     12  C   UNL     1       1.507   3.995  18.669  0.00  0.00    +0.000 C 
ATOM     13  C   UNL     1       2.372   4.740  17.654  0.00  0.00    +0.000 C 
ENDROOT
BRANCH   1  18
ATOM     14  C   UNL     1       1.514   8.451  20.651  0.00  0.00    +0.000 A 
ATOM     15  C   UNL     1       1.104   9.526  19.874  0.00  0.00    +0.000 A 
ATOM     16  C   UNL     1       1.251   9.460  18.488  0.00  0.00    +0.000 A 
ATOM     17  C   UNL     1       1.807   8.326  17.883  0.00  0.00    +0.000 A 
ATOM     18  C   UNL     1       2.212   7.233  18.659  0.00  0.00    +0.000 A 
ATOM     19  C   UNL     1       2.061   7.320  20.058  0.00  0.00    +0.000 A 
BRANCH  14  20
ATOM     20  O   UNL     1       1.432   8.475  22.011  0.00  0.00    +0.000 OA
ATOM     21  H   UNL     1       2.290   8.206  22.377  0.00  0.00    +0.000 HD
ENDBRANCH  14  20
ENDBRANCH   1  18
BRANCH   6  22
ATOM     22  O   UNL     1       7.657   4.781  14.869  0.00  0.00    +0.000 OA
ATOM     23  H   UNL     1       8.057   5.640  14.660  0.00  0.00    +0.000 HD
ENDBRANCH   6  22
TORSDOF 3
ENDMDL
MODEL 3
REMARK VINA RESULT:      -8.4      1.433      6.007
REMARK  Name = 
REMARK  3 active torsions:
REMARK  status: ('A' for Active; 'I' for Inactive)
REMARK    1  A    between atoms: O_1  and  C_2
REMARK    2  A    between atoms: C_6  and  C_7
REMARK    3  A    between atoms: C_12  and  O_13
REMARK                            x       y       z     vdW  Elec       q    Type
REMARK                         _______ _______ _______ _____ _____    ______ ____
ROOT
ATOM      1  C   UNL     1       3.971   5.869  18.535  0.00  0.00    +0.000 C 
ATOM      2  O   UNL     1       2.763   6.200  17.811  0.00  0.00    +0.000 OA
ATOM      3  C   UNL     1       2.091   7.093  18.615  0.00  0.00    +0.000 A 
ATOM      4  C   UNL     1       1.732   8.326  18.090  0.00  0.00    +0.000 A 
ATOM      5  C   UNL     1       1.336   9.334  18.969  0.00  0.00    +0.000 A 
ATOM      6  C   UNL     1       1.291   9.064  20.341  0.00  0.00    +0.000 A 
ATOM      7  C   UNL     1       1.559   7.794  20.852  0.00  0.00    +0.000 A 
ATOM      8  C   UNL     1       1.959   6.787  19.979  0.00  0.00    +0.000 A 
ATOM      9  C   UNL     1       2.326   5.385  20.410  0.00  0.00    +0.000 C 
ATOM     10  C   UNL     1       1.215   4.404  19.999  0.00  0.00    +0.000 C 
ATOM     11  C   UNL     1       1.876   3.206  19.339  0.00  0.00    +0.000 C 
ATOM     12  C   UNL     1       3.377   3.439  19.371  0.00  0.00    +0.000 C 
ATOM     13  C   UNL     1       3.625   4.909  19.702  0.00  0.00    +0.000 C 
ENDROOT
BRANCH   1  18
ATOM     14  C   UNL     1       7.303   4.580  17.238  0.00  0.00    +0.000 A 
ATOM     15  C   UNL     1       7.165   4.692  15.862  0.00  0.00    +0.000 A 
ATOM     16  C   UNL     1       6.002   5.258  15.337  0.00  0.00    +0.000 A 
ATOM     17  C   UNL     1       4.983   5.709  16.185  0.00  0.00    +0.000 A 
ATOM     18  C   UNL     1       5.120   5.610  17.575  0.00  0.00    +0.000 A 
ATOM     19  C   UNL     1       6.298   5.030  18.087  0.00  0.00    +0.000 A 
BRANCH  14  20
ATOM     20  O   UNL     1       8.397   4.000  17.807  0.00  0.00    +0.000 OA
ATOM     21  H   UNL     1       8.108   3.479  18.574  0.00  0.00    +0.000 HD
ENDBRANCH  14  20
ENDBRANCH   1  18
BRANCH   6  22
ATOM     22  O   UNL     1       1.013  10.060  21.231  0.00  0.00    +0.000 OA
ATOM     23  H   UNL     1       0.269  10.579  20.884  0.00  0.00    +0.000 HD
ENDBRANCH   6  22
TORSDOF 3
ENDMDL
MODEL 4
REMARK VINA RESULT:      -8.2      1.366      5.817
REMARK  Name = 
REMARK  3 active torsions:
REMARK  status: ('A' for Active; 'I' for Inactive)
REMARK    1  A    between atoms: O_1  and  C_2
REMARK    2  A    between atoms: C_6  and  C_7
REMARK    3  A    between atoms: C_12  and  O_13
REMARK                            x       y       z     vdW  Elec       q    Type
REMARK                         _______ _______ _______ _____ _____    ______ ____
ROOT
ATOM      1  C   UNL     1       3.941   5.243  18.968  0.00  0.00    +0.000 C 
ATOM      2  O   UNL     1       2.863   5.631  18.084  0.00  0.00    +0.000 OA
ATOM      3  C   UNL     1       2.187   6.629  18.750  0.00  0.00    +0.000 A 
ATOM      4  C   UNL     1       2.011   7.852  18.120  0.00  0.00    +0.000 A 
ATOM      5  C   UNL     1       1.610   8.944  18.888  0.00  0.00    +0.000 A 
ATOM      6  C   UNL     1       1.378   8.768  20.256  0.00  0.00    +0.000 A 
ATOM      7  C   UNL     1       1.463   7.515  20.864  0.00  0.00    +0.000 A 
ATOM      8  C   UNL     1       1.867   6.423  20.101  0.00  0.00    +0.000 A 
ATOM      9  C   UNL     1       2.047   5.025  20.648  0.00  0.00    +0.000 C 
ATOM     10  C   UNL     1       0.905   4.120  20.155  0.00  0.00    +0.000 C 
ATOM     11  C   UNL     1       1.524   2.830  19.646  0.00  0.00    +0.000 C 
ATOM     12  C   UNL     1       3.025   2.932  19.852  0.00  0.00    +0.000 C 
ATOM     13  C   UNL     1       3.370   4.394  20.132  0.00  0.00    +0.000 C 
ENDROOT
BRANCH   1  18
ATOM     14  C   UNL     1       6.071   4.219  15.992  0.00  0.00    +0.000 A 
ATOM     15  C   UNL     1       7.365   4.423  16.451  0.00  0.00    +0.000 A 
ATOM     16  C   UNL     1       7.563   4.832  17.771  0.00  0.00    +0.000 A 
ATOM     17  C   UNL     1       6.473   5.039  18.625  0.00  0.00    +0.000 A 
ATOM     18  C   UNL     1       5.165   4.825  18.172  0.00  0.00    +0.000 A 
ATOM     19  C   UNL     1       4.984   4.417  16.835  0.00  0.00    +0.000 A 
BRANCH  14  20
ATOM     20  O   UNL     1       5.814   3.858  14.704  0.00  0.00    +0.000 OA
ATOM     21  H   UNL     1       5.074   3.229  14.700  0.00  0.00    +0.000 HD
ENDBRANCH  14  20
ENDBRANCH   1  18
BRANCH   6  22
ATOM     22  O   UNL     1       1.091   9.839  21.052  0.00  0.00    +0.000 OA
ATOM     23  H   UNL     1       0.985  10.620  20.484  0.00  0.00    +0.000 HD
ENDBRANCH   6  22
TORSDOF 3
ENDMDL
MODEL 5
REMARK VINA RESULT:      -8.0      2.986      6.627
REMARK  Name = 
REMARK  3 active torsions:
REMARK  status: ('A' for Active; 'I' for Inactive)
REMARK    1  A    between atoms: O_1  and  C_2
REMARK    2  A    between atoms: C_6  and  C_7
REMARK    3  A    between atoms: C_12  and  O_13
REMARK                            x       y       z     vdW  Elec       q    Type
REMARK                         _______ _______ _______ _____ _____    ______ ____
ROOT
ATOM      1  C   UNL     1       5.301   4.791  16.060  0.00  0.00    +0.000 C 
ATOM      2  O   UNL     1       5.479   3.548  16.779  0.00  0.00    +0.000 OA
ATOM      3  C   UNL     1       4.390   3.451  17.615  0.00  0.00    +0.000 A 
ATOM      4  C   UNL     1       3.596   2.316  17.549  0.00  0.00    +0.000 A 
ATOM      5  C   UNL     1       2.341   2.346  18.158  0.00  0.00    +0.000 A 
ATOM      6  C   UNL     1       1.937   3.503  18.831  0.00  0.00    +0.000 A 
ATOM      7  C   UNL     1       2.780   4.605  18.977  0.00  0.00    +0.000 A 
ATOM      8  C   UNL     1       4.031   4.581  18.367  0.00  0.00    +0.000 A 
ATOM      9  C   UNL     1       5.018   5.726  18.406  0.00  0.00    +0.000 C 
ATOM     10  C   UNL     1       6.187   5.376  19.340  0.00  0.00    +0.000 C 
ATOM     11  C   UNL     1       7.477   5.720  18.615  0.00  0.00    +0.000 C 
ATOM     12  C   UNL     1       7.099   6.300  17.263  0.00  0.00    +0.000 C 
ATOM     13  C   UNL     1       5.629   5.979  17.000  0.00  0.00    +0.000 C 
ENDROOT
BRANCH   1  18
ATOM     14  C   UNL     1       7.714   5.169  13.150  0.00  0.00    +0.000 A 
ATOM     15  C   UNL     1       7.231   4.255  12.224  0.00  0.00    +0.000 A 
ATOM     16  C   UNL     1       6.063   3.547  12.511  0.00  0.00    +0.000 A 
ATOM     17  C   UNL     1       5.383   3.753  13.718  0.00  0.00    +0.000 A 
ATOM     18  C   UNL     1       5.857   4.683  14.651  0.00  0.00    +0.000 A 
ATOM     19  C   UNL     1       7.042   5.383  14.347  0.00  0.00    +0.000 A 
BRANCH  14  20
ATOM     20  O   UNL     1       8.871   5.859  12.942  0.00  0.00    +0.000 OA
ATOM     21  H   UNL     1       9.098   6.334  13.758  0.00  0.00    +0.000 HD
ENDBRANCH  14  20
ENDBRANCH   1  18
BRANCH   6  22
ATOM     22  O   UNL     1       0.675   3.599  19.342  0.00  0.00    +0.000 OA
ATOM     23  H   UNL     1       0.204   4.298  18.860  0.00  0.00    +0.000 HD
ENDBRANCH   6  22
TORSDOF 3
ENDMDL
MODEL 6
REMARK VINA RESULT:      -7.9      3.203      5.023
REMARK  Name = 
REMARK  3 active torsions:
REMARK  status: ('A' for Active; 'I' for Inactive)
REMARK    1  A    between atoms: O_1  and  C_2
REMARK    2  A    between atoms: C_6  and  C_7
REMARK    3  A    between atoms: C_12  and  O_13
REMARK                            x       y       z     vdW  Elec       q    Type
REMARK                         _______ _______ _______ _____ _____    ______ ____
ROOT
ATOM      1  C   UNL     1       4.809   4.795  17.018  0.00  0.00    +0.000 C 
ATOM      2  O   UNL     1       6.013   4.128  17.463  0.00  0.00    +0.000 OA
ATOM      3  C   UNL     1       6.906   5.138  17.745  0.00  0.00    +0.000 A 
ATOM      4  C   UNL     1       7.482   5.187  19.006  0.00  0.00    +0.000 A 
ATOM      5  C   UNL     1       8.134   6.358  19.394  0.00  0.00    +0.000 A 
ATOM      6  C   UNL     1       8.205   7.429  18.497  0.00  0.00    +0.000 A 
ATOM      7  C   UNL     1       7.709   7.336  17.197  0.00  0.00    +0.000 A 
ATOM      8  C   UNL     1       7.054   6.172  16.806  0.00  0.00    +0.000 A 
ATOM      9  C   UNL     1       6.429   5.963  15.446  0.00  0.00    +0.000 C 
ATOM     10  C   UNL     1       7.282   4.984  14.623  0.00  0.00    +0.000 C 
ATOM     11  C   UNL     1       6.346   3.959  14.007  0.00  0.00    +0.000 C 
ATOM     12  C   UNL     1       4.932   4.324  14.426  0.00  0.00    +0.000 C 
ATOM     13  C   UNL     1       5.018   5.325  15.576  0.00  0.00    +0.000 C 
ENDROOT
BRANCH   1  18
ATOM     14  C   UNL     1       2.698   1.974  18.439  0.00  0.00    +0.000 A 
ATOM     15  C   UNL     1       1.459   2.573  18.621  0.00  0.00    +0.000 A 
ATOM     16  C   UNL     1       1.276   3.897  18.215  0.00  0.00    +0.000 A 
ATOM     17  C   UNL     1       2.327   4.615  17.631  0.00  0.00    +0.000 A 
ATOM     18  C   UNL     1       3.576   4.013  17.433  0.00  0.00    +0.000 A 
ATOM     19  C   UNL     1       3.744   2.678  17.856  0.00  0.00    +0.000 A 
BRANCH  14  20
ATOM     20  O   UNL     1       2.947   0.700  18.852  0.00  0.00    +0.000 OA
ATOM     21  H   UNL     1       3.838   0.449  18.561  0.00  0.00    +0.000 HD
ENDBRANCH  14  20
ENDBRANCH   1  18
BRANCH   6  22
ATOM     22  O   UNL     1       8.740   8.622  18.887  0.00  0.00    +0.000 OA
ATOM     23  H   UNL     1       8.013   9.249  19.029  0.00  0.00    +0.000 HD
ENDBRANCH   6  22
TORSDOF 3
ENDMDL
MODEL 7
REMARK VINA RESULT:      -7.8      3.521      4.842
REMARK  Name = 
REMARK  3 active torsions:
REMARK  status: ('A' for Active; 'I' for Inactive)
REMARK    1  A    between atoms: O_1  and  C_2
REMARK    2  A    between atoms: C_6  and  C_7
REMARK    3  A    between atoms: C_12  and  O_13
REMARK                            x       y       z     vdW  Elec       q    Type
REMARK                         _______ _______ _______ _____ _____    ______ ____
ROOT
ATOM      1  C   UNL     1       4.943   4.747  17.552  0.00  0.00    +0.000 C 
ATOM      2  O   UNL     1       6.258   4.250  17.893  0.00  0.00    +0.000 OA
ATOM      3  C   UNL     1       7.062   5.365  17.965  0.00  0.00    +0.000 A 
ATOM      4  C   UNL     1       7.778   5.598  19.130  0.00  0.00    +0.000 A 
ATOM      5  C   UNL     1       8.340   6.860  19.324  0.00  0.00    +0.000 A 
ATOM      6  C   UNL     1       8.183   7.836  18.335  0.00  0.00    +0.000 A 
ATOM      7  C   UNL     1       7.546   7.564  17.124  0.00  0.00    +0.000 A 
ATOM      8  C   UNL     1       6.981   6.308  16.927  0.00  0.00    +0.000 A 
ATOM      9  C   UNL     1       6.222   5.902  15.685  0.00  0.00    +0.000 C 
ATOM     10  C   UNL     1       7.071   4.933  14.847  0.00  0.00    +0.000 C 
ATOM     11  C   UNL     1       6.186   3.764  14.451  0.00  0.00    +0.000 C 
ATOM     12  C   UNL     1       4.801   4.029  15.018  0.00  0.00    +0.000 C 
ATOM     13  C   UNL     1       4.916   5.146  16.054  0.00  0.00    +0.000 C 
ENDROOT
BRANCH   1  18
ATOM     14  C   UNL     1       3.056   2.810  20.221  0.00  0.00    +0.000 A 
ATOM     15  C   UNL     1       1.794   2.660  19.663  0.00  0.00    +0.000 A 
ATOM     16  C   UNL     1       1.561   3.131  18.370  0.00  0.00    +0.000 A 
ATOM     17  C   UNL     1       2.584   3.750  17.641  0.00  0.00    +0.000 A 
ATOM     18  C   UNL     1       3.862   3.894  18.193  0.00  0.00    +0.000 A 
ATOM     19  C   UNL     1       4.078   3.418  19.503  0.00  0.00    +0.000 A 
BRANCH  14  20
ATOM     20  O   UNL     1       3.332   2.406  21.493  0.00  0.00    +0.000 OA
ATOM     21  H   UNL     1       3.823   1.570  21.453  0.00  0.00    +0.000 HD
ENDBRANCH  14  20
ENDBRANCH   1  18
BRANCH   6  22
ATOM     22  O   UNL     1       8.628   9.109  18.545  0.00  0.00    +0.000 OA
ATOM     23  H   UNL     1       8.740   9.239  19.501  0.00  0.00    +0.000 HD
ENDBRANCH   6  22
TORSDOF 3
ENDMDL
MODEL 8
REMARK VINA RESULT:      -7.8      2.988      6.792
REMARK  Name = 
REMARK  3 active torsions:
REMARK  status: ('A' for Active; 'I' for Inactive)
REMARK    1  A    between atoms: O_1  and  C_2
REMARK    2  A    between atoms: C_6  and  C_7
REMARK    3  A    between atoms: C_12  and  O_13
REMARK                            x       y       z     vdW  Elec       q    Type
REMARK                         _______ _______ _______ _____ _____    ______ ____
ROOT
ATOM      1  C   UNL     1       5.501   4.596  15.871  0.00  0.00    +0.000 C 
ATOM      2  O   UNL     1       5.635   3.430  16.717  0.00  0.00    +0.000 OA
ATOM      3  C   UNL     1       4.482   3.392  17.469  0.00  0.00    +0.000 A 
ATOM      4  C   UNL     1       3.709   2.240  17.450  0.00  0.00    +0.000 A 
ATOM      5  C   UNL     1       2.409   2.303  17.951  0.00  0.00    +0.000 A 
ATOM      6  C   UNL     1       1.938   3.511  18.475  0.00  0.00    +0.000 A 
ATOM      7  C   UNL     1       2.753   4.638  18.581  0.00  0.00    +0.000 A 
ATOM      8  C   UNL     1       4.050   4.581  18.078  0.00  0.00    +0.000 A 
ATOM      9  C   UNL     1       5.016   5.743  18.085  0.00  0.00    +0.000 C 
ATOM     10  C   UNL     1       6.111   5.507  19.139  0.00  0.00    +0.000 C 
ATOM     11  C   UNL     1       7.451   5.805  18.490  0.00  0.00    +0.000 C 
ATOM     12  C   UNL     1       7.177   6.247  17.062  0.00  0.00    +0.000 C 
ATOM     13  C   UNL     1       5.737   5.874  16.715  0.00  0.00    +0.000 C 
ENDROOT
BRANCH   1  18
ATOM     14  C   UNL     1       5.982   3.413  12.292  0.00  0.00    +0.000 A 
ATOM     15  C   UNL     1       7.064   4.166  11.858  0.00  0.00    +0.000 A 
ATOM     16  C   UNL     1       7.700   5.025  12.756  0.00  0.00    +0.000 A 
ATOM     17  C   UNL     1       7.254   5.131  14.079  0.00  0.00    +0.000 A 
ATOM     18  C   UNL     1       6.171   4.366  14.527  0.00  0.00    +0.000 A 
ATOM     19  C   UNL     1       5.537   3.508  13.604  0.00  0.00    +0.000 A 
BRANCH  14  20
ATOM     20  O   UNL     1       5.298   2.589  11.450  0.00  0.00    +0.000 OA
ATOM     21  H   UNL     1       4.714   3.129  10.894  0.00  0.00    +0.000 HD
ENDBRANCH  14  20
ENDBRANCH   1  18
BRANCH   6  22
ATOM     22  O   UNL     1       0.638   3.631  18.872  0.00  0.00    +0.000 OA
ATOM     23  H   UNL     1       0.593   4.310  19.564  0.00  0.00    +0.000 HD
ENDBRANCH   6  22
TORSDOF 3
ENDMDL
MODEL 9
REMARK VINA RESULT:      -7.7      1.603      6.012
REMARK  Name = 
REMARK  3 active torsions:
REMARK  status: ('A' for Active; 'I' for Inactive)
REMARK    1  A    between atoms: O_1  and  C_2
REMARK    2  A    between atoms: C_6  and  C_7
REMARK    3  A    between atoms: C_12  and  O_13
REMARK                            x       y       z     vdW  Elec       q    Type
REMARK                         _______ _______ _______ _____ _____    ______ ____
ROOT
ATOM      1  C   UNL     1       3.946   5.724  19.255  0.00  0.00    +0.000 C 
ATOM      2  O   UNL     1       2.937   6.119  18.296  0.00  0.00    +0.000 OA
ATOM      3  C   UNL     1       2.138   7.023  18.959  0.00  0.00    +0.000 A 
ATOM      4  C   UNL     1       1.947   8.280  18.403  0.00  0.00    +0.000 A 
ATOM      5  C   UNL     1       1.406   9.286  19.203  0.00  0.00    +0.000 A 
ATOM      6  C   UNL     1       1.054   8.992  20.524  0.00  0.00    +0.000 A 
ATOM      7  C   UNL     1       1.158   7.702  21.046  0.00  0.00    +0.000 A 
ATOM      8  C   UNL     1       1.701   6.696  20.253  0.00  0.00    +0.000 A 
ATOM      9  C   UNL     1       1.915   5.272  20.714  0.00  0.00    +0.000 C 
ATOM     10  C   UNL     1       0.886   4.347  20.045  0.00  0.00    +0.000 C 
ATOM     11  C   UNL     1       1.630   3.135  19.510  0.00  0.00    +0.000 C 
ATOM     12  C   UNL     1       3.096   3.305  19.874  0.00  0.00    +0.000 C 
ATOM     13  C   UNL     1       3.319   4.757  20.292  0.00  0.00    +0.000 C 
ENDROOT
BRANCH   1  18
ATOM     14  C   UNL     1       7.662   5.072  18.808  0.00  0.00    +0.000 A 
ATOM     15  C   UNL     1       7.733   4.534  17.531  0.00  0.00    +0.000 A 
ATOM     16  C   UNL     1       6.569   4.440  16.766  0.00  0.00    +0.000 A 
ATOM     17  C   UNL     1       5.342   4.881  17.277  0.00  0.00    +0.000 A 
ATOM     18  C   UNL     1       5.265   5.437  18.560  0.00  0.00    +0.000 A 
ATOM     19  C   UNL     1       6.450   5.517  19.320  0.00  0.00    +0.000 A 
BRANCH  14  20
ATOM     20  O   UNL     1       8.757   5.152  19.615  0.00  0.00    +0.000 OA
ATOM     21  H   UNL     1       9.554   5.097  19.063  0.00  0.00    +0.000 HD
ENDBRANCH  14  20
ENDBRANCH   1  18
BRANCH   6  22
ATOM     22  O   UNL     1       0.625   9.981  21.361  0.00  0.00    +0.000 OA
ATOM     23  H   UNL     1      -0.200  10.346  21.002  0.00  0.00    +0.000 HD
ENDBRANCH   6  22
TORSDOF 3
ENDMDL
