MODEL 1
REMARK VINA RESULT:      -6.7      0.000      0.000
REMARK  Name = 
REMARK  8 active torsions:
REMARK  status: ('A' for Active; 'I' for Inactive)
REMARK    1  A    between atoms: C_2  and  C_3
REMARK    2  A    between atoms: C_6  and  N_7
REMARK    3  A    between atoms: C_8  and  C_10
REMARK    4  A    between atoms: C_10  and  N_11
REMARK    5  A    between atoms: C_10  and  C_12
REMARK    6  A    between atoms: C_12  and  C_13
REMARK    7  A    between atoms: C_13  and  C_14
REMARK    8  A    between atoms: C_14  and  O_16
REMARK                            x       y       z     vdW  Elec       q    Type
REMARK                         _______ _______ _______ _____ _____    ______ ____
ROOT
ATOM      1  N   UNL     1       4.806   3.864  16.494  0.00  0.00    +0.000 N 
ATOM      2  C   UNL     1       5.202   5.127  16.086  0.00  0.00    +0.000 C 
ATOM      3  O   UNL     1       4.975   6.185  16.672  0.00  0.00    +0.000 OA
ATOM      4  H   UNL     1       5.206   3.069  15.999  0.00  0.00    +0.000 HD
ENDROOT
BRANCH   1   8
ATOM      5  C   UNL     1       2.574   3.031  19.997  0.00  0.00    +0.000 A 
ATOM      6  C   UNL     1       1.907   3.315  18.804  0.00  0.00    +0.000 A 
ATOM      7  C   UNL     1       2.630   3.578  17.637  0.00  0.00    +0.000 A 
ATOM      8  C   UNL     1       4.029   3.572  17.638  0.00  0.00    +0.000 A 
ATOM      9  C   UNL     1       4.695   3.263  18.830  0.00  0.00    +0.000 A 
ATOM     10  C   UNL     1       3.972   3.002  20.005  0.00  0.00    +0.000 A 
BRANCH   5  12
ATOM     11  N   UNL     1       1.216   2.570  22.156  0.00  0.00    +0.000 NA
ATOM     12  C   UNL     1       1.827   2.773  21.191  0.00  0.00    +0.000 C 
ENDBRANCH   5  12
ENDBRANCH   1   8
BRANCH   2  13
ATOM     13  C   UNL     1       6.005   5.148  14.767  0.00  0.00    +0.000 C 
BRANCH  13  14
ATOM     14  N   UNL     1       7.409   5.492  15.084  0.00  0.00    +0.000 NA
ATOM     15  H   UNL     1       7.976   5.248  14.263  0.00  0.00    +0.000 HD
ATOM     16  H   UNL     1       7.745   4.863  15.815  0.00  0.00    +0.000 HD
ENDBRANCH  13  14
BRANCH  13  17
ATOM     17  C   UNL     1       5.992   3.752  14.119  0.00  0.00    +0.000 C 
BRANCH  17  18
ATOM     18  C   UNL     1       6.345   3.755  12.635  0.00  0.00    +0.000 C 
BRANCH  18  19
ATOM     19  C   UNL     1       5.432   2.840  11.870  0.00  0.00    +0.000 C 
ATOM     20  O   UNL     1       4.344   3.200  11.438  0.00  0.00    +0.000 OA
BRANCH  19  21
ATOM     21  O   UNL     1       5.954   1.621  11.631  0.00  0.00    +0.000 OA
ATOM     22  H   UNL     1       6.363   1.522  10.749  0.00  0.00    +0.000 HD
ENDBRANCH  19  21
ENDBRANCH  18  19
ENDBRANCH  17  18
ENDBRANCH  13  17
ENDBRANCH   2  13
TORSDOF 8
ENDMDL
MODEL 2
REMARK VINA RESULT:      -6.5      0.319      1.173
REMARK  Name = 
REMARK  8 active torsions:
REMARK  status: ('A' for Active; 'I' for Inactive)
REMARK    1  A    between atoms: C_2  and  C_3
REMARK    2  A    between atoms: C_6  and  N_7
REMARK    3  A    between atoms: C_8  and  C_10
REMARK    4  A    between atoms: C_10  and  N_11
REMARK    5  A    between atoms: C_10  and  C_12
REMARK    6  A    between atoms: C_12  and  C_13
REMARK    7  A    between atoms: C_13  and  C_14
REMARK    8  A    between atoms: C_14  and  O_16
REMARK                            x       y       z     vdW  Elec       q    Type
REMARK                         _______ _______ _______ _____ _____    ______ ____
ROOT
ATOM      1  N   UNL     1       4.676   4.031  16.495  0.00  0.00    +0.000 N 
ATOM      2  C   UNL     1       5.324   5.218  16.198  0.00  0.00    +0.000 C 
ATOM      3  O   UNL     1       5.449   6.185  16.947  0.00  0.00    +0.000 OA
ATOM      4  H   UNL     1       4.795   3.259  15.842  0.00  0.00    +0.000 HD
ENDROOT
BRANCH   1   8
ATOM      5  C   UNL     1       2.547   3.129  20.046  0.00  0.00    +0.000 A 
ATOM      6  C   UNL     1       3.933   2.968  20.012  0.00  0.00    +0.000 A 
ATOM      7  C   UNL     1       4.650   3.275  18.851  0.00  0.00    +0.000 A 
ATOM      8  C   UNL     1       4.001   3.739  17.703  0.00  0.00    +0.000 A 
ATOM      9  C   UNL     1       2.613   3.923  17.748  0.00  0.00    +0.000 A 
ATOM     10  C   UNL     1       1.889   3.611  18.910  0.00  0.00    +0.000 A 
BRANCH   5  12
ATOM     11  N   UNL     1       1.221   2.543  22.195  0.00  0.00    +0.000 NA
ATOM     12  C   UNL     1       1.817   2.802  21.233  0.00  0.00    +0.000 C 
ENDBRANCH   5  12
ENDBRANCH   1   8
BRANCH   2  13
ATOM     13  C   UNL     1       5.933   5.273  14.780  0.00  0.00    +0.000 C 
BRANCH  13  14
ATOM     14  N   UNL     1       7.406   5.221  14.904  0.00  0.00    +0.000 NA
ATOM     15  H   UNL     1       7.656   4.259  15.161  0.00  0.00    +0.000 HD
ATOM     16  H   UNL     1       7.687   5.776  15.714  0.00  0.00    +0.000 HD
ENDBRANCH  13  14
BRANCH  13  17
ATOM     17  C   UNL     1       5.480   4.050  13.963  0.00  0.00    +0.000 C 
BRANCH  17  18
ATOM     18  C   UNL     1       6.381   3.730  12.775  0.00  0.00    +0.000 C 
BRANCH  18  19
ATOM     19  C   UNL     1       5.726   2.729  11.866  0.00  0.00    +0.000 C 
ATOM     20  O   UNL     1       4.584   2.865  11.445  0.00  0.00    +0.000 OA
BRANCH  19  21
ATOM     21  O   UNL     1       6.535   1.719  11.491  0.00  0.00    +0.000 OA
ATOM     22  H   UNL     1       7.489   1.927  11.534  0.00  0.00    +0.000 HD
ENDBRANCH  19  21
ENDBRANCH  18  19
ENDBRANCH  17  18
ENDBRANCH  13  17
ENDBRANCH   2  13
TORSDOF 8
ENDMDL
MODEL 3
REMARK VINA RESULT:      -6.4      3.263      6.740
REMARK  Name = 
REMARK  8 active torsions:
REMARK  status: ('A' for Active; 'I' for Inactive)
REMARK    1  A    between atoms: C_2  and  C_3
REMARK    2  A    between atoms: C_6  and  N_7
REMARK    3  A    between atoms: C_8  and  C_10
REMARK    4  A    between atoms: C_10  and  N_11
REMARK    5  A    between atoms: C_10  and  C_12
REMARK    6  A    between atoms: C_12  and  C_13
REMARK    7  A    between atoms: C_13  and  C_14
REMARK    8  A    between atoms: C_14  and  O_16
REMARK                            x       y       z     vdW  Elec       q    Type
REMARK                         _______ _______ _______ _____ _____    ______ ____
ROOT
ATOM      1  N   UNL     1       4.005   4.393  19.379  0.00  0.00    +0.000 N 
ATOM      2  C   UNL     1       3.831   3.221  20.094  0.00  0.00    +0.000 C 
ATOM      3  O   UNL     1       4.395   2.148  19.880  0.00  0.00    +0.000 OA
ATOM      4  H   UNL     1       3.601   5.242  19.771  0.00  0.00    +0.000 HD
ENDROOT
BRANCH   1   8
ATOM      5  C   UNL     1       6.373   4.879  15.899  0.00  0.00    +0.000 A 
ATOM      6  C   UNL     1       6.880   5.269  17.140  0.00  0.00    +0.000 A 
ATOM      7  C   UNL     1       6.115   5.102  18.298  0.00  0.00    +0.000 A 
ATOM      8  C   UNL     1       4.830   4.552  18.242  0.00  0.00    +0.000 A 
ATOM      9  C   UNL     1       4.334   4.139  16.999  0.00  0.00    +0.000 A 
ATOM     10  C   UNL     1       5.098   4.309  15.834  0.00  0.00    +0.000 A 
BRANCH   5  12
ATOM     11  N   UNL     1       7.787   5.217  13.752  0.00  0.00    +0.000 NA
ATOM     12  C   UNL     1       7.157   5.063  14.716  0.00  0.00    +0.000 C 
ENDBRANCH   5  12
ENDBRANCH   1   8
BRANCH   2  13
ATOM     13  C   UNL     1       2.828   3.331  21.264  0.00  0.00    +0.000 C 
BRANCH  13  14
ATOM     14  N   UNL     1       2.424   4.748  21.398  0.00  0.00    +0.000 NA
ATOM     15  H   UNL     1       3.268   5.285  21.628  0.00  0.00    +0.000 HD
ATOM     16  H   UNL     1       1.834   4.845  22.225  0.00  0.00    +0.000 HD
ENDBRANCH  13  14
BRANCH  13  17
ATOM     17  C   UNL     1       1.568   2.503  20.958  0.00  0.00    +0.000 C 
BRANCH  17  18
ATOM     18  C   UNL     1       0.621   3.162  19.961  0.00  0.00    +0.000 C 
BRANCH  18  19
ATOM     19  C   UNL     1       1.011   2.819  18.551  0.00  0.00    +0.000 C 
ATOM     20  O   UNL     1       1.103   3.662  17.667  0.00  0.00    +0.000 OA
BRANCH  19  21
ATOM     21  O   UNL     1       1.330   1.523  18.372  0.00  0.00    +0.000 OA
ATOM     22  H   UNL     1       1.024   1.144  17.525  0.00  0.00    +0.000 HD
ENDBRANCH  19  21
ENDBRANCH  18  19
ENDBRANCH  17  18
ENDBRANCH  13  17
ENDBRANCH   2  13
TORSDOF 8
ENDMDL
MODEL 4
REMARK VINA RESULT:      -6.4      3.322      6.765
REMARK  Name = 
REMARK  8 active torsions:
REMARK  status: ('A' for Active; 'I' for Inactive)
REMARK    1  A    between atoms: C_2  and  C_3
REMARK    2  A    between atoms: C_6  and  N_7
REMARK    3  A    between atoms: C_8  and  C_10
REMARK    4  A    between atoms: C_10  and  N_11
REMARK    5  A    between atoms: C_10  and  C_12
REMARK    6  A    between atoms: C_12  and  C_13
REMARK    7  A    between atoms: C_13  and  C_14
REMARK    8  A    between atoms: C_14  and  O_16
REMARK                            x       y       z     vdW  Elec       q    Type
REMARK                         _______ _______ _______ _____ _____    ______ ____
ROOT
ATOM      1  N   UNL     1       3.967   4.751  18.843  0.00  0.00    +0.000 N 
ATOM      2  C   UNL     1       2.835   5.496  19.126  0.00  0.00    +0.000 C 
ATOM      3  O   UNL     1       2.321   6.343  18.397  0.00  0.00    +0.000 OA
ATOM      4  H   UNL     1       4.180   3.972  19.464  0.00  0.00    +0.000 HD
ENDROOT
BRANCH   1   8
ATOM      5  C   UNL     1       6.446   5.138  15.428  0.00  0.00    +0.000 A 
ATOM      6  C   UNL     1       5.402   4.211  15.423  0.00  0.00    +0.000 A 
ATOM      7  C   UNL     1       4.568   4.083  16.537  0.00  0.00    +0.000 A 
ATOM      8  C   UNL     1       4.762   4.866  17.679  0.00  0.00    +0.000 A 
ATOM      9  C   UNL     1       5.794   5.812  17.672  0.00  0.00    +0.000 A 
ATOM     10  C   UNL     1       6.637   5.942  16.557  0.00  0.00    +0.000 A 
BRANCH   5  12
ATOM     11  N   UNL     1       8.005   5.350  13.368  0.00  0.00    +0.000 NA
ATOM     12  C   UNL     1       7.304   5.257  14.289  0.00  0.00    +0.000 C 
ENDBRANCH   5  12
ENDBRANCH   1   8
BRANCH   2  13
ATOM     13  C   UNL     1       2.197   5.187  20.498  0.00  0.00    +0.000 C 
BRANCH  13  14
ATOM     14  N   UNL     1       1.713   6.457  21.083  0.00  0.00    +0.000 NA
ATOM     15  H   UNL     1       2.249   6.621  21.943  0.00  0.00    +0.000 HD
ATOM     16  H   UNL     1       0.754   6.325  21.408  0.00  0.00    +0.000 HD
ENDBRANCH  13  14
BRANCH  13  17
ATOM     17  C   UNL     1       0.987   4.253  20.319  0.00  0.00    +0.000 C 
BRANCH  17  18
ATOM     18  C   UNL     1       1.330   2.770  20.410  0.00  0.00    +0.000 C 
BRANCH  18  19
ATOM     19  C   UNL     1       1.485   2.176  19.039  0.00  0.00    +0.000 C 
ATOM     20  O   UNL     1       2.576   1.901  18.556  0.00  0.00    +0.000 OA
BRANCH  19  21
ATOM     21  O   UNL     1       0.316   1.896  18.429  0.00  0.00    +0.000 OA
ATOM     22  H   UNL     1      -0.118   1.078  18.740  0.00  0.00    +0.000 HD
ENDBRANCH  19  21
ENDBRANCH  18  19
ENDBRANCH  17  18
ENDBRANCH  13  17
ENDBRANCH   2  13
TORSDOF 8
ENDMDL
MODEL 5
REMARK VINA RESULT:      -6.3      3.688      6.992
REMARK  Name = 
REMARK  8 active torsions:
REMARK  status: ('A' for Active; 'I' for Inactive)
REMARK    1  A    between atoms: C_2  and  C_3
REMARK    2  A    between atoms: C_6  and  N_7
REMARK    3  A    between atoms: C_8  and  C_10
REMARK    4  A    between atoms: C_10  and  N_11
REMARK    5  A    between atoms: C_10  and  C_12
REMARK    6  A    between atoms: C_12  and  C_13
REMARK    7  A    between atoms: C_13  and  C_14
REMARK    8  A    between atoms: C_14  and  O_16
REMARK                            x       y       z     vdW  Elec       q    Type
REMARK                         _______ _______ _______ _____ _____    ______ ____
ROOT
ATOM      1  N   UNL     1       4.713   3.617  17.683  0.00  0.00    +0.000 N 
ATOM      2  C   UNL     1       3.328   3.615  17.698  0.00  0.00    +0.000 C 
ATOM      3  O   UNL     1       2.600   4.607  17.700  0.00  0.00    +0.000 OA
ATOM      4  H   UNL     1       5.177   2.726  17.514  0.00  0.00    +0.000 HD
ENDROOT
BRANCH   1   8
ATOM      5  C   UNL     1       7.082   7.129  17.743  0.00  0.00    +0.000 A 
ATOM      6  C   UNL     1       7.452   6.032  18.524  0.00  0.00    +0.000 A 
ATOM      7  C   UNL     1       6.687   4.862  18.503  0.00  0.00    +0.000 A 
ATOM      8  C   UNL     1       5.538   4.764  17.713  0.00  0.00    +0.000 A 
ATOM      9  C   UNL     1       5.183   5.857  16.912  0.00  0.00    +0.000 A 
ATOM     10  C   UNL     1       5.945   7.035  16.933  0.00  0.00    +0.000 A 
BRANCH   5  12
ATOM     11  N   UNL     1       8.499   9.298  17.799  0.00  0.00    +0.000 NA
ATOM     12  C   UNL     1       7.863   8.328  17.778  0.00  0.00    +0.000 C 
ENDBRANCH   5  12
ENDBRANCH   1   8
BRANCH   2  13
ATOM     13  C   UNL     1       2.693   2.207  17.706  0.00  0.00    +0.000 C 
BRANCH  13  14
ATOM     14  N   UNL     1       3.705   1.243  18.191  0.00  0.00    +0.000 NA
ATOM     15  H   UNL     1       4.628   1.631  17.963  0.00  0.00    +0.000 HD
ATOM     16  H   UNL     1       3.646   0.394  17.627  0.00  0.00    +0.000 HD
ENDBRANCH  13  14
BRANCH  13  17
ATOM     17  C   UNL     1       1.499   2.173  18.677  0.00  0.00    +0.000 C 
BRANCH  17  18
ATOM     18  C   UNL     1       1.891   1.943  20.133  0.00  0.00    +0.000 C 
BRANCH  18  19
ATOM     19  C   UNL     1       1.472   3.108  20.985  0.00  0.00    +0.000 C 
ATOM     20  O   UNL     1       1.968   3.337  22.082  0.00  0.00    +0.000 OA
BRANCH  19  21
ATOM     21  O   UNL     1       0.569   3.917  20.400  0.00  0.00    +0.000 OA
ATOM     22  H   UNL     1      -0.057   4.341  21.019  0.00  0.00    +0.000 HD
ENDBRANCH  19  21
ENDBRANCH  18  19
ENDBRANCH  17  18
ENDBRANCH  13  17
ENDBRANCH   2  13
TORSDOF 8
ENDMDL
MODEL 6
REMARK VINA RESULT:      -6.3      3.190      6.726
REMARK  Name = 
REMARK  8 active torsions:
REMARK  status: ('A' for Active; 'I' for Inactive)
REMARK    1  A    between atoms: C_2  and  C_3
REMARK    2  A    between atoms: C_6  and  N_7
REMARK    3  A    between atoms: C_8  and  C_10
REMARK    4  A    between atoms: C_10  and  N_11
REMARK    5  A    between atoms: C_10  and  C_12
REMARK    6  A    between atoms: C_12  and  C_13
REMARK    7  A    between atoms: C_13  and  C_14
REMARK    8  A    between atoms: C_14  and  O_16
REMARK                            x       y       z     vdW  Elec       q    Type
REMARK                         _______ _______ _______ _____ _____    ______ ____
ROOT
ATOM      1  N   UNL     1       4.188   4.157  19.012  0.00  0.00    +0.000 N 
ATOM      2  C   UNL     1       3.370   5.098  19.616  0.00  0.00    +0.000 C 
ATOM      3  O   UNL     1       3.207   6.261  19.251  0.00  0.00    +0.000 OA
ATOM      4  H   UNL     1       4.095   3.192  19.322  0.00  0.00    +0.000 HD
ENDROOT
BRANCH   1   8
ATOM      5  C   UNL     1       6.572   4.866  15.582  0.00  0.00    +0.000 A 
ATOM      6  C   UNL     1       7.121   5.043  16.854  0.00  0.00    +0.000 A 
ATOM      7  C   UNL     1       6.350   4.800  17.994  0.00  0.00    +0.000 A 
ATOM      8  C   UNL     1       5.018   4.384  17.891  0.00  0.00    +0.000 A 
ATOM      9  C   UNL     1       4.479   4.184  16.614  0.00  0.00    +0.000 A 
ATOM     10  C   UNL     1       5.248   4.432  15.467  0.00  0.00    +0.000 A 
BRANCH   5  12
ATOM     11  N   UNL     1       8.008   5.348  13.478  0.00  0.00    +0.000 NA
ATOM     12  C   UNL     1       7.364   5.129  14.419  0.00  0.00    +0.000 C 
ENDBRANCH   5  12
ENDBRANCH   1   8
BRANCH   2  13
ATOM     13  C   UNL     1       2.610   4.578  20.856  0.00  0.00    +0.000 C 
BRANCH  13  14
ATOM     14  N   UNL     1       1.178   4.915  20.699  0.00  0.00    +0.000 NA
ATOM     15  H   UNL     1       0.640   4.195  21.195  0.00  0.00    +0.000 HD
ATOM     16  H   UNL     1       0.917   4.792  19.720  0.00  0.00    +0.000 HD
ENDBRANCH  13  14
BRANCH  13  17
ATOM     17  C   UNL     1       2.732   3.046  20.946  0.00  0.00    +0.000 C 
BRANCH  17  18
ATOM     18  C   UNL     1       1.489   2.297  20.479  0.00  0.00    +0.000 C 
BRANCH  18  19
ATOM     19  C   UNL     1       1.489   2.149  18.984  0.00  0.00    +0.000 C 
ATOM     20  O   UNL     1       0.651   2.681  18.266  0.00  0.00    +0.000 OA
BRANCH  19  21
ATOM     21  O   UNL     1       2.537   1.452  18.504  0.00  0.00    +0.000 OA
ATOM     22  H   UNL     1       2.914   0.804  19.131  0.00  0.00    +0.000 HD
ENDBRANCH  19  21
ENDBRANCH  18  19
ENDBRANCH  17  18
ENDBRANCH  13  17
ENDBRANCH   2  13
TORSDOF 8
ENDMDL
MODEL 7
REMARK VINA RESULT:      -6.3      0.919      1.230
REMARK  Name = 
REMARK  8 active torsions:
REMARK  status: ('A' for Active; 'I' for Inactive)
REMARK    1  A    between atoms: C_2  and  C_3
REMARK    2  A    between atoms: C_6  and  N_7
REMARK    3  A    between atoms: C_8  and  C_10
REMARK    4  A    between atoms: C_10  and  N_11
REMARK    5  A    between atoms: C_10  and  C_12
REMARK    6  A    between atoms: C_12  and  C_13
REMARK    7  A    between atoms: C_13  and  C_14
REMARK    8  A    between atoms: C_14  and  O_16
REMARK                            x       y       z     vdW  Elec       q    Type
REMARK                         _______ _______ _______ _____ _____    ______ ____
ROOT
ATOM      1  N   UNL     1       4.279   4.388  16.533  0.00  0.00    +0.000 N 
ATOM      2  C   UNL     1       5.618   4.716  16.397  0.00  0.00    +0.000 C 
ATOM      3  O   UNL     1       6.463   4.704  17.291  0.00  0.00    +0.000 OA
ATOM      4  H   UNL     1       3.737   4.282  15.677  0.00  0.00    +0.000 HD
ENDROOT
BRANCH   1   8
ATOM      5  C   UNL     1       2.431   3.195  20.154  0.00  0.00    +0.000 A 
ATOM      6  C   UNL     1       2.423   4.542  19.785  0.00  0.00    +0.000 A 
ATOM      7  C   UNL     1       3.016   4.947  18.586  0.00  0.00    +0.000 A 
ATOM      8  C   UNL     1       3.636   4.024  17.738  0.00  0.00    +0.000 A 
ATOM      9  C   UNL     1       3.621   2.671  18.099  0.00  0.00    +0.000 A 
ATOM     10  C   UNL     1       3.030   2.260  19.304  0.00  0.00    +0.000 A 
BRANCH   5  12
ATOM     11  N   UNL     1       1.342   2.464  22.390  0.00  0.00    +0.000 NA
ATOM     12  C   UNL     1       1.831   2.788  21.388  0.00  0.00    +0.000 C 
ENDBRANCH   5  12
ENDBRANCH   1   8
BRANCH   2  13
ATOM     13  C   UNL     1       6.032   5.121  14.966  0.00  0.00    +0.000 C 
BRANCH  13  14
ATOM     14  N   UNL     1       7.503   5.005  14.858  0.00  0.00    +0.000 NA
ATOM     15  H   UNL     1       7.711   4.059  14.519  0.00  0.00    +0.000 HD
ATOM     16  H   UNL     1       7.905   5.028  15.796  0.00  0.00    +0.000 HD
ENDBRANCH  13  14
BRANCH  13  17
ATOM     17  C   UNL     1       5.402   4.160  13.942  0.00  0.00    +0.000 C 
BRANCH  17  18
ATOM     18  C   UNL     1       6.355   3.722  12.836  0.00  0.00    +0.000 C 
BRANCH  18  19
ATOM     19  C   UNL     1       5.639   2.876  11.821  0.00  0.00    +0.000 C 
ATOM     20  O   UNL     1       6.094   1.819  11.400  0.00  0.00    +0.000 OA
BRANCH  19  21
ATOM     21  O   UNL     1       4.421   3.341  11.484  0.00  0.00    +0.000 OA
ATOM     22  H   UNL     1       4.298   3.500  10.528  0.00  0.00    +0.000 HD
ENDBRANCH  19  21
ENDBRANCH  18  19
ENDBRANCH  17  18
ENDBRANCH  13  17
ENDBRANCH   2  13
TORSDOF 8
ENDMDL
MODEL 8
REMARK VINA RESULT:      -6.2      3.343      6.760
REMARK  Name = 
REMARK  8 active torsions:
REMARK  status: ('A' for Active; 'I' for Inactive)
REMARK    1  A    between atoms: C_2  and  C_3
REMARK    2  A    between atoms: C_6  and  N_7
REMARK    3  A    between atoms: C_8  and  C_10
REMARK    4  A    between atoms: C_10  and  N_11
REMARK    5  A    between atoms: C_10  and  C_12
REMARK    6  A    between atoms: C_12  and  C_13
REMARK    7  A    between atoms: C_13  and  C_14
REMARK    8  A    between atoms: C_14  and  O_16
REMARK                            x       y       z     vdW  Elec       q    Type
REMARK                         _______ _______ _______ _____ _____    ______ ____
ROOT
ATOM      1  N   UNL     1       3.167   5.220  18.367  0.00  0.00    +0.000 N 
ATOM      2  C   UNL     1       3.494   5.101  19.708  0.00  0.00    +0.000 C 
ATOM      3  O   UNL     1       4.626   4.968  20.171  0.00  0.00    +0.000 OA
ATOM      4  H   UNL     1       2.212   5.492  18.143  0.00  0.00    +0.000 HD
ENDROOT
BRANCH   1   8
ATOM      5  C   UNL     1       5.943   5.160  15.167  0.00  0.00    +0.000 A 
ATOM      6  C   UNL     1       5.472   3.957  15.696  0.00  0.00    +0.000 A 
ATOM      7  C   UNL     1       4.545   3.962  16.742  0.00  0.00    +0.000 A 
ATOM      8  C   UNL     1       4.078   5.162  17.287  0.00  0.00    +0.000 A 
ATOM      9  C   UNL     1       4.534   6.367  16.739  0.00  0.00    +0.000 A 
ATOM     10  C   UNL     1       5.467   6.367  15.691  0.00  0.00    +0.000 A 
BRANCH   5  12
ATOM     11  N   UNL     1       7.672   5.136  13.235  0.00  0.00    +0.000 NA
ATOM     12  C   UNL     1       6.901   5.148  14.103  0.00  0.00    +0.000 C 
ENDBRANCH   5  12
ENDBRANCH   1   8
BRANCH   2  13
ATOM     13  C   UNL     1       2.283   5.156  20.665  0.00  0.00    +0.000 C 
BRANCH  13  14
ATOM     14  N   UNL     1       1.881   6.570  20.826  0.00  0.00    +0.000 NA
ATOM     15  H   UNL     1       2.624   7.147  20.415  0.00  0.00    +0.000 HD
ATOM     16  H   UNL     1       1.902   6.808  21.819  0.00  0.00    +0.000 HD
ENDBRANCH  13  14
BRANCH  13  17
ATOM     17  C   UNL     1       1.096   4.388  20.059  0.00  0.00    +0.000 C 
BRANCH  17  18
ATOM     18  C   UNL     1       1.156   2.880  20.278  0.00  0.00    +0.000 C 
BRANCH  18  19
ATOM     19  C   UNL     1       1.405   2.165  18.980  0.00  0.00    +0.000 C 
ATOM     20  O   UNL     1       2.531   1.906  18.572  0.00  0.00    +0.000 OA
BRANCH  19  21
ATOM     21  O   UNL     1       0.282   1.762  18.354  0.00  0.00    +0.000 OA
ATOM     22  H   UNL     1      -0.151   2.452  17.815  0.00  0.00    +0.000 HD
ENDBRANCH  19  21
ENDBRANCH  18  19
ENDBRANCH  17  18
ENDBRANCH  13  17
ENDBRANCH   2  13
TORSDOF 8
ENDMDL
MODEL 9
REMARK VINA RESULT:      -6.2      3.734      6.971
REMARK  Name = 
REMARK  8 active torsions:
REMARK  status: ('A' for Active; 'I' for Inactive)
REMARK    1  A    between atoms: C_2  and  C_3
REMARK    2  A    between atoms: C_6  and  N_7
REMARK    3  A    between atoms: C_8  and  C_10
REMARK    4  A    between atoms: C_10  and  N_11
REMARK    5  A    between atoms: C_10  and  C_12
REMARK    6  A    between atoms: C_12  and  C_13
REMARK    7  A    between atoms: C_13  and  C_14
REMARK    8  A    between atoms: C_14  and  O_16
REMARK                            x       y       z     vdW  Elec       q    Type
REMARK                         _______ _______ _______ _____ _____    ______ ____
ROOT
ATOM      1  N   UNL     1       3.722   3.632  17.997  0.00  0.00    +0.000 N 
ATOM      2  C   UNL     1       2.345   3.727  17.883  0.00  0.00    +0.000 C 
ATOM      3  O   UNL     1       1.707   4.741  17.602  0.00  0.00    +0.000 OA
ATOM      4  H   UNL     1       4.119   2.697  18.069  0.00  0.00    +0.000 HD
ENDROOT
BRANCH   1   8
ATOM      5  C   UNL     1       6.553   6.763  17.645  0.00  0.00    +0.000 A 
ATOM      6  C   UNL     1       5.572   6.606  16.664  0.00  0.00    +0.000 A 
ATOM      7  C   UNL     1       4.623   5.586  16.775  0.00  0.00    +0.000 A 
ATOM      8  C   UNL     1       4.638   4.699  17.857  0.00  0.00    +0.000 A 
ATOM      9  C   UNL     1       5.608   4.875  18.851  0.00  0.00    +0.000 A 
ATOM     10  C   UNL     1       6.566   5.896  18.741  0.00  0.00    +0.000 A 
BRANCH   5  12
ATOM     11  N   UNL     1       8.318   8.649  17.425  0.00  0.00    +0.000 NA
ATOM     12  C   UNL     1       7.529   7.803  17.520  0.00  0.00    +0.000 C 
ENDBRANCH   5  12
ENDBRANCH   1   8
BRANCH   2  13
ATOM     13  C   UNL     1       1.592   2.402  18.134  0.00  0.00    +0.000 C 
BRANCH  13  14
ATOM     14  N   UNL     1       2.586   1.359  18.468  0.00  0.00    +0.000 NA
ATOM     15  H   UNL     1       2.887   0.931  17.585  0.00  0.00    +0.000 HD
ATOM     16  H   UNL     1       2.113   0.601  18.963  0.00  0.00    +0.000 HD
ENDBRANCH  13  14
BRANCH  13  17
ATOM     17  C   UNL     1       0.641   2.556  19.335  0.00  0.00    +0.000 C 
BRANCH  17  18
ATOM     18  C   UNL     1       1.130   3.541  20.390  0.00  0.00    +0.000 C 
BRANCH  18  19
ATOM     19  C   UNL     1       1.930   2.833  21.448  0.00  0.00    +0.000 C 
ATOM     20  O   UNL     1       1.425   2.384  22.470  0.00  0.00    +0.000 OA
BRANCH  19  21
ATOM     21  O   UNL     1       3.228   2.665  21.130  0.00  0.00    +0.000 OA
ATOM     22  H   UNL     1       3.429   1.818  20.685  0.00  0.00    +0.000 HD
ENDBRANCH  19  21
ENDBRANCH  18  19
ENDBRANCH  17  18
ENDBRANCH  13  17
ENDBRANCH   2  13
TORSDOF 8
ENDMDL
