MODEL 1
REMARK VINA RESULT:      -8.2      0.000      0.000
REMARK  Name = 
REMARK  5 active torsions:
REMARK  status: ('A' for Active; 'I' for Inactive)
REMARK    1  A    between atoms: C_1  and  O_2
REMARK    2  A    between atoms: O_2  and  C_3
REMARK    3  A    between atoms: C_3  and  C_5
REMARK    4  A    between atoms: C_15  and  C_17
REMARK    5  A    between atoms: C_21  and  N_22
REMARK                            x       y       z     vdW  Elec       q    Type
REMARK                         _______ _______ _______ _____ _____    ______ ____
ROOT
ATOM      1  C   UNL     1      -2.588  13.936  20.996  0.00  0.00    +0.000 A 
ATOM      2  C   UNL     1      -1.323  13.375  21.022  0.00  0.00    +0.000 A 
ATOM      3  C   UNL     1      -1.313  12.365  20.065  0.00  0.00    +0.000 A 
ATOM      4  C   UNL     1      -2.528  12.297  19.437  0.00  0.00    +0.000 A 
ATOM      5  N   UNL     1      -3.349  13.180  20.105  0.00  0.00    +0.000 N 
ATOM      6  C   UNL     1      -2.825  11.404  18.337  0.00  0.00    +0.000 C 
ATOM      7  O   UNL     1      -3.952  11.246  17.876  0.00  0.00    +0.000 OA
ATOM      8  C   UNL     1      -1.673  10.568  17.821  0.00  0.00    +0.000 C 
ATOM      9  C   UNL     1      -0.470  10.621  18.443  0.00  0.00    +0.000 C 
ATOM     10  N   UNL     1       0.333   9.463  18.515  0.00  0.00    +0.000 N 
ATOM     11  C   UNL     1       1.676   9.490  18.043  0.00  0.00    +0.000 C 
ATOM     12  O   UNL     1       2.189  10.441  17.455  0.00  0.00    +0.000 OA
ATOM     13  C   UNL     1       0.251   9.090  19.947  0.00  0.00    +0.000 C 
ATOM     14  C   UNL     1       0.292  10.423  20.662  0.00  0.00    +0.000 C 
ATOM     15  C   UNL     1       1.156  11.600  20.270  0.00  0.00    +0.000 C 
ATOM     16  C   UNL     1      -0.213  11.447  19.665  0.00  0.00    +0.000 C 
ATOM     17  H   UNL     1      -4.338  13.311  19.931  0.00  0.00    +0.000 HD
ENDROOT
BRANCH  11  18
ATOM     18  C   UNL     1       2.414   8.268  18.335  0.00  0.00    +0.000 A 
ATOM     19  C   UNL     1       2.198   7.422  19.404  0.00  0.00    +0.000 A 
ATOM     20  C   UNL     1       3.032   6.297  19.252  0.00  0.00    +0.000 A 
ATOM     21  C   UNL     1       3.064   5.050  19.899  0.00  0.00    +0.000 A 
ATOM     22  C   UNL     1       2.895   4.072  18.917  0.00  0.00    +0.000 A 
ATOM     23  C   UNL     1       3.691   4.116  17.763  0.00  0.00    +0.000 A 
ATOM     24  C   UNL     1       4.272   5.336  17.376  0.00  0.00    +0.000 A 
ATOM     25  C   UNL     1       3.690   6.435  18.026  0.00  0.00    +0.000 A 
ATOM     26  N   UNL     1       3.461   7.731  17.602  0.00  0.00    +0.000 N 
ATOM     27  H   UNL     1       3.838   8.133  16.752  0.00  0.00    +0.000 HD
BRANCH  22  28
ATOM     28  N   UNL     1       1.491   3.649  18.742  0.00  0.00    +0.000 N 
ATOM     29  O   UNL     1       1.009   3.761  17.606  0.00  0.00    +0.000 OA
ATOM     30  O   UNL     1       0.905   3.164  19.722  0.00  0.00    +0.000 OA
ENDBRANCH  22  28
ENDBRANCH  11  18
BRANCH   1  31
ATOM     31  C   UNL     1      -3.063  15.088  21.700  0.00  0.00    +0.000 C 
ATOM     32  O   UNL     1      -3.364  16.160  21.194  0.00  0.00    +0.000 OA
BRANCH  31  34
ATOM     33  C   UNL     1      -4.309  14.208  23.512  0.00  0.00    +0.000 C 
ATOM     34  O   UNL     1      -3.110  14.812  23.042  0.00  0.00    +0.000 OA
ENDBRANCH  31  34
ENDBRANCH   1  31
TORSDOF 4
ENDMDL
MODEL 2
REMARK VINA RESULT:      -8.2      2.201      9.247
REMARK  Name = 
REMARK  5 active torsions:
REMARK  status: ('A' for Active; 'I' for Inactive)
REMARK    1  A    between atoms: C_1  and  O_2
REMARK    2  A    between atoms: O_2  and  C_3
REMARK    3  A    between atoms: C_3  and  C_5
REMARK    4  A    between atoms: C_15  and  C_17
REMARK    5  A    between atoms: C_21  and  N_22
REMARK                            x       y       z     vdW  Elec       q    Type
REMARK                         _______ _______ _______ _____ _____    ______ ____
ROOT
ATOM      1  C   UNL     1       3.917   6.414  17.444  0.00  0.00    +0.000 A 
ATOM      2  C   UNL     1       3.484   7.728  17.392  0.00  0.00    +0.000 A 
ATOM      3  C   UNL     1       2.626   7.910  18.471  0.00  0.00    +0.000 A 
ATOM      4  C   UNL     1       2.528   6.753  19.198  0.00  0.00    +0.000 A 
ATOM      5  N   UNL     1       3.223   5.800  18.486  0.00  0.00    +0.000 N 
ATOM      6  C   UNL     1       1.774   6.628  20.428  0.00  0.00    +0.000 C 
ATOM      7  O   UNL     1       1.573   5.557  20.994  0.00  0.00    +0.000 OA
ATOM      8  C   UNL     1       1.137   7.895  20.957  0.00  0.00    +0.000 C 
ATOM      9  C   UNL     1       1.219   9.042  20.239  0.00  0.00    +0.000 C 
ATOM     10  N   UNL     1       0.147   9.958  20.259  0.00  0.00    +0.000 N 
ATOM     11  C   UNL     1       0.372  11.319  20.614  0.00  0.00    +0.000 C 
ATOM     12  O   UNL     1       1.442  11.763  21.027  0.00  0.00    +0.000 OA
ATOM     13  C   UNL     1      -0.430   9.823  18.901  0.00  0.00    +0.000 C 
ATOM     14  C   UNL     1       0.786   9.673  18.013  0.00  0.00    +0.000 C 
ATOM     15  C   UNL     1       2.085  10.429  18.173  0.00  0.00    +0.000 C 
ATOM     16  C   UNL     1       1.886   9.127  18.901  0.00  0.00    +0.000 C 
ATOM     17  H   UNL     1       3.280   4.815  18.719  0.00  0.00    +0.000 HD
ENDROOT
BRANCH  11  18
ATOM     18  C   UNL     1      -0.801  12.164  20.430  0.00  0.00    +0.000 A 
ATOM     19  C   UNL     1      -2.060  11.739  20.057  0.00  0.00    +0.000 A 
ATOM     20  C   UNL     1      -2.933  12.842  20.116  0.00  0.00    +0.000 A 
ATOM     21  C   UNL     1      -4.334  12.943  20.068  0.00  0.00    +0.000 A 
ATOM     22  C   UNL     1      -4.744  13.560  21.252  0.00  0.00    +0.000 A 
ATOM     23  C   UNL     1      -4.119  14.748  21.656  0.00  0.00    +0.000 A 
ATOM     24  C   UNL     1      -2.830  15.043  21.179  0.00  0.00    +0.000 A 
ATOM     25  C   UNL     1      -2.199  13.923  20.617  0.00  0.00    +0.000 A 
ATOM     26  N   UNL     1      -0.870  13.539  20.590  0.00  0.00    +0.000 N 
ATOM     27  H   UNL     1      -0.097  14.129  20.871  0.00  0.00    +0.000 HD
BRANCH  22  28
ATOM     28  N   UNL     1      -5.113  12.606  22.316  0.00  0.00    +0.000 N 
ATOM     29  O   UNL     1      -6.208  12.038  22.205  0.00  0.00    +0.000 OA
ATOM     30  O   UNL     1      -4.290  12.398  23.221  0.00  0.00    +0.000 OA
ENDBRANCH  22  28
ENDBRANCH  11  18
BRANCH   1  31
ATOM     31  C   UNL     1       4.906   5.772  16.632  0.00  0.00    +0.000 C 
ATOM     32  O   UNL     1       4.865   4.615  16.238  0.00  0.00    +0.000 OA
BRANCH  31  34
ATOM     33  C   UNL     1       7.086   6.512  17.190  0.00  0.00    +0.000 C 
ATOM     34  O   UNL     1       5.925   6.653  16.379  0.00  0.00    +0.000 OA
ENDBRANCH  31  34
ENDBRANCH   1  31
TORSDOF 4
ENDMDL
MODEL 3
REMARK VINA RESULT:      -8.1      2.440      9.023
REMARK  Name = 
REMARK  5 active torsions:
REMARK  status: ('A' for Active; 'I' for Inactive)
REMARK    1  A    between atoms: C_1  and  O_2
REMARK    2  A    between atoms: O_2  and  C_3
REMARK    3  A    between atoms: C_3  and  C_5
REMARK    4  A    between atoms: C_15  and  C_17
REMARK    5  A    between atoms: C_21  and  N_22
REMARK                            x       y       z     vdW  Elec       q    Type
REMARK                         _______ _______ _______ _____ _____    ______ ____
ROOT
ATOM      1  C   UNL     1       3.706   6.873  17.435  0.00  0.00    +0.000 A 
ATOM      2  C   UNL     1       3.139   8.134  17.487  0.00  0.00    +0.000 A 
ATOM      3  C   UNL     1       2.335   8.165  18.622  0.00  0.00    +0.000 A 
ATOM      4  C   UNL     1       2.402   6.967  19.282  0.00  0.00    +0.000 A 
ATOM      5  N   UNL     1       3.146   6.133  18.475  0.00  0.00    +0.000 N 
ATOM      6  C   UNL     1       1.742   6.695  20.541  0.00  0.00    +0.000 C 
ATOM      7  O   UNL     1       1.688   5.580  21.052  0.00  0.00    +0.000 OA
ATOM      8  C   UNL     1       1.012   7.857  21.182  0.00  0.00    +0.000 C 
ATOM      9  C   UNL     1       0.931   9.043  20.531  0.00  0.00    +0.000 C 
ATOM     10  N   UNL     1      -0.226   9.838  20.666  0.00  0.00    +0.000 N 
ATOM     11  C   UNL     1      -0.120  11.194  21.090  0.00  0.00    +0.000 C 
ATOM     12  O   UNL     1       0.922  11.726  21.468  0.00  0.00    +0.000 OA
ATOM     13  C   UNL     1      -0.869   9.717  19.336  0.00  0.00    +0.000 C 
ATOM     14  C   UNL     1       0.298   9.745  18.374  0.00  0.00    +0.000 C 
ATOM     15  C   UNL     1       1.521  10.625  18.508  0.00  0.00    +0.000 C 
ATOM     16  C   UNL     1       1.502   9.272  19.166  0.00  0.00    +0.000 C 
ATOM     17  H   UNL     1       3.317   5.149  18.645  0.00  0.00    +0.000 HD
ENDROOT
BRANCH  11  18
ATOM     18  C   UNL     1      -1.383  11.918  21.023  0.00  0.00    +0.000 A 
ATOM     19  C   UNL     1      -2.020  12.340  19.874  0.00  0.00    +0.000 A 
ATOM     20  C   UNL     1      -3.268  12.885  20.236  0.00  0.00    +0.000 A 
ATOM     21  C   UNL     1      -4.397  13.245  19.480  0.00  0.00    +0.000 A 
ATOM     22  C   UNL     1      -5.472  12.497  19.965  0.00  0.00    +0.000 A 
ATOM     23  C   UNL     1      -5.718  12.467  21.346  0.00  0.00    +0.000 A 
ATOM     24  C   UNL     1      -4.669  12.755  22.236  0.00  0.00    +0.000 A 
ATOM     25  C   UNL     1      -3.412  12.704  21.615  0.00  0.00    +0.000 A 
ATOM     26  N   UNL     1      -2.172  12.317  22.091  0.00  0.00    +0.000 N 
ATOM     27  H   UNL     1      -1.961  12.139  23.065  0.00  0.00    +0.000 HD
BRANCH  22  28
ATOM     28  N   UNL     1      -5.701  11.243  19.220  0.00  0.00    +0.000 N 
ATOM     29  O   UNL     1      -6.600  10.500  19.637  0.00  0.00    +0.000 OA
ATOM     30  O   UNL     1      -5.020  11.039  18.204  0.00  0.00    +0.000 OA
ENDBRANCH  22  28
ENDBRANCH  11  18
BRANCH   1  31
ATOM     31  C   UNL     1       4.704   6.385  16.532  0.00  0.00    +0.000 C 
ATOM     32  O   UNL     1       5.147   6.988  15.565  0.00  0.00    +0.000 OA
BRANCH  31  34
ATOM     33  C   UNL     1       6.465   4.826  16.810  0.00  0.00    +0.000 C 
ATOM     34  O   UNL     1       5.077   5.121  16.908  0.00  0.00    +0.000 OA
ENDBRANCH  31  34
ENDBRANCH   1  31
TORSDOF 4
ENDMDL
MODEL 4
REMARK VINA RESULT:      -7.9      2.322      9.498
REMARK  Name = 
REMARK  5 active torsions:
REMARK  status: ('A' for Active; 'I' for Inactive)
REMARK    1  A    between atoms: C_1  and  O_2
REMARK    2  A    between atoms: O_2  and  C_3
REMARK    3  A    between atoms: C_3  and  C_5
REMARK    4  A    between atoms: C_15  and  C_17
REMARK    5  A    between atoms: C_21  and  N_22
REMARK                            x       y       z     vdW  Elec       q    Type
REMARK                         _______ _______ _______ _____ _____    ______ ____
ROOT
ATOM      1  C   UNL     1       3.707   6.829  17.388  0.00  0.00    +0.000 A 
ATOM      2  C   UNL     1       3.231   8.127  17.450  0.00  0.00    +0.000 A 
ATOM      3  C   UNL     1       2.427   8.205  18.582  0.00  0.00    +0.000 A 
ATOM      4  C   UNL     1       2.407   7.000  19.232  0.00  0.00    +0.000 A 
ATOM      5  N   UNL     1       3.092   6.122  18.420  0.00  0.00    +0.000 N 
ATOM      6  C   UNL     1       1.726   6.765  20.488  0.00  0.00    +0.000 C 
ATOM      7  O   UNL     1       1.591   5.652  20.989  0.00  0.00    +0.000 OA
ATOM      8  C   UNL     1       1.078   7.970  21.136  0.00  0.00    +0.000 C 
ATOM      9  C   UNL     1       1.083   9.165  20.495  0.00  0.00    +0.000 C 
ATOM     10  N   UNL     1      -0.015  10.039  20.634  0.00  0.00    +0.000 N 
ATOM     11  C   UNL     1       0.186  11.380  21.070  0.00  0.00    +0.000 C 
ATOM     12  O   UNL     1       1.261  11.834  21.455  0.00  0.00    +0.000 OA
ATOM     13  C   UNL     1      -0.661   9.974  19.302  0.00  0.00    +0.000 C 
ATOM     14  C   UNL     1       0.509   9.928  18.343  0.00  0.00    +0.000 C 
ATOM     15  C   UNL     1       1.790  10.717  18.487  0.00  0.00    +0.000 C 
ATOM     16  C   UNL     1       1.673   9.363  19.134  0.00  0.00    +0.000 C 
ATOM     17  H   UNL     1       3.193   5.127  18.582  0.00  0.00    +0.000 HD
ENDROOT
BRANCH  11  18
ATOM     18  C   UNL     1      -1.023  12.192  21.006  0.00  0.00    +0.000 A 
ATOM     19  C   UNL     1      -2.244  11.881  21.568  0.00  0.00    +0.000 A 
ATOM     20  C   UNL     1      -3.106  12.980  21.388  0.00  0.00    +0.000 A 
ATOM     21  C   UNL     1      -4.358  13.302  21.941  0.00  0.00    +0.000 A 
ATOM     22  C   UNL     1      -4.216  14.528  22.595  0.00  0.00    +0.000 A 
ATOM     23  C   UNL     1      -3.621  15.601  21.916  0.00  0.00    +0.000 A 
ATOM     24  C   UNL     1      -2.768  15.338  20.831  0.00  0.00    +0.000 A 
ATOM     25  C   UNL     1      -2.357  13.997  20.786  0.00  0.00    +0.000 A 
ATOM     26  N   UNL     1      -1.171  13.417  20.374  0.00  0.00    +0.000 N 
ATOM     27  H   UNL     1      -0.435  13.905  19.878  0.00  0.00    +0.000 HD
BRANCH  22  28
ATOM     28  N   UNL     1      -3.909  14.397  24.033  0.00  0.00    +0.000 N 
ATOM     29  O   UNL     1      -4.156  13.305  24.562  0.00  0.00    +0.000 OA
ATOM     30  O   UNL     1      -3.381  15.364  24.604  0.00  0.00    +0.000 OA
ENDBRANCH  22  28
ENDBRANCH  11  18
BRANCH   1  31
ATOM     31  C   UNL     1       4.671   6.279  16.484  0.00  0.00    +0.000 C 
ATOM     32  O   UNL     1       5.233   6.887  15.584  0.00  0.00    +0.000 OA
BRANCH  31  34
ATOM     33  C   UNL     1       6.190   4.472  16.668  0.00  0.00    +0.000 C 
ATOM     34  O   UNL     1       4.854   4.951  16.768  0.00  0.00    +0.000 OA
ENDBRANCH  31  34
ENDBRANCH   1  31
TORSDOF 4
ENDMDL
MODEL 5
REMARK VINA RESULT:      -7.7      0.938      1.005
REMARK  Name = 
REMARK  5 active torsions:
REMARK  status: ('A' for Active; 'I' for Inactive)
REMARK    1  A    between atoms: C_1  and  O_2
REMARK    2  A    between atoms: O_2  and  C_3
REMARK    3  A    between atoms: C_3  and  C_5
REMARK    4  A    between atoms: C_15  and  C_17
REMARK    5  A    between atoms: C_21  and  N_22
REMARK                            x       y       z     vdW  Elec       q    Type
REMARK                         _______ _______ _______ _____ _____    ______ ____
ROOT
ATOM      1  C   UNL     1      -3.865  13.283  20.549  0.00  0.00    +0.000 A 
ATOM      2  C   UNL     1      -2.596  12.801  20.821  0.00  0.00    +0.000 A 
ATOM      3  C   UNL     1      -2.224  12.018  19.732  0.00  0.00    +0.000 A 
ATOM      4  C   UNL     1      -3.217  12.017  18.789  0.00  0.00    +0.000 A 
ATOM      5  N   UNL     1      -4.276  12.692  19.356  0.00  0.00    +0.000 N 
ATOM      6  C   UNL     1      -3.114  11.361  17.502  0.00  0.00    +0.000 C 
ATOM      7  O   UNL     1      -4.056  11.242  16.724  0.00  0.00    +0.000 OA
ATOM      8  C   UNL     1      -1.781  10.720  17.180  0.00  0.00    +0.000 C 
ATOM      9  C   UNL     1      -0.797  10.706  18.112  0.00  0.00    +0.000 C 
ATOM     10  N   UNL     1       0.083   9.605  18.185  0.00  0.00    +0.000 N 
ATOM     11  C   UNL     1       1.491   9.807  18.120  0.00  0.00    +0.000 C 
ATOM     12  O   UNL     1       2.031  10.887  17.888  0.00  0.00    +0.000 OA
ATOM     13  C   UNL     1      -0.329   8.935  19.440  0.00  0.00    +0.000 C 
ATOM     14  C   UNL     1      -0.625  10.086  20.376  0.00  0.00    +0.000 C 
ATOM     15  C   UNL     1       0.175  11.366  20.470  0.00  0.00    +0.000 C 
ATOM     16  C   UNL     1      -0.962  11.269  19.489  0.00  0.00    +0.000 C 
ATOM     17  H   UNL     1      -5.194  12.802  18.941  0.00  0.00    +0.000 HD
ENDROOT
BRANCH  11  18
ATOM     18  C   UNL     1       2.258   8.593  18.370  0.00  0.00    +0.000 A 
ATOM     19  C   UNL     1       2.111   7.745  19.450  0.00  0.00    +0.000 A 
ATOM     20  C   UNL     1       2.948   6.630  19.251  0.00  0.00    +0.000 A 
ATOM     21  C   UNL     1       3.031   5.383  19.895  0.00  0.00    +0.000 A 
ATOM     22  C   UNL     1       2.820   4.403  18.922  0.00  0.00    +0.000 A 
ATOM     23  C   UNL     1       3.551   4.457  17.727  0.00  0.00    +0.000 A 
ATOM     24  C   UNL     1       4.096   5.683  17.310  0.00  0.00    +0.000 A 
ATOM     25  C   UNL     1       3.538   6.776  17.991  0.00  0.00    +0.000 A 
ATOM     26  N   UNL     1       3.271   8.069  17.581  0.00  0.00    +0.000 N 
ATOM     27  H   UNL     1       3.596   8.475  16.713  0.00  0.00    +0.000 HD
BRANCH  22  28
ATOM     28  N   UNL     1       1.414   3.963  18.824  0.00  0.00    +0.000 N 
ATOM     29  O   UNL     1       0.941   3.850  17.684  0.00  0.00    +0.000 OA
ATOM     30  O   UNL     1       0.816   3.689  19.876  0.00  0.00    +0.000 OA
ENDBRANCH  22  28
ENDBRANCH  11  18
BRANCH   1  31
ATOM     31  C   UNL     1      -4.632  14.232  21.297  0.00  0.00    +0.000 C 
ATOM     32  O   UNL     1      -5.678  14.750  20.932  0.00  0.00    +0.000 OA
BRANCH  31  34
ATOM     33  C   UNL     1      -3.546  15.826  22.672  0.00  0.00    +0.000 C 
ATOM     34  O   UNL     1      -4.000  14.491  22.485  0.00  0.00    +0.000 OA
ENDBRANCH  31  34
ENDBRANCH   1  31
TORSDOF 4
ENDMDL
MODEL 6
REMARK VINA RESULT:      -7.6      2.897      4.662
REMARK  Name = 
REMARK  5 active torsions:
REMARK  status: ('A' for Active; 'I' for Inactive)
REMARK    1  A    between atoms: C_1  and  O_2
REMARK    2  A    between atoms: O_2  and  C_3
REMARK    3  A    between atoms: C_3  and  C_5
REMARK    4  A    between atoms: C_15  and  C_17
REMARK    5  A    between atoms: C_21  and  N_22
REMARK                            x       y       z     vdW  Elec       q    Type
REMARK                         _______ _______ _______ _____ _____    ______ ____
ROOT
ATOM      1  C   UNL     1      -0.336  11.849  19.528  0.00  0.00    +0.000 A 
ATOM      2  C   UNL     1       0.081  10.865  18.650  0.00  0.00    +0.000 A 
ATOM      3  C   UNL     1       0.682   9.872  19.417  0.00  0.00    +0.000 A 
ATOM      4  C   UNL     1       0.633  10.206  20.744  0.00  0.00    +0.000 A 
ATOM      5  N   UNL     1       0.121  11.484  20.793  0.00  0.00    +0.000 N 
ATOM      6  C   UNL     1       1.103   9.352  21.814  0.00  0.00    +0.000 C 
ATOM      7  O   UNL     1       1.189   9.714  22.984  0.00  0.00    +0.000 OA
ATOM      8  C   UNL     1       1.595   7.978  21.410  0.00  0.00    +0.000 C 
ATOM      9  C   UNL     1       1.658   7.643  20.098  0.00  0.00    +0.000 C 
ATOM     10  N   UNL     1       2.689   6.796  19.640  0.00  0.00    +0.000 N 
ATOM     11  C   UNL     1       2.376   5.609  18.920  0.00  0.00    +0.000 C 
ATOM     12  O   UNL     1       1.237   5.180  18.745  0.00  0.00    +0.000 OA
ATOM     13  C   UNL     1       3.549   7.715  18.858  0.00  0.00    +0.000 C 
ATOM     14  C   UNL     1       2.557   8.613  18.151  0.00  0.00    +0.000 C 
ATOM     15  C   UNL     1       1.245   8.163  17.549  0.00  0.00    +0.000 C 
ATOM     16  C   UNL     1       1.296   8.585  18.992  0.00  0.00    +0.000 C 
ATOM     17  H   UNL     1       0.027  12.049  21.629  0.00  0.00    +0.000 HD
ENDROOT
BRANCH  11  18
ATOM     18  C   UNL     1       3.551   4.935  18.382  0.00  0.00    +0.000 A 
ATOM     19  C   UNL     1       3.652   4.340  17.140  0.00  0.00    +0.000 A 
ATOM     20  C   UNL     1       4.983   3.919  16.960  0.00  0.00    +0.000 A 
ATOM     21  C   UNL     1       5.690   3.475  15.829  0.00  0.00    +0.000 A 
ATOM     22  C   UNL     1       6.772   4.340  15.654  0.00  0.00    +0.000 A 
ATOM     23  C   UNL     1       7.603   4.626  16.747  0.00  0.00    +0.000 A 
ATOM     24  C   UNL     1       7.105   4.461  18.050  0.00  0.00    +0.000 A 
ATOM     25  C   UNL     1       5.707   4.349  18.078  0.00  0.00    +0.000 A 
ATOM     26  N   UNL     1       4.774   4.765  19.011  0.00  0.00    +0.000 N 
ATOM     27  H   UNL     1       5.002   5.106  19.937  0.00  0.00    +0.000 HD
BRANCH  22  28
ATOM     28  N   UNL     1       6.496   5.448  14.719  0.00  0.00    +0.000 N 
ATOM     29  O   UNL     1       5.695   6.314  15.098  0.00  0.00    +0.000 OA
ATOM     30  O   UNL     1       7.115   5.469  13.644  0.00  0.00    +0.000 OA
ENDBRANCH  22  28
ENDBRANCH  11  18
BRANCH   1  31
ATOM     31  C   UNL     1      -1.118  13.015  19.248  0.00  0.00    +0.000 C 
ATOM     32  O   UNL     1      -0.727  14.010  18.654  0.00  0.00    +0.000 OA
BRANCH  31  34
ATOM     33  C   UNL     1      -3.225  11.948  19.076  0.00  0.00    +0.000 C 
ATOM     34  O   UNL     1      -2.375  12.854  19.769  0.00  0.00    +0.000 OA
ENDBRANCH  31  34
ENDBRANCH   1  31
TORSDOF 4
ENDMDL
MODEL 7
REMARK VINA RESULT:      -7.6      0.812      1.021
REMARK  Name = 
REMARK  5 active torsions:
REMARK  status: ('A' for Active; 'I' for Inactive)
REMARK    1  A    between atoms: C_1  and  O_2
REMARK    2  A    between atoms: O_2  and  C_3
REMARK    3  A    between atoms: C_3  and  C_5
REMARK    4  A    between atoms: C_15  and  C_17
REMARK    5  A    between atoms: C_21  and  N_22
REMARK                            x       y       z     vdW  Elec       q    Type
REMARK                         _______ _______ _______ _____ _____    ______ ____
ROOT
ATOM      1  C   UNL     1      -1.748  14.542  21.354  0.00  0.00    +0.000 A 
ATOM      2  C   UNL     1      -0.533  13.893  21.216  0.00  0.00    +0.000 A 
ATOM      3  C   UNL     1      -0.746  12.824  20.352  0.00  0.00    +0.000 A 
ATOM      4  C   UNL     1      -2.051  12.803  19.939  0.00  0.00    +0.000 A 
ATOM      5  N   UNL     1      -2.692  13.786  20.662  0.00  0.00    +0.000 N 
ATOM      6  C   UNL     1      -2.584  11.863  18.976  0.00  0.00    +0.000 C 
ATOM      7  O   UNL     1      -3.780  11.757  18.719  0.00  0.00    +0.000 OA
ATOM      8  C   UNL     1      -1.588  10.913  18.344  0.00  0.00    +0.000 C 
ATOM      9  C   UNL     1      -0.296  10.918  18.755  0.00  0.00    +0.000 C 
ATOM     10  N   UNL     1       0.434   9.712  18.784  0.00  0.00    +0.000 N 
ATOM     11  C   UNL     1       1.678   9.609  18.098  0.00  0.00    +0.000 C 
ATOM     12  O   UNL     1       2.141  10.479  17.362  0.00  0.00    +0.000 OA
ATOM     13  C   UNL     1       0.573   9.443  20.235  0.00  0.00    +0.000 C 
ATOM     14  C   UNL     1       0.815  10.814  20.828  0.00  0.00    +0.000 C 
ATOM     15  C   UNL     1       1.671  11.895  20.209  0.00  0.00    +0.000 C 
ATOM     16  C   UNL     1       0.213  11.803  19.850  0.00  0.00    +0.000 C 
ATOM     17  H   UNL     1      -3.687  13.978  20.642  0.00  0.00    +0.000 HD
ENDROOT
BRANCH  11  18
ATOM     18  C   UNL     1       2.378   8.358  18.359  0.00  0.00    +0.000 A 
ATOM     19  C   UNL     1       2.115   7.478  19.390  0.00  0.00    +0.000 A 
ATOM     20  C   UNL     1       2.925   6.339  19.213  0.00  0.00    +0.000 A 
ATOM     21  C   UNL     1       2.911   5.067  19.812  0.00  0.00    +0.000 A 
ATOM     22  C   UNL     1       2.743   4.132  18.788  0.00  0.00    +0.000 A 
ATOM     23  C   UNL     1       3.568   4.201  17.656  0.00  0.00    +0.000 A 
ATOM     24  C   UNL     1       4.189   5.420  17.332  0.00  0.00    +0.000 A 
ATOM     25  C   UNL     1       3.618   6.508  18.010  0.00  0.00    +0.000 A 
ATOM     26  N   UNL     1       3.431   7.825  17.632  0.00  0.00    +0.000 N 
ATOM     27  H   UNL     1       3.838   8.249  16.808  0.00  0.00    +0.000 HD
BRANCH  22  28
ATOM     28  N   UNL     1       1.335   3.752  18.563  0.00  0.00    +0.000 N 
ATOM     29  O   UNL     1       0.782   3.096  19.456  0.00  0.00    +0.000 OA
ATOM     30  O   UNL     1       0.783   4.152  17.526  0.00  0.00    +0.000 OA
ENDBRANCH  22  28
ENDBRANCH  11  18
BRANCH   1  31
ATOM     31  C   UNL     1      -2.025  15.771  22.035  0.00  0.00    +0.000 C 
ATOM     32  O   UNL     1      -1.323  16.772  22.015  0.00  0.00    +0.000 OA
BRANCH  31  34
ATOM     33  C   UNL     1      -4.110  16.731  22.617  0.00  0.00    +0.000 C 
ATOM     34  O   UNL     1      -3.197  15.647  22.734  0.00  0.00    +0.000 OA
ENDBRANCH  31  34
ENDBRANCH   1  31
TORSDOF 4
ENDMDL
MODEL 8
REMARK VINA RESULT:      -7.6      2.742      3.354
REMARK  Name = 
REMARK  5 active torsions:
REMARK  status: ('A' for Active; 'I' for Inactive)
REMARK    1  A    between atoms: C_1  and  O_2
REMARK    2  A    between atoms: O_2  and  C_3
REMARK    3  A    between atoms: C_3  and  C_5
REMARK    4  A    between atoms: C_15  and  C_17
REMARK    5  A    between atoms: C_21  and  N_22
REMARK                            x       y       z     vdW  Elec       q    Type
REMARK                         _______ _______ _______ _____ _____    ______ ____
ROOT
ATOM      1  C   UNL     1      -2.618  14.032  23.289  0.00  0.00    +0.000 A 
ATOM      2  C   UNL     1      -2.280  12.695  23.404  0.00  0.00    +0.000 A 
ATOM      3  C   UNL     1      -1.230  12.470  22.520  0.00  0.00    +0.000 A 
ATOM      4  C   UNL     1      -0.898  13.633  21.876  0.00  0.00    +0.000 A 
ATOM      5  N   UNL     1      -1.842  14.560  22.259  0.00  0.00    +0.000 N 
ATOM      6  C   UNL     1       0.205  13.759  20.946  0.00  0.00    +0.000 C 
ATOM      7  O   UNL     1       0.407  14.761  20.266  0.00  0.00    +0.000 OA
ATOM      8  C   UNL     1       1.074  12.533  20.764  0.00  0.00    +0.000 C 
ATOM      9  C   UNL     1       0.747  11.375  21.389  0.00  0.00    +0.000 C 
ATOM     10  N   UNL     1       1.007  10.141  20.758  0.00  0.00    +0.000 N 
ATOM     11  C   UNL     1       1.772   9.141  21.425  0.00  0.00    +0.000 C 
ATOM     12  O   UNL     1       2.340   9.303  22.503  0.00  0.00    +0.000 OA
ATOM     13  C   UNL     1      -0.347   9.661  20.396  0.00  0.00    +0.000 C 
ATOM     14  C   UNL     1      -1.193  10.055  21.587  0.00  0.00    +0.000 C 
ATOM     15  C   UNL     1      -0.759   9.973  23.033  0.00  0.00    +0.000 C 
ATOM     16  C   UNL     1      -0.474  11.220  22.241  0.00  0.00    +0.000 C 
ATOM     17  H   UNL     1      -1.921  15.504  21.899  0.00  0.00    +0.000 HD
ENDROOT
BRANCH  11  18
ATOM     18  C   UNL     1       1.813   7.874  20.707  0.00  0.00    +0.000 A 
ATOM     19  C   UNL     1       2.236   7.688  19.406  0.00  0.00    +0.000 A 
ATOM     20  C   UNL     1       2.239   6.305  19.137  0.00  0.00    +0.000 A 
ATOM     21  C   UNL     1       2.781   5.548  18.084  0.00  0.00    +0.000 A 
ATOM     22  C   UNL     1       3.677   4.638  18.649  0.00  0.00    +0.000 A 
ATOM     23  C   UNL     1       3.261   3.855  19.736  0.00  0.00    +0.000 A 
ATOM     24  C   UNL     1       2.191   4.297  20.532  0.00  0.00    +0.000 A 
ATOM     25  C   UNL     1       1.895   5.653  20.326  0.00  0.00    +0.000 A 
ATOM     26  N   UNL     1       1.435   6.630  21.190  0.00  0.00    +0.000 N 
ATOM     27  H   UNL     1       1.088   6.453  22.124  0.00  0.00    +0.000 HD
BRANCH  22  28
ATOM     28  N   UNL     1       5.072   5.120  18.670  0.00  0.00    +0.000 N 
ATOM     29  O   UNL     1       5.859   4.525  19.420  0.00  0.00    +0.000 OA
ATOM     30  O   UNL     1       5.377   6.049  17.906  0.00  0.00    +0.000 OA
ENDBRANCH  22  28
ENDBRANCH  11  18
BRANCH   1  31
ATOM     31  C   UNL     1      -3.551  14.782  24.075  0.00  0.00    +0.000 C 
ATOM     32  O   UNL     1      -4.580  15.297  23.662  0.00  0.00    +0.000 OA
BRANCH  31  34
ATOM     33  C   UNL     1      -2.183  15.903  25.651  0.00  0.00    +0.000 C 
ATOM     34  O   UNL     1      -3.100  14.853  25.368  0.00  0.00    +0.000 OA
ENDBRANCH  31  34
ENDBRANCH   1  31
TORSDOF 4
ENDMDL
MODEL 9
REMARK VINA RESULT:      -7.5      5.645     10.259
REMARK  Name = 
REMARK  5 active torsions:
REMARK  status: ('A' for Active; 'I' for Inactive)
REMARK    1  A    between atoms: C_1  and  O_2
REMARK    2  A    between atoms: O_2  and  C_3
REMARK    3  A    between atoms: C_3  and  C_5
REMARK    4  A    between atoms: C_15  and  C_17
REMARK    5  A    between atoms: C_21  and  N_22
REMARK                            x       y       z     vdW  Elec       q    Type
REMARK                         _______ _______ _______ _____ _____    ______ ____
ROOT
ATOM      1  C   UNL     1      -3.483  11.089  16.902  0.00  0.00    +0.000 A 
ATOM      2  C   UNL     1      -2.832  11.454  18.068  0.00  0.00    +0.000 A 
ATOM      3  C   UNL     1      -3.805  11.944  18.934  0.00  0.00    +0.000 A 
ATOM      4  C   UNL     1      -5.040  11.877  18.344  0.00  0.00    +0.000 A 
ATOM      5  N   UNL     1      -4.816  11.471  17.046  0.00  0.00    +0.000 N 
ATOM      6  C   UNL     1      -6.276  12.237  19.004  0.00  0.00    +0.000 C 
ATOM      7  O   UNL     1      -7.357  12.312  18.427  0.00  0.00    +0.000 OA
ATOM      8  C   UNL     1      -6.169  12.626  20.464  0.00  0.00    +0.000 C 
ATOM      9  C   UNL     1      -4.951  12.706  21.053  0.00  0.00    +0.000 C 
ATOM     10  N   UNL     1      -4.717  13.679  22.047  0.00  0.00    +0.000 N 
ATOM     11  C   UNL     1      -4.223  13.293  23.326  0.00  0.00    +0.000 C 
ATOM     12  O   UNL     1      -4.078  12.129  23.695  0.00  0.00    +0.000 OA
ATOM     13  C   UNL     1      -3.816  14.639  21.367  0.00  0.00    +0.000 C 
ATOM     14  C   UNL     1      -2.900  13.750  20.553  0.00  0.00    +0.000 C 
ATOM     15  C   UNL     1      -2.332  12.426  21.012  0.00  0.00    +0.000 C 
ATOM     16  C   UNL     1      -3.668  12.463  20.321  0.00  0.00    +0.000 C 
ATOM     17  H   UNL     1      -5.522  11.395  16.323  0.00  0.00    +0.000 HD
ENDROOT
BRANCH  11  18
ATOM     18  C   UNL     1      -3.884  14.426  24.178  0.00  0.00    +0.000 A 
ATOM     19  C   UNL     1      -2.639  14.706  24.703  0.00  0.00    +0.000 A 
ATOM     20  C   UNL     1      -2.708  15.950  25.360  0.00  0.00    +0.000 A 
ATOM     21  C   UNL     1      -1.716  16.811  25.861  0.00  0.00    +0.000 A 
ATOM     22  C   UNL     1      -1.868  18.037  25.210  0.00  0.00    +0.000 A 
ATOM     23  C   UNL     1      -3.138  18.630  25.156  0.00  0.00    +0.000 A 
ATOM     24  C   UNL     1      -4.279  17.824  25.304  0.00  0.00    +0.000 A 
ATOM     25  C   UNL     1      -3.993  16.459  25.147  0.00  0.00    +0.000 A 
ATOM     26  N   UNL     1      -4.741  15.423  24.618  0.00  0.00    +0.000 N 
ATOM     27  H   UNL     1      -5.724  15.486  24.385  0.00  0.00    +0.000 HD
BRANCH  22  28
ATOM     28  N   UNL     1      -1.015  18.180  24.014  0.00  0.00    +0.000 N 
ATOM     29  O   UNL     1      -1.593  18.261  22.921  0.00  0.00    +0.000 OA
ATOM     30  O   UNL     1       0.212  18.260  24.181  0.00  0.00    +0.000 OA
ENDBRANCH  22  28
ENDBRANCH  11  18
BRANCH   1  31
ATOM     31  C   UNL     1      -2.945  10.418  15.759  0.00  0.00    +0.000 C 
ATOM     32  O   UNL     1      -2.085   9.549  15.780  0.00  0.00    +0.000 OA
BRANCH  31  34
ATOM     33  C   UNL     1      -3.687   9.994  13.550  0.00  0.00    +0.000 C 
ATOM     34  O   UNL     1      -3.531  10.914  14.624  0.00  0.00    +0.000 OA
ENDBRANCH  31  34
ENDBRANCH   1  31
TORSDOF 4
ENDMDL
