MODEL 1
REMARK VINA RESULT:      -8.1      0.000      0.000
REMARK  Name = 
REMARK  1 active torsions:
REMARK  status: ('A' for Active; 'I' for Inactive)
REMARK    1  A    between atoms: C_2  and  C_17
REMARK                            x       y       z     vdW  Elec       q    Type
REMARK                         _______ _______ _______ _____ _____    ______ ____
ROOT
ATOM      1  O   UNL     1       2.132   5.187  21.375  0.00  0.00    +0.000 OA
ATOM      2  C   UNL     1       2.350   5.346  20.180  0.00  0.00    +0.000 C 
ATOM      3  N   UNL     1       2.245   6.545  19.485  0.00  0.00    +0.000 N 
ATOM      4  C   UNL     1       1.692   7.713  19.962  0.00  0.00    +0.000 A 
ATOM      5  N   UNL     1       1.121   7.768  21.119  0.00  0.00    +0.000 NA
ATOM      6  C   UNL     1       0.532   8.968  21.552  0.00  0.00    +0.000 A 
ATOM      7  C   UNL     1      -0.071   8.987  22.808  0.00  0.00    +0.000 A 
ATOM      8  C   UNL     1      -0.698  10.144  23.271  0.00  0.00    +0.000 A 
ATOM      9  C   UNL     1      -0.724  11.299  22.479  0.00  0.00    +0.000 A 
ATOM     10  C   UNL     1      -0.115  11.301  21.221  0.00  0.00    +0.000 A 
ATOM     11  C   UNL     1       0.506  10.135  20.771  0.00  0.00    +0.000 A 
ATOM     12  N   UNL     1       1.152  10.041  19.528  0.00  0.00    +0.000 N 
ATOM     13  C   UNL     1       1.332  10.964  18.537  0.00  0.00    +0.000 A 
ATOM     14  N   UNL     1       2.022  10.467  17.532  0.00  0.00    +0.000 NA
ATOM     15  C   UNL     1       2.294   9.168  17.887  0.00  0.00    +0.000 A 
ATOM     16  C   UNL     1       1.746   8.871  19.115  0.00  0.00    +0.000 A 
ATOM     17  H   UNL     1       2.620   6.572  18.550  0.00  0.00    +0.000 HD
ENDROOT
BRANCH   2  18
ATOM     18  C   UNL     1       2.822   4.176  19.391  0.00  0.00    +0.000 A 
ATOM     19  C   UNL     1       4.146   4.141  18.912  0.00  0.00    +0.000 A 
ATOM     20 CL   UNL     1       5.329   5.356  19.260  0.00  0.00    +0.000 Cl
ATOM     21  C   UNL     1       4.598   3.056  18.148  0.00  0.00    +0.000 A 
ATOM     22  C   UNL     1       3.749   1.990  17.863  0.00  0.00    +0.000 A 
ATOM     23  C   UNL     1       2.437   2.014  18.327  0.00  0.00    +0.000 A 
ATOM     24  C   UNL     1       1.969   3.104  19.072  0.00  0.00    +0.000 A 
ATOM     25 CL   UNL     1       0.300   3.040  19.535  0.00  0.00    +0.000 Cl
ENDBRANCH   2  18
TORSDOF 1
ENDMDL
MODEL 2
REMARK VINA RESULT:      -8.1      0.073      1.880
REMARK  Name = 
REMARK  1 active torsions:
REMARK  status: ('A' for Active; 'I' for Inactive)
REMARK    1  A    between atoms: C_2  and  C_17
REMARK                            x       y       z     vdW  Elec       q    Type
REMARK                         _______ _______ _______ _____ _____    ______ ____
ROOT
ATOM      1  O   UNL     1       2.123   5.182  21.402  0.00  0.00    +0.000 OA
ATOM      2  C   UNL     1       2.364   5.338  20.212  0.00  0.00    +0.000 C 
ATOM      3  N   UNL     1       2.270   6.535  19.511  0.00  0.00    +0.000 N 
ATOM      4  C   UNL     1       1.702   7.702  19.973  0.00  0.00    +0.000 A 
ATOM      5  N   UNL     1       1.107   7.758  21.118  0.00  0.00    +0.000 NA
ATOM      6  C   UNL     1       0.505   8.957  21.535  0.00  0.00    +0.000 A 
ATOM      7  C   UNL     1      -0.123   8.977  22.779  0.00  0.00    +0.000 A 
ATOM      8  C   UNL     1      -0.765  10.133  23.226  0.00  0.00    +0.000 A 
ATOM      9  C   UNL     1      -0.779  11.285  22.430  0.00  0.00    +0.000 A 
ATOM     10  C   UNL     1      -0.145  11.287  21.186  0.00  0.00    +0.000 A 
ATOM     11  C   UNL     1       0.491  10.122  20.751  0.00  0.00    +0.000 A 
ATOM     12  N   UNL     1       1.161  10.027  19.522  0.00  0.00    +0.000 N 
ATOM     13  C   UNL     1       1.359  10.948  18.532  0.00  0.00    +0.000 A 
ATOM     14  N   UNL     1       2.071  10.451  17.543  0.00  0.00    +0.000 NA
ATOM     15  C   UNL     1       2.340   9.154  17.907  0.00  0.00    +0.000 A 
ATOM     16  C   UNL     1       1.769   8.858  19.125  0.00  0.00    +0.000 A 
ATOM     17  H   UNL     1       2.663   6.561  18.584  0.00  0.00    +0.000 HD
ENDROOT
BRANCH   2  18
ATOM     18  C   UNL     1       2.857   4.168  19.435  0.00  0.00    +0.000 A 
ATOM     19  C   UNL     1       1.990   3.093  19.160  0.00  0.00    +0.000 A 
ATOM     20 CL   UNL     1       0.315   3.070  19.596  0.00  0.00    +0.000 Cl
ATOM     21  C   UNL     1       2.448   1.974  18.449  0.00  0.00    +0.000 A 
ATOM     22  C   UNL     1       3.761   1.916  17.992  0.00  0.00    +0.000 A 
ATOM     23  C   UNL     1       4.628   2.970  18.260  0.00  0.00    +0.000 A 
ATOM     24  C   UNL     1       4.189   4.083  18.989  0.00  0.00    +0.000 A 
ATOM     25 CL   UNL     1       5.384   5.296  19.309  0.00  0.00    +0.000 Cl
ENDBRANCH   2  18
TORSDOF 1
ENDMDL
MODEL 3
REMARK VINA RESULT:      -7.8      3.272      7.741
REMARK  Name = 
REMARK  1 active torsions:
REMARK  status: ('A' for Active; 'I' for Inactive)
REMARK    1  A    between atoms: C_2  and  C_17
REMARK                            x       y       z     vdW  Elec       q    Type
REMARK                         _______ _______ _______ _____ _____    ______ ____
ROOT
ATOM      1  O   UNL     1       2.180  10.483  17.616  0.00  0.00    +0.000 OA
ATOM      2  C   UNL     1       1.393  10.042  18.443  0.00  0.00    +0.000 C 
ATOM      3  N   UNL     1       1.479   8.804  19.071  0.00  0.00    +0.000 N 
ATOM      4  C   UNL     1       2.339   7.782  18.734  0.00  0.00    +0.000 A 
ATOM      5  N   UNL     1       3.114   7.862  17.704  0.00  0.00    +0.000 NA
ATOM      6  C   UNL     1       3.947   6.781  17.371  0.00  0.00    +0.000 A 
ATOM      7  C   UNL     1       4.772   6.908  16.255  0.00  0.00    +0.000 A 
ATOM      8  C   UNL     1       5.594   5.851  15.862  0.00  0.00    +0.000 A 
ATOM      9  C   UNL     1       5.602   4.655  16.589  0.00  0.00    +0.000 A 
ATOM     10  C   UNL     1       4.790   4.513  17.717  0.00  0.00    +0.000 A 
ATOM     11  C   UNL     1       3.971   5.578  18.097  0.00  0.00    +0.000 A 
ATOM     12  N   UNL     1       3.128   5.537  19.217  0.00  0.00    +0.000 N 
ATOM     13  C   UNL     1       2.910   4.554  20.142  0.00  0.00    +0.000 A 
ATOM     14  N   UNL     1       2.045   4.934  21.059  0.00  0.00    +0.000 NA
ATOM     15  C   UNL     1       1.685   6.212  20.708  0.00  0.00    +0.000 A 
ATOM     16  C   UNL     1       2.328   6.604  19.554  0.00  0.00    +0.000 A 
ATOM     17  H   UNL     1       0.867   8.640  19.854  0.00  0.00    +0.000 HD
ENDROOT
BRANCH   2  18
ATOM     18  C   UNL     1       0.263  10.911  18.871  0.00  0.00    +0.000 A 
ATOM     19  C   UNL     1      -1.003  10.761  18.273  0.00  0.00    +0.000 A 
ATOM     20 CL   UNL     1      -1.378   9.544  17.101  0.00  0.00    +0.000 Cl
ATOM     21  C   UNL     1      -2.070  11.588  18.651  0.00  0.00    +0.000 A 
ATOM     22  C   UNL     1      -1.898  12.559  19.633  0.00  0.00    +0.000 A 
ATOM     23  C   UNL     1      -0.652  12.719  20.229  0.00  0.00    +0.000 A 
ATOM     24  C   UNL     1       0.427  11.914  19.844  0.00  0.00    +0.000 A 
ATOM     25 CL   UNL     1       1.940  12.256  20.617  0.00  0.00    +0.000 Cl
ENDBRANCH   2  18
TORSDOF 1
ENDMDL
MODEL 4
REMARK VINA RESULT:      -7.8      3.265      7.569
REMARK  Name = 
REMARK  1 active torsions:
REMARK  status: ('A' for Active; 'I' for Inactive)
REMARK    1  A    between atoms: C_2  and  C_17
REMARK                            x       y       z     vdW  Elec       q    Type
REMARK                         _______ _______ _______ _____ _____    ______ ____
ROOT
ATOM      1  O   UNL     1       2.158  10.478  17.602  0.00  0.00    +0.000 OA
ATOM      2  C   UNL     1       1.369  10.032  18.425  0.00  0.00    +0.000 C 
ATOM      3  N   UNL     1       1.461   8.798  19.058  0.00  0.00    +0.000 N 
ATOM      4  C   UNL     1       2.333   7.783  18.732  0.00  0.00    +0.000 A 
ATOM      5  N   UNL     1       3.116   7.867  17.708  0.00  0.00    +0.000 NA
ATOM      6  C   UNL     1       3.961   6.792  17.386  0.00  0.00    +0.000 A 
ATOM      7  C   UNL     1       4.793   6.922  16.275  0.00  0.00    +0.000 A 
ATOM      8  C   UNL     1       5.628   5.871  15.893  0.00  0.00    +0.000 A 
ATOM      9  C   UNL     1       5.641   4.678  16.625  0.00  0.00    +0.000 A 
ATOM     10  C   UNL     1       4.822   4.533  17.747  0.00  0.00    +0.000 A 
ATOM     11  C   UNL     1       3.990   5.592  18.116  0.00  0.00    +0.000 A 
ATOM     12  N   UNL     1       3.139   5.547  19.230  0.00  0.00    +0.000 N 
ATOM     13  C   UNL     1       2.924   4.566  20.157  0.00  0.00    +0.000 A 
ATOM     14  N   UNL     1       2.048   4.942  21.066  0.00  0.00    +0.000 NA
ATOM     15  C   UNL     1       1.679   6.215  20.707  0.00  0.00    +0.000 A 
ATOM     16  C   UNL     1       2.327   6.608  19.557  0.00  0.00    +0.000 A 
ATOM     17  H   UNL     1       0.845   8.631  19.838  0.00  0.00    +0.000 HD
ENDROOT
BRANCH   2  18
ATOM     18  C   UNL     1       0.228  10.893  18.841  0.00  0.00    +0.000 A 
ATOM     19  C   UNL     1       0.407  11.853  19.856  0.00  0.00    +0.000 A 
ATOM     20 CL   UNL     1       1.927  12.178  20.618  0.00  0.00    +0.000 Cl
ATOM     21  C   UNL     1      -0.665  12.654  20.274  0.00  0.00    +0.000 A 
ATOM     22  C   UNL     1      -1.918  12.523  19.683  0.00  0.00    +0.000 A 
ATOM     23  C   UNL     1      -2.109  11.576  18.682  0.00  0.00    +0.000 A 
ATOM     24  C   UNL     1      -1.051  10.754  18.272  0.00  0.00    +0.000 A 
ATOM     25 CL   UNL     1      -1.436   9.574  17.063  0.00  0.00    +0.000 Cl
ENDBRANCH   2  18
TORSDOF 1
ENDMDL
MODEL 5
REMARK VINA RESULT:      -7.4      2.874      7.535
REMARK  Name = 
REMARK  1 active torsions:
REMARK  status: ('A' for Active; 'I' for Inactive)
REMARK    1  A    between atoms: C_2  and  C_17
REMARK                            x       y       z     vdW  Elec       q    Type
REMARK                         _______ _______ _______ _____ _____    ______ ____
ROOT
ATOM      1  O   UNL     1       2.312   9.643  18.580  0.00  0.00    +0.000 OA
ATOM      2  C   UNL     1       1.610   9.055  19.393  0.00  0.00    +0.000 C 
ATOM      3  N   UNL     1       1.743   7.724  19.773  0.00  0.00    +0.000 N 
ATOM      4  C   UNL     1       2.547   6.784  19.166  0.00  0.00    +0.000 A 
ATOM      5  N   UNL     1       3.209   7.054  18.090  0.00  0.00    +0.000 NA
ATOM      6  C   UNL     1       3.986   6.055  17.479  0.00  0.00    +0.000 A 
ATOM      7  C   UNL     1       4.689   6.387  16.322  0.00  0.00    +0.000 A 
ATOM      8  C   UNL     1       5.448   5.423  15.658  0.00  0.00    +0.000 A 
ATOM      9  C   UNL     1       5.515   4.114  16.151  0.00  0.00    +0.000 A 
ATOM     10  C   UNL     1       4.825   3.766  17.315  0.00  0.00    +0.000 A 
ATOM     11  C   UNL     1       4.067   4.741  17.967  0.00  0.00    +0.000 A 
ATOM     12  N   UNL     1       3.348   4.492  19.145  0.00  0.00    +0.000 N 
ATOM     13  C   UNL     1       3.215   3.356  19.895  0.00  0.00    +0.000 A 
ATOM     14  N   UNL     1       2.458   3.560  20.952  0.00  0.00    +0.000 NA
ATOM     15  C   UNL     1       2.082   4.879  20.880  0.00  0.00    +0.000 A 
ATOM     16  C   UNL     1       2.606   5.477  19.754  0.00  0.00    +0.000 A 
ATOM     17  H   UNL     1       1.216   7.417  20.575  0.00  0.00    +0.000 HD
ENDROOT
BRANCH   2  18
ATOM     18  C   UNL     1       0.546   9.826  20.091  0.00  0.00    +0.000 A 
ATOM     19  C   UNL     1      -0.489  10.426  19.347  0.00  0.00    +0.000 A 
ATOM     20 CL   UNL     1      -0.670  10.253  17.634  0.00  0.00    +0.000 Cl
ATOM     21  C   UNL     1      -1.485  11.175  19.989  0.00  0.00    +0.000 A 
ATOM     22  C   UNL     1      -1.475  11.324  21.373  0.00  0.00    +0.000 A 
ATOM     23  C   UNL     1      -0.456  10.740  22.119  0.00  0.00    +0.000 A 
ATOM     24  C   UNL     1       0.557  10.009  21.486  0.00  0.00    +0.000 A 
ATOM     25 CL   UNL     1       1.799   9.387  22.521  0.00  0.00    +0.000 Cl
ENDBRANCH   2  18
TORSDOF 1
ENDMDL
MODEL 6
REMARK VINA RESULT:      -7.4      2.865      7.463
REMARK  Name = 
REMARK  1 active torsions:
REMARK  status: ('A' for Active; 'I' for Inactive)
REMARK    1  A    between atoms: C_2  and  C_17
REMARK                            x       y       z     vdW  Elec       q    Type
REMARK                         _______ _______ _______ _____ _____    ______ ____
ROOT
ATOM      1  O   UNL     1       2.315   9.649  18.561  0.00  0.00    +0.000 OA
ATOM      2  C   UNL     1       1.604   9.072  19.374  0.00  0.00    +0.000 C 
ATOM      3  N   UNL     1       1.725   7.743  19.765  0.00  0.00    +0.000 N 
ATOM      4  C   UNL     1       2.525   6.793  19.170  0.00  0.00    +0.000 A 
ATOM      5  N   UNL     1       3.197   7.050  18.097  0.00  0.00    +0.000 NA
ATOM      6  C   UNL     1       3.970   6.041  17.498  0.00  0.00    +0.000 A 
ATOM      7  C   UNL     1       4.683   6.359  16.344  0.00  0.00    +0.000 A 
ATOM      8  C   UNL     1       5.439   5.384  15.692  0.00  0.00    +0.000 A 
ATOM      9  C   UNL     1       5.493   4.079  16.195  0.00  0.00    +0.000 A 
ATOM     10  C   UNL     1       4.794   3.745  17.357  0.00  0.00    +0.000 A 
ATOM     11  C   UNL     1       4.039   4.730  17.997  0.00  0.00    +0.000 A 
ATOM     12  N   UNL     1       3.311   4.495  19.173  0.00  0.00    +0.000 N 
ATOM     13  C   UNL     1       3.165   3.366  19.929  0.00  0.00    +0.000 A 
ATOM     14  N   UNL     1       2.402   3.583  20.981  0.00  0.00    +0.000 NA
ATOM     15  C   UNL     1       2.036   4.904  20.896  0.00  0.00    +0.000 A 
ATOM     16  C   UNL     1       2.571   5.490  19.769  0.00  0.00    +0.000 A 
ATOM     17  H   UNL     1       1.190   7.446  20.566  0.00  0.00    +0.000 HD
ENDROOT
BRANCH   2  18
ATOM     18  C   UNL     1       0.540   9.856  20.060  0.00  0.00    +0.000 A 
ATOM     19  C   UNL     1       0.571  10.005  21.460  0.00  0.00    +0.000 A 
ATOM     20 CL   UNL     1       1.842   9.398  22.466  0.00  0.00    +0.000 Cl
ATOM     21  C   UNL     1      -0.437  10.722  22.121  0.00  0.00    +0.000 A 
ATOM     22  C   UNL     1      -1.473  11.310  21.402  0.00  0.00    +0.000 A 
ATOM     23  C   UNL     1      -1.516  11.167  20.019  0.00  0.00    +0.000 A 
ATOM     24  C   UNL     1      -0.528  10.434  19.350  0.00  0.00    +0.000 A 
ATOM     25 CL   UNL     1      -0.732  10.279  17.636  0.00  0.00    +0.000 Cl
ENDBRANCH   2  18
TORSDOF 1
ENDMDL
MODEL 7
REMARK VINA RESULT:      -7.4      2.756      6.963
REMARK  Name = 
REMARK  1 active torsions:
REMARK  status: ('A' for Active; 'I' for Inactive)
REMARK    1  A    between atoms: C_2  and  C_17
REMARK                            x       y       z     vdW  Elec       q    Type
REMARK                         _______ _______ _______ _____ _____    ______ ____
ROOT
ATOM      1  O   UNL     1      -0.348   7.687  21.582  0.00  0.00    +0.000 OA
ATOM      2  C   UNL     1       0.263   8.507  20.909  0.00  0.00    +0.000 C 
ATOM      3  N   UNL     1       1.292   8.225  20.017  0.00  0.00    +0.000 N 
ATOM      4  C   UNL     1       1.938   7.017  19.880  0.00  0.00    +0.000 A 
ATOM      5  N   UNL     1       1.687   6.023  20.666  0.00  0.00    +0.000 NA
ATOM      6  C   UNL     1       2.398   4.820  20.520  0.00  0.00    +0.000 A 
ATOM      7  C   UNL     1       2.095   3.769  21.384  0.00  0.00    +0.000 A 
ATOM      8  C   UNL     1       2.794   2.565  21.302  0.00  0.00    +0.000 A 
ATOM      9  C   UNL     1       3.804   2.398  20.347  0.00  0.00    +0.000 A 
ATOM     10  C   UNL     1       4.114   3.436  19.465  0.00  0.00    +0.000 A 
ATOM     11  C   UNL     1       3.407   4.637  19.561  0.00  0.00    +0.000 A 
ATOM     12  N   UNL     1       3.639   5.732  18.716  0.00  0.00    +0.000 N 
ATOM     13  C   UNL     1       4.516   5.900  17.681  0.00  0.00    +0.000 A 
ATOM     14  N   UNL     1       4.393   7.089  17.129  0.00  0.00    +0.000 NA
ATOM     15  C   UNL     1       3.400   7.717  17.841  0.00  0.00    +0.000 A 
ATOM     16  C   UNL     1       2.927   6.902  18.847  0.00  0.00    +0.000 A 
ATOM     17  H   UNL     1       1.586   8.967  19.402  0.00  0.00    +0.000 HD
ENDROOT
BRANCH   2  18
ATOM     18  C   UNL     1      -0.151   9.934  20.994  0.00  0.00    +0.000 A 
ATOM     19  C   UNL     1      -0.320  10.541  22.253  0.00  0.00    +0.000 A 
ATOM     20 CL   UNL     1       0.013   9.751  23.757  0.00  0.00    +0.000 Cl
ATOM     21  C   UNL     1      -0.731  11.878  22.348  0.00  0.00    +0.000 A 
ATOM     22  C   UNL     1      -0.964  12.629  21.200  0.00  0.00    +0.000 A 
ATOM     23  C   UNL     1      -0.804  12.040  19.950  0.00  0.00    +0.000 A 
ATOM     24  C   UNL     1      -0.415  10.699  19.843  0.00  0.00    +0.000 A 
ATOM     25 CL   UNL     1      -0.314  10.068  18.232  0.00  0.00    +0.000 Cl
ENDBRANCH   2  18
TORSDOF 1
ENDMDL
MODEL 8
REMARK VINA RESULT:      -7.2      2.740      6.912
REMARK  Name = 
REMARK  1 active torsions:
REMARK  status: ('A' for Active; 'I' for Inactive)
REMARK    1  A    between atoms: C_2  and  C_17
REMARK                            x       y       z     vdW  Elec       q    Type
REMARK                         _______ _______ _______ _____ _____    ______ ____
ROOT
ATOM      1  O   UNL     1       0.014   8.075  21.452  0.00  0.00    +0.000 OA
ATOM      2  C   UNL     1       0.687   8.788  20.719  0.00  0.00    +0.000 C 
ATOM      3  N   UNL     1       1.653   8.352  19.819  0.00  0.00    +0.000 N 
ATOM      4  C   UNL     1       2.163   7.075  19.734  0.00  0.00    +0.000 A 
ATOM      5  N   UNL     1       1.832   6.156  20.580  0.00  0.00    +0.000 NA
ATOM      6  C   UNL     1       2.407   4.878  20.483  0.00  0.00    +0.000 A 
ATOM      7  C   UNL     1       2.021   3.913  21.412  0.00  0.00    +0.000 A 
ATOM      8  C   UNL     1       2.586   2.638  21.380  0.00  0.00    +0.000 A 
ATOM      9  C   UNL     1       3.543   2.314  20.410  0.00  0.00    +0.000 A 
ATOM     10  C   UNL     1       3.934   3.264  19.464  0.00  0.00    +0.000 A 
ATOM     11  C   UNL     1       3.362   4.537  19.511  0.00  0.00    +0.000 A 
ATOM     12  N   UNL     1       3.682   5.556  18.601  0.00  0.00    +0.000 N 
ATOM     13  C   UNL     1       4.539   5.574  17.536  0.00  0.00    +0.000 A 
ATOM     14  N   UNL     1       4.526   6.738  16.923  0.00  0.00    +0.000 NA
ATOM     15  C   UNL     1       3.627   7.505  17.623  0.00  0.00    +0.000 A 
ATOM     16  C   UNL     1       3.102   6.801  18.684  0.00  0.00    +0.000 A 
ATOM     17  H   UNL     1       2.005   9.024  19.156  0.00  0.00    +0.000 HD
ENDROOT
BRANCH   2  18
ATOM     18  C   UNL     1       0.430  10.254  20.735  0.00  0.00    +0.000 A 
ATOM     19  C   UNL     1       0.783  11.041  19.621  0.00  0.00    +0.000 A 
ATOM     20 CL   UNL     1       1.434  10.395  18.153  0.00  0.00    +0.000 Cl
ATOM     21  C   UNL     1       0.567  12.426  19.631  0.00  0.00    +0.000 A 
ATOM     22  C   UNL     1      -0.013  13.042  20.736  0.00  0.00    +0.000 A 
ATOM     23  C   UNL     1      -0.363  12.277  21.844  0.00  0.00    +0.000 A 
ATOM     24  C   UNL     1      -0.132  10.896  21.854  0.00  0.00    +0.000 A 
ATOM     25 CL   UNL     1      -0.554  10.069  23.317  0.00  0.00    +0.000 Cl
ENDBRANCH   2  18
TORSDOF 1
ENDMDL
MODEL 9
REMARK VINA RESULT:      -6.7      1.981      3.437
REMARK  Name = 
REMARK  1 active torsions:
REMARK  status: ('A' for Active; 'I' for Inactive)
REMARK    1  A    between atoms: C_2  and  C_17
REMARK                            x       y       z     vdW  Elec       q    Type
REMARK                         _______ _______ _______ _____ _____    ______ ____
ROOT
ATOM      1  O   UNL     1       2.064   7.828  17.667  0.00  0.00    +0.000 OA
ATOM      2  C   UNL     1       2.278   7.413  18.799  0.00  0.00    +0.000 C 
ATOM      3  N   UNL     1       1.776   7.959  19.976  0.00  0.00    +0.000 N 
ATOM      4  C   UNL     1       1.121   9.165  20.095  0.00  0.00    +0.000 A 
ATOM      5  N   UNL     1       0.989   9.965  19.090  0.00  0.00    +0.000 NA
ATOM      6  C   UNL     1       0.350  11.205  19.263  0.00  0.00    +0.000 A 
ATOM      7  C   UNL     1       0.224  12.038  18.154  0.00  0.00    +0.000 A 
ATOM      8  C   UNL     1      -0.372  13.293  18.279  0.00  0.00    +0.000 A 
ATOM      9  C   UNL     1      -0.855  13.725  19.521  0.00  0.00    +0.000 A 
ATOM     10  C   UNL     1      -0.746  12.899  20.642  0.00  0.00    +0.000 A 
ATOM     11  C   UNL     1      -0.145  11.646  20.501  0.00  0.00    +0.000 A 
ATOM     12  N   UNL     1       0.002  10.743  21.564  0.00  0.00    +0.000 N 
ATOM     13  C   UNL     1      -0.369  10.830  22.876  0.00  0.00    +0.000 A 
ATOM     14  N   UNL     1      -0.061   9.736  23.541  0.00  0.00    +0.000 NA
ATOM     15  C   UNL     1       0.539   8.911  22.621  0.00  0.00    +0.000 A 
ATOM     16  C   UNL     1       0.609   9.520  21.388  0.00  0.00    +0.000 A 
ATOM     17  H   UNL     1       1.886   7.419  20.819  0.00  0.00    +0.000 HD
ENDROOT
BRANCH   2  18
ATOM     18  C   UNL     1       3.103   6.184  18.953  0.00  0.00    +0.000 A 
ATOM     19  C   UNL     1       4.325   6.068  18.262  0.00  0.00    +0.000 A 
ATOM     20 CL   UNL     1       5.001   7.325  17.283  0.00  0.00    +0.000 Cl
ATOM     21  C   UNL     1       5.101   4.907  18.380  0.00  0.00    +0.000 A 
ATOM     22  C   UNL     1       4.684   3.858  19.194  0.00  0.00    +0.000 A 
ATOM     23  C   UNL     1       3.478   3.959  19.879  0.00  0.00    +0.000 A 
ATOM     24  C   UNL     1       2.683   5.105  19.752  0.00  0.00    +0.000 A 
ATOM     25 CL   UNL     1       1.176   5.079  20.607  0.00  0.00    +0.000 Cl
ENDBRANCH   2  18
TORSDOF 1
ENDMDL
