MODEL 1
REMARK VINA RESULT:      -6.2      0.000      0.000
REMARK  Name = 
REMARK  20 active torsions:
REMARK  status: ('A' for Active; 'I' for Inactive)
REMARK    1  A    between atoms: C_1  and  C_2
REMARK    2  A    between atoms: C_2  and  C_3
REMARK    3  A    between atoms: C_3  and  C_4
REMARK    4  A    between atoms: N_6  and  C_7
REMARK    5  A    between atoms: C_7  and  C_8
REMARK    6  A    between atoms: C_7  and  C_15
REMARK    7  A    between atoms: C_8  and  C_9
REMARK    8  A    between atoms: N_17  and  C_18
REMARK    9  A    between atoms: C_18  and  C_19
REMARK   10  A    between atoms: C_19  and  C_20
REMARK   11  A    between atoms: C_20  and  N_21
REMARK   12  A    between atoms: N_21  and  C_22
REMARK   13  A    between atoms: C_22  and  C_23
REMARK   14  A    between atoms: C_23  and  C_24
REMARK   15  A    between atoms: C_24  and  C_25
REMARK   16  A    between atoms: C_25  and  N_26
REMARK   17  A    between atoms: N_26  and  C_27
REMARK   18  A    between atoms: C_27  and  C_28
REMARK   19  A    between atoms: C_28  and  C_29
REMARK   20  A    between atoms: C_29  and  N_30
REMARK                            x       y       z     vdW  Elec       q    Type
REMARK                         _______ _______ _______ _____ _____    ______ ____
ROOT
ATOM      1  C   UNL     1       3.317   3.296  17.784  0.00  0.00    +0.000 C 
ATOM      2  O   UNL     1       2.508   2.704  17.074  0.00  0.00    +0.000 OA
ATOM      3  N   UNL     1       3.243   3.257  19.166  0.00  0.00    +0.000 N 
ATOM      4  H   UNL     1       3.983   3.635  19.739  0.00  0.00    +0.000 HD
ENDROOT
BRANCH   3   5
ATOM      5  C   UNL     1       2.168   2.531  19.840  0.00  0.00    +0.000 C 
BRANCH   5   6
ATOM      6  C   UNL     1       1.253   3.431  20.675  0.00  0.00    +0.000 C 
BRANCH   6   7
ATOM      7  C   UNL     1       1.188   4.850  20.094  0.00  0.00    +0.000 C 
BRANCH   7   8
ATOM      8  N   UNL     1       2.084   5.750  20.824  0.00  0.00    +0.000 NA
ATOM      9  H   UNL     1       3.052   5.453  20.691  0.00  0.00    +0.000 HD
BRANCH   8  10
ATOM     10  C   UNL     1       1.933   7.130  20.364  0.00  0.00    +0.000 C 
BRANCH  10  11
ATOM     11  C   UNL     1       2.363   7.243  18.901  0.00  0.00    +0.000 C 
BRANCH  11  12
ATOM     12  C   UNL     1       1.959   8.599  18.318  0.00  0.00    +0.000 C 
BRANCH  12  13
ATOM     13  C   UNL     1       1.146   9.405  19.330  0.00  0.00    +0.000 C 
BRANCH  13  14
ATOM     14  N   UNL     1       0.457  10.497  18.647  0.00  0.00    +0.000 NA
ATOM     15  H   UNL     1       1.096  10.951  17.992  0.00  0.00    +0.000 HD
BRANCH  14  16
ATOM     16  C   UNL     1      -0.710   9.997  17.919  0.00  0.00    +0.000 C 
BRANCH  16  17
ATOM     17  C   UNL     1      -1.970  10.731  18.374  0.00  0.00    +0.000 C 
BRANCH  17  18
ATOM     18  C   UNL     1      -1.660  12.202  18.642  0.00  0.00    +0.000 C 
BRANCH  18  19
ATOM     19  N   UNL     1      -1.040  12.813  17.473  0.00  0.00    +0.000 NA
ATOM     20  H   UNL     1      -0.067  12.517  17.410  0.00  0.00    +0.000 HD
ATOM     21  H   UNL     1      -1.024  13.826  17.587  0.00  0.00    +0.000 HD
ENDBRANCH  18  19
ENDBRANCH  17  18
ENDBRANCH  16  17
ENDBRANCH  14  16
ENDBRANCH  13  14
ENDBRANCH  12  13
ENDBRANCH  11  12
ENDBRANCH  10  11
ENDBRANCH   8  10
ENDBRANCH   7   8
ENDBRANCH   6   7
ENDBRANCH   5   6
ENDBRANCH   3   5
BRANCH   1  22
ATOM     22  C   UNL     1       4.515   4.067  17.153  0.00  0.00    +0.000 C 
BRANCH  22  25
ATOM     23  C   UNL     1       5.496   4.002  14.831  0.00  0.00    +0.000 C 
ATOM     24  O   UNL     1       6.663   3.978  15.263  0.00  0.00    +0.000 OA
ATOM     25  N   UNL     1       4.415   4.066  15.666  0.00  0.00    +0.000 N 
ATOM     26  H   UNL     1       3.493   3.843  15.295  0.00  0.00    +0.000 HD
BRANCH  23  27
ATOM     27  C   UNL     1       5.245   3.925  13.335  0.00  0.00    +0.000 C 
BRANCH  27  29
ATOM     28  C   UNL     1       7.249   4.605  11.906  0.00  0.00    +0.000 C 
ATOM     29  C   UNL     1       6.541   3.475  12.641  0.00  0.00    +0.000 C 
ENDBRANCH  27  29
ENDBRANCH  23  27
ENDBRANCH  22  25
BRANCH  22  30
ATOM     30  C   UNL     1       4.622   5.474  17.772  0.00  0.00    +0.000 C 
BRANCH  30  31
ATOM     31  C   UNL     1       6.007   6.070  17.923  0.00  0.00    +0.000 A 
ATOM     32  C   UNL     1       6.410   7.221  17.221  0.00  0.00    +0.000 A 
ATOM     33  C   UNL     1       7.585   7.899  17.574  0.00  0.00    +0.000 A 
ATOM     34  C   UNL     1       8.410   7.409  18.584  0.00  0.00    +0.000 A 
ATOM     35  C   UNL     1       8.068   6.221  19.230  0.00  0.00    +0.000 A 
ATOM     36  C   UNL     1       6.871   5.570  18.906  0.00  0.00    +0.000 A 
ENDBRANCH  30  31
ENDBRANCH  22  30
ENDBRANCH   1  22
TORSDOF 19
ENDMDL
MODEL 2
REMARK VINA RESULT:      -6.2      2.541      5.507
REMARK  Name = 
REMARK  20 active torsions:
REMARK  status: ('A' for Active; 'I' for Inactive)
REMARK    1  A    between atoms: C_1  and  C_2
REMARK    2  A    between atoms: C_2  and  C_3
REMARK    3  A    between atoms: C_3  and  C_4
REMARK    4  A    between atoms: N_6  and  C_7
REMARK    5  A    between atoms: C_7  and  C_8
REMARK    6  A    between atoms: C_7  and  C_15
REMARK    7  A    between atoms: C_8  and  C_9
REMARK    8  A    between atoms: N_17  and  C_18
REMARK    9  A    between atoms: C_18  and  C_19
REMARK   10  A    between atoms: C_19  and  C_20
REMARK   11  A    between atoms: C_20  and  N_21
REMARK   12  A    between atoms: N_21  and  C_22
REMARK   13  A    between atoms: C_22  and  C_23
REMARK   14  A    between atoms: C_23  and  C_24
REMARK   15  A    between atoms: C_24  and  C_25
REMARK   16  A    between atoms: C_25  and  N_26
REMARK   17  A    between atoms: N_26  and  C_27
REMARK   18  A    between atoms: C_27  and  C_28
REMARK   19  A    between atoms: C_28  and  C_29
REMARK   20  A    between atoms: C_29  and  N_30
REMARK                            x       y       z     vdW  Elec       q    Type
REMARK                         _______ _______ _______ _____ _____    ______ ____
ROOT
ATOM      1  C   UNL     1       5.335   5.639  17.664  0.00  0.00    +0.000 C 
ATOM      2  O   UNL     1       5.316   5.703  18.891  0.00  0.00    +0.000 OA
ATOM      3  N   UNL     1       4.215   5.280  16.934  0.00  0.00    +0.000 N 
ATOM      4  H   UNL     1       4.203   5.355  15.927  0.00  0.00    +0.000 HD
ENDROOT
BRANCH   3   5
ATOM      5  C   UNL     1       2.964   4.927  17.602  0.00  0.00    +0.000 C 
BRANCH   5   6
ATOM      6  C   UNL     1       2.393   3.578  17.158  0.00  0.00    +0.000 C 
BRANCH   6   7
ATOM      7  C   UNL     1       3.260   2.415  17.660  0.00  0.00    +0.000 C 
BRANCH   7   8
ATOM      8  N   UNL     1       2.460   1.477  18.451  0.00  0.00    +0.000 NA
ATOM      9  H   UNL     1       2.950   0.583  18.522  0.00  0.00    +0.000 HD
BRANCH   8  10
ATOM     10  C   UNL     1       2.210   2.001  19.793  0.00  0.00    +0.000 C 
BRANCH  10  11
ATOM     11  C   UNL     1       0.915   2.813  19.804  0.00  0.00    +0.000 C 
BRANCH  11  12
ATOM     12  C   UNL     1       0.987   3.938  20.838  0.00  0.00    +0.000 C 
BRANCH  12  13
ATOM     13  C   UNL     1       2.438   4.323  21.123  0.00  0.00    +0.000 C 
BRANCH  13  14
ATOM     14  N   UNL     1       2.687   5.683  20.651  0.00  0.00    +0.000 NA
ATOM     15  H   UNL     1       3.075   5.652  19.706  0.00  0.00    +0.000 HD
BRANCH  14  16
ATOM     16  C   UNL     1       1.449   6.463  20.643  0.00  0.00    +0.000 C 
BRANCH  16  17
ATOM     17  C   UNL     1       1.766   7.954  20.545  0.00  0.00    +0.000 C 
BRANCH  17  18
ATOM     18  C   UNL     1       1.126   8.710  21.709  0.00  0.00    +0.000 C 
BRANCH  18  19
ATOM     19  N   UNL     1      -0.244   9.085  21.381  0.00  0.00    +0.000 NA
ATOM     20  H   UNL     1      -0.236   9.804  20.659  0.00  0.00    +0.000 HD
ATOM     21  H   UNL     1      -0.686   9.504  22.198  0.00  0.00    +0.000 HD
ENDBRANCH  18  19
ENDBRANCH  17  18
ENDBRANCH  16  17
ENDBRANCH  14  16
ENDBRANCH  13  14
ENDBRANCH  12  13
ENDBRANCH  11  12
ENDBRANCH  10  11
ENDBRANCH   8  10
ENDBRANCH   7   8
ENDBRANCH   6   7
ENDBRANCH   5   6
ENDBRANCH   3   5
BRANCH   1  22
ATOM     22  C   UNL     1       6.616   6.029  16.867  0.00  0.00    +0.000 C 
BRANCH  22  25
ATOM     23  C   UNL     1       7.764   8.081  17.779  0.00  0.00    +0.000 C 
ATOM     24  O   UNL     1       7.129   8.840  17.024  0.00  0.00    +0.000 OA
ATOM     25  N   UNL     1       7.593   6.723  17.752  0.00  0.00    +0.000 N 
ATOM     26  H   UNL     1       7.941   6.169  18.531  0.00  0.00    +0.000 HD
BRANCH  23  27
ATOM     27  C   UNL     1       8.738   8.662  18.789  0.00  0.00    +0.000 C 
BRANCH  27  29
ATOM     28  C   UNL     1       9.771  10.878  19.523  0.00  0.00    +0.000 C 
ATOM     29  C   UNL     1       8.946  10.151  18.470  0.00  0.00    +0.000 C 
ENDBRANCH  27  29
ENDBRANCH  23  27
ENDBRANCH  22  25
BRANCH  22  30
ATOM     30  C   UNL     1       7.189   4.791  16.150  0.00  0.00    +0.000 C 
BRANCH  30  31
ATOM     31  C   UNL     1       6.985   4.691  14.653  0.00  0.00    +0.000 A 
ATOM     32  C   UNL     1       7.781   5.403  13.737  0.00  0.00    +0.000 A 
ATOM     33  C   UNL     1       7.751   5.093  12.370  0.00  0.00    +0.000 A 
ATOM     34  C   UNL     1       6.882   4.118  11.884  0.00  0.00    +0.000 A 
ATOM     35  C   UNL     1       6.025   3.464  12.768  0.00  0.00    +0.000 A 
ATOM     36  C   UNL     1       6.089   3.745  14.139  0.00  0.00    +0.000 A 
ENDBRANCH  30  31
ENDBRANCH  22  30
ENDBRANCH   1  22
TORSDOF 19
ENDMDL
MODEL 3
REMARK VINA RESULT:      -6.1      2.626      5.607
REMARK  Name = 
REMARK  20 active torsions:
REMARK  status: ('A' for Active; 'I' for Inactive)
REMARK    1  A    between atoms: C_1  and  C_2
REMARK    2  A    between atoms: C_2  and  C_3
REMARK    3  A    between atoms: C_3  and  C_4
REMARK    4  A    between atoms: N_6  and  C_7
REMARK    5  A    between atoms: C_7  and  C_8
REMARK    6  A    between atoms: C_7  and  C_15
REMARK    7  A    between atoms: C_8  and  C_9
REMARK    8  A    between atoms: N_17  and  C_18
REMARK    9  A    between atoms: C_18  and  C_19
REMARK   10  A    between atoms: C_19  and  C_20
REMARK   11  A    between atoms: C_20  and  N_21
REMARK   12  A    between atoms: N_21  and  C_22
REMARK   13  A    between atoms: C_22  and  C_23
REMARK   14  A    between atoms: C_23  and  C_24
REMARK   15  A    between atoms: C_24  and  C_25
REMARK   16  A    between atoms: C_25  and  N_26
REMARK   17  A    between atoms: N_26  and  C_27
REMARK   18  A    between atoms: C_27  and  C_28
REMARK   19  A    between atoms: C_28  and  C_29
REMARK   20  A    between atoms: C_29  and  N_30
REMARK                            x       y       z     vdW  Elec       q    Type
REMARK                         _______ _______ _______ _____ _____    ______ ____
ROOT
ATOM      1  C   UNL     1       2.201   8.341  18.320  0.00  0.00    +0.000 C 
ATOM      2  O   UNL     1       2.076   9.087  17.351  0.00  0.00    +0.000 OA
ATOM      3  N   UNL     1       1.661   8.652  19.556  0.00  0.00    +0.000 N 
ATOM      4  H   UNL     1       1.657   7.979  20.307  0.00  0.00    +0.000 HD
ENDROOT
BRANCH   3   5
ATOM      5  C   UNL     1       0.944   9.908  19.767  0.00  0.00    +0.000 C 
BRANCH   5   6
ATOM      6  C   UNL     1      -0.381   9.738  20.515  0.00  0.00    +0.000 C 
BRANCH   6   7
ATOM      7  C   UNL     1      -0.145   9.364  21.985  0.00  0.00    +0.000 C 
BRANCH   7   8
ATOM      8  N   UNL     1      -0.027  10.568  22.813  0.00  0.00    +0.000 NA
ATOM      9  H   UNL     1       0.957  10.754  23.009  0.00  0.00    +0.000 HD
BRANCH   8  10
ATOM     10  C   UNL     1      -0.617  11.727  22.143  0.00  0.00    +0.000 C 
BRANCH  10  11
ATOM     11  C   UNL     1      -1.947  12.091  22.803  0.00  0.00    +0.000 C 
BRANCH  11  12
ATOM     12  C   UNL     1      -2.686  13.152  21.988  0.00  0.00    +0.000 C 
BRANCH  12  13
ATOM     13  C   UNL     1      -3.817  12.524  21.175  0.00  0.00    +0.000 C 
BRANCH  13  14
ATOM     14  N   UNL     1      -3.700  12.929  19.776  0.00  0.00    +0.000 NA
ATOM     15  H   UNL     1      -3.537  13.936  19.722  0.00  0.00    +0.000 HD
BRANCH  14  16
ATOM     16  C   UNL     1      -2.596  12.223  19.124  0.00  0.00    +0.000 C 
BRANCH  16  17
ATOM     17  C   UNL     1      -3.128  11.033  18.327  0.00  0.00    +0.000 C 
BRANCH  17  18
ATOM     18  C   UNL     1      -4.579  11.276  17.915  0.00  0.00    +0.000 C 
BRANCH  18  19
ATOM     19  N   UNL     1      -4.641  12.206  16.794  0.00  0.00    +0.000 NA
ATOM     20  H   UNL     1      -5.147  11.774  16.021  0.00  0.00    +0.000 HD
ATOM     21  H   UNL     1      -3.699  12.389  16.452  0.00  0.00    +0.000 HD
ENDBRANCH  18  19
ENDBRANCH  17  18
ENDBRANCH  16  17
ENDBRANCH  14  16
ENDBRANCH  13  14
ENDBRANCH  12  13
ENDBRANCH  11  12
ENDBRANCH  10  11
ENDBRANCH   8  10
ENDBRANCH   7   8
ENDBRANCH   6   7
ENDBRANCH   5   6
ENDBRANCH   3   5
BRANCH   1  22
ATOM     22  C   UNL     1       2.922   6.966  18.179  0.00  0.00    +0.000 C 
BRANCH  22  25
ATOM     23  C   UNL     1       5.012   6.149  17.029  0.00  0.00    +0.000 C 
ATOM     24  O   UNL     1       4.574   4.988  16.935  0.00  0.00    +0.000 OA
ATOM     25  N   UNL     1       4.294   7.148  17.628  0.00  0.00    +0.000 N 
ATOM     26  H   UNL     1       4.574   8.115  17.473  0.00  0.00    +0.000 HD
BRANCH  23  27
ATOM     27  C   UNL     1       6.368   6.494  16.438  0.00  0.00    +0.000 C 
BRANCH  27  29
ATOM     28  C   UNL     1       7.673   6.075  18.592  0.00  0.00    +0.000 C 
ATOM     29  C   UNL     1       7.248   7.096  17.546  0.00  0.00    +0.000 C 
ENDBRANCH  27  29
ENDBRANCH  23  27
ENDBRANCH  22  25
BRANCH  22  30
ATOM     30  C   UNL     1       2.880   6.208  19.519  0.00  0.00    +0.000 C 
BRANCH  30  31
ATOM     31  C   UNL     1       2.042   4.948  19.586  0.00  0.00    +0.000 A 
ATOM     32  C   UNL     1       1.666   4.235  18.433  0.00  0.00    +0.000 A 
ATOM     33  C   UNL     1       1.127   2.944  18.533  0.00  0.00    +0.000 A 
ATOM     34  C   UNL     1       0.894   2.369  19.780  0.00  0.00    +0.000 A 
ATOM     35  C   UNL     1       1.182   3.098  20.934  0.00  0.00    +0.000 A 
ATOM     36  C   UNL     1       1.761   4.369  20.830  0.00  0.00    +0.000 A 
ENDBRANCH  30  31
ENDBRANCH  22  30
ENDBRANCH   1  22
TORSDOF 19
ENDMDL
MODEL 4
REMARK VINA RESULT:      -6.0      3.646      5.859
REMARK  Name = 
REMARK  20 active torsions:
REMARK  status: ('A' for Active; 'I' for Inactive)
REMARK    1  A    between atoms: C_1  and  C_2
REMARK    2  A    between atoms: C_2  and  C_3
REMARK    3  A    between atoms: C_3  and  C_4
REMARK    4  A    between atoms: N_6  and  C_7
REMARK    5  A    between atoms: C_7  and  C_8
REMARK    6  A    between atoms: C_7  and  C_15
REMARK    7  A    between atoms: C_8  and  C_9
REMARK    8  A    between atoms: N_17  and  C_18
REMARK    9  A    between atoms: C_18  and  C_19
REMARK   10  A    between atoms: C_19  and  C_20
REMARK   11  A    between atoms: C_20  and  N_21
REMARK   12  A    between atoms: N_21  and  C_22
REMARK   13  A    between atoms: C_22  and  C_23
REMARK   14  A    between atoms: C_23  and  C_24
REMARK   15  A    between atoms: C_24  and  C_25
REMARK   16  A    between atoms: C_25  and  N_26
REMARK   17  A    between atoms: N_26  and  C_27
REMARK   18  A    between atoms: C_27  and  C_28
REMARK   19  A    between atoms: C_28  and  C_29
REMARK   20  A    between atoms: C_29  and  N_30
REMARK                            x       y       z     vdW  Elec       q    Type
REMARK                         _______ _______ _______ _____ _____    ______ ____
ROOT
ATOM      1  C   UNL     1       2.320   7.909  18.873  0.00  0.00    +0.000 C 
ATOM      2  O   UNL     1       1.851   7.887  20.008  0.00  0.00    +0.000 OA
ATOM      3  N   UNL     1       2.161   9.000  18.037  0.00  0.00    +0.000 N 
ATOM      4  H   UNL     1       2.656   9.062  17.160  0.00  0.00    +0.000 HD
ENDROOT
BRANCH   3   5
ATOM      5  C   UNL     1       1.391  10.167  18.464  0.00  0.00    +0.000 C 
BRANCH   5   6
ATOM      6  C   UNL     1      -0.124   9.953  18.409  0.00  0.00    +0.000 C 
BRANCH   6   7
ATOM      7  C   UNL     1      -0.800  10.432  19.702  0.00  0.00    +0.000 C 
BRANCH   7   8
ATOM      8  N   UNL     1      -0.380   9.610  20.841  0.00  0.00    +0.000 NA
ATOM      9  H   UNL     1       0.359   8.969  20.548  0.00  0.00    +0.000 HD
BRANCH   8  10
ATOM     10  C   UNL     1       0.108  10.442  21.939  0.00  0.00    +0.000 C 
BRANCH  10  11
ATOM     11  C   UNL     1      -0.991  10.623  22.986  0.00  0.00    +0.000 C 
BRANCH  11  12
ATOM     12  C   UNL     1      -1.531  12.054  22.967  0.00  0.00    +0.000 C 
BRANCH  12  13
ATOM     13  C   UNL     1      -2.990  12.090  23.418  0.00  0.00    +0.000 C 
BRANCH  13  14
ATOM     14  N   UNL     1      -3.290  13.393  24.008  0.00  0.00    +0.000 NA
ATOM     15  H   UNL     1      -2.444  13.965  24.024  0.00  0.00    +0.000 HD
BRANCH  14  16
ATOM     16  C   UNL     1      -4.328  14.082  23.241  0.00  0.00    +0.000 C 
BRANCH  16  17
ATOM     17  C   UNL     1      -5.225  13.066  22.535  0.00  0.00    +0.000 C 
BRANCH  17  18
ATOM     18  C   UNL     1      -6.630  13.094  23.132  0.00  0.00    +0.000 C 
BRANCH  18  19
ATOM     19  N   UNL     1      -6.619  13.757  24.430  0.00  0.00    +0.000 NA
ATOM     20  H   UNL     1      -5.752  13.537  24.918  0.00  0.00    +0.000 HD
ATOM     21  H   UNL     1      -7.373  13.387  25.007  0.00  0.00    +0.000 HD
ENDBRANCH  18  19
ENDBRANCH  17  18
ENDBRANCH  16  17
ENDBRANCH  14  16
ENDBRANCH  13  14
ENDBRANCH  12  13
ENDBRANCH  11  12
ENDBRANCH  10  11
ENDBRANCH   8  10
ENDBRANCH   7   8
ENDBRANCH   6   7
ENDBRANCH   5   6
ENDBRANCH   3   5
BRANCH   1  22
ATOM     22  C   UNL     1       3.183   6.723  18.345  0.00  0.00    +0.000 C 
BRANCH  22  25
ATOM     23  C   UNL     1       2.688   4.251  18.425  0.00  0.00    +0.000 C 
ATOM     24  O   UNL     1       3.788   3.990  18.945  0.00  0.00    +0.000 OA
ATOM     25  N   UNL     1       2.330   5.528  18.087  0.00  0.00    +0.000 N 
ATOM     26  H   UNL     1       1.352   5.729  17.893  0.00  0.00    +0.000 HD
BRANCH  23  27
ATOM     27  C   UNL     1       1.687   3.137  18.178  0.00  0.00    +0.000 C 
BRANCH  27  29
ATOM     28  C   UNL     1       0.963   3.239  20.624  0.00  0.00    +0.000 C 
ATOM     29  C   UNL     1       1.478   2.364  19.491  0.00  0.00    +0.000 C 
ENDBRANCH  27  29
ENDBRANCH  23  27
ENDBRANCH  22  25
BRANCH  22  30
ATOM     30  C   UNL     1       4.013   7.174  17.128  0.00  0.00    +0.000 C 
BRANCH  30  31
ATOM     31  C   UNL     1       5.251   6.371  16.788  0.00  0.00    +0.000 A 
ATOM     32  C   UNL     1       6.281   6.147  17.720  0.00  0.00    +0.000 A 
ATOM     33  C   UNL     1       7.276   5.190  17.473  0.00  0.00    +0.000 A 
ATOM     34  C   UNL     1       7.300   4.489  16.269  0.00  0.00    +0.000 A 
ATOM     35  C   UNL     1       6.336   4.762  15.299  0.00  0.00    +0.000 A 
ATOM     36  C   UNL     1       5.318   5.686  15.568  0.00  0.00    +0.000 A 
ENDBRANCH  30  31
ENDBRANCH  22  30
ENDBRANCH   1  22
TORSDOF 19
ENDMDL
MODEL 5
REMARK VINA RESULT:      -6.0      3.801      6.381
REMARK  Name = 
REMARK  20 active torsions:
REMARK  status: ('A' for Active; 'I' for Inactive)
REMARK    1  A    between atoms: C_1  and  C_2
REMARK    2  A    between atoms: C_2  and  C_3
REMARK    3  A    between atoms: C_3  and  C_4
REMARK    4  A    between atoms: N_6  and  C_7
REMARK    5  A    between atoms: C_7  and  C_8
REMARK    6  A    between atoms: C_7  and  C_15
REMARK    7  A    between atoms: C_8  and  C_9
REMARK    8  A    between atoms: N_17  and  C_18
REMARK    9  A    between atoms: C_18  and  C_19
REMARK   10  A    between atoms: C_19  and  C_20
REMARK   11  A    between atoms: C_20  and  N_21
REMARK   12  A    between atoms: N_21  and  C_22
REMARK   13  A    between atoms: C_22  and  C_23
REMARK   14  A    between atoms: C_23  and  C_24
REMARK   15  A    between atoms: C_24  and  C_25
REMARK   16  A    between atoms: C_25  and  N_26
REMARK   17  A    between atoms: N_26  and  C_27
REMARK   18  A    between atoms: C_27  and  C_28
REMARK   19  A    between atoms: C_28  and  C_29
REMARK   20  A    between atoms: C_29  and  N_30
REMARK                            x       y       z     vdW  Elec       q    Type
REMARK                         _______ _______ _______ _____ _____    ______ ____
ROOT
ATOM      1  C   UNL     1       2.378   8.246  18.126  0.00  0.00    +0.000 C 
ATOM      2  O   UNL     1       2.379   8.935  17.108  0.00  0.00    +0.000 OA
ATOM      3  N   UNL     1       1.733   8.650  19.281  0.00  0.00    +0.000 N 
ATOM      4  H   UNL     1       1.627   8.024  20.066  0.00  0.00    +0.000 HD
ENDROOT
BRANCH   3   5
ATOM      5  C   UNL     1       1.051   9.941  19.348  0.00  0.00    +0.000 C 
BRANCH   5   6
ATOM      6  C   UNL     1      -0.267   9.897  20.127  0.00  0.00    +0.000 C 
BRANCH   6   7
ATOM      7  C   UNL     1      -0.647  11.288  20.653  0.00  0.00    +0.000 C 
BRANCH   7   8
ATOM      8  N   UNL     1      -0.174  11.469  22.028  0.00  0.00    +0.000 NA
ATOM      9  H   UNL     1      -0.104  12.466  22.238  0.00  0.00    +0.000 HD
BRANCH   8  10
ATOM     10  C   UNL     1      -1.079  10.833  22.984  0.00  0.00    +0.000 C 
BRANCH  10  11
ATOM     11  C   UNL     1      -2.206  11.796  23.356  0.00  0.00    +0.000 C 
BRANCH  11  12
ATOM     12  C   UNL     1      -1.718  13.246  23.319  0.00  0.00    +0.000 C 
BRANCH  12  13
ATOM     13  C   UNL     1      -2.843  14.188  22.895  0.00  0.00    +0.000 C 
BRANCH  13  14
ATOM     14  N   UNL     1      -4.018  13.408  22.510  0.00  0.00    +0.000 NA
ATOM     15  H   UNL     1      -4.177  12.667  23.194  0.00  0.00    +0.000 HD
BRANCH  14  16
ATOM     16  C   UNL     1      -5.203  14.262  22.433  0.00  0.00    +0.000 C 
BRANCH  16  17
ATOM     17  C   UNL     1      -6.052  14.101  23.693  0.00  0.00    +0.000 C 
BRANCH  17  18
ATOM     18  C   UNL     1      -6.304  12.622  23.978  0.00  0.00    +0.000 C 
BRANCH  18  19
ATOM     19  N   UNL     1      -5.331  12.116  24.939  0.00  0.00    +0.000 NA
ATOM     20  H   UNL     1      -4.461  11.892  24.457  0.00  0.00    +0.000 HD
ATOM     21  H   UNL     1      -5.670  11.242  25.338  0.00  0.00    +0.000 HD
ENDBRANCH  18  19
ENDBRANCH  17  18
ENDBRANCH  16  17
ENDBRANCH  14  16
ENDBRANCH  13  14
ENDBRANCH  12  13
ENDBRANCH  11  12
ENDBRANCH  10  11
ENDBRANCH   8  10
ENDBRANCH   7   8
ENDBRANCH   6   7
ENDBRANCH   5   6
ENDBRANCH   3   5
BRANCH   1  22
ATOM     22  C   UNL     1       3.052   6.840  18.136  0.00  0.00    +0.000 C 
BRANCH  22  25
ATOM     23  C   UNL     1       5.104   5.875  17.033  0.00  0.00    +0.000 C 
ATOM     24  O   UNL     1       4.588   4.747  16.931  0.00  0.00    +0.000 OA
ATOM     25  N   UNL     1       4.446   6.924  17.615  0.00  0.00    +0.000 N 
ATOM     26  H   UNL     1       4.796   7.868  17.465  0.00  0.00    +0.000 HD
BRANCH  23  27
ATOM     27  C   UNL     1       6.493   6.122  16.471  0.00  0.00    +0.000 C 
BRANCH  27  29
ATOM     28  C   UNL     1       7.663   5.896  18.729  0.00  0.00    +0.000 C 
ATOM     29  C   UNL     1       7.345   6.808  17.552  0.00  0.00    +0.000 C 
ENDBRANCH  27  29
ENDBRANCH  23  27
ENDBRANCH  22  25
BRANCH  22  30
ATOM     30  C   UNL     1       2.945   6.213  19.539  0.00  0.00    +0.000 C 
BRANCH  30  31
ATOM     31  C   UNL     1       2.292   4.851  19.649  0.00  0.00    +0.000 A 
ATOM     32  C   UNL     1       2.004   4.254  20.890  0.00  0.00    +0.000 A 
ATOM     33  C   UNL     1       1.169   3.131  20.968  0.00  0.00    +0.000 A 
ATOM     34  C   UNL     1       0.660   2.544  19.811  0.00  0.00    +0.000 A 
ATOM     35  C   UNL     1       1.007   3.073  18.568  0.00  0.00    +0.000 A 
ATOM     36  C   UNL     1       1.806   4.222  18.496  0.00  0.00    +0.000 A 
ENDBRANCH  30  31
ENDBRANCH  22  30
ENDBRANCH   1  22
TORSDOF 19
ENDMDL
MODEL 6
REMARK VINA RESULT:      -6.0      3.356      7.624
REMARK  Name = 
REMARK  20 active torsions:
REMARK  status: ('A' for Active; 'I' for Inactive)
REMARK    1  A    between atoms: C_1  and  C_2
REMARK    2  A    between atoms: C_2  and  C_3
REMARK    3  A    between atoms: C_3  and  C_4
REMARK    4  A    between atoms: N_6  and  C_7
REMARK    5  A    between atoms: C_7  and  C_8
REMARK    6  A    between atoms: C_7  and  C_15
REMARK    7  A    between atoms: C_8  and  C_9
REMARK    8  A    between atoms: N_17  and  C_18
REMARK    9  A    between atoms: C_18  and  C_19
REMARK   10  A    between atoms: C_19  and  C_20
REMARK   11  A    between atoms: C_20  and  N_21
REMARK   12  A    between atoms: N_21  and  C_22
REMARK   13  A    between atoms: C_22  and  C_23
REMARK   14  A    between atoms: C_23  and  C_24
REMARK   15  A    between atoms: C_24  and  C_25
REMARK   16  A    between atoms: C_25  and  N_26
REMARK   17  A    between atoms: N_26  and  C_27
REMARK   18  A    between atoms: C_27  and  C_28
REMARK   19  A    between atoms: C_28  and  C_29
REMARK   20  A    between atoms: C_29  and  N_30
REMARK                            x       y       z     vdW  Elec       q    Type
REMARK                         _______ _______ _______ _____ _____    ______ ____
ROOT
ATOM      1  C   UNL     1       3.962   6.256  17.128  0.00  0.00    +0.000 C 
ATOM      2  O   UNL     1       4.620   7.180  16.654  0.00  0.00    +0.000 OA
ATOM      3  N   UNL     1       4.086   4.958  16.663  0.00  0.00    +0.000 N 
ATOM      4  H   UNL     1       3.642   4.188  17.141  0.00  0.00    +0.000 HD
ENDROOT
BRANCH   3   5
ATOM      5  C   UNL     1       4.987   4.639  15.557  0.00  0.00    +0.000 C 
BRANCH   5   6
ATOM      6  C   UNL     1       6.147   3.723  15.957  0.00  0.00    +0.000 C 
BRANCH   6   7
ATOM      7  C   UNL     1       7.478   4.487  15.972  0.00  0.00    +0.000 C 
BRANCH   7   8
ATOM      8  N   UNL     1       7.325   5.781  16.643  0.00  0.00    +0.000 NA
ATOM      9  H   UNL     1       6.359   6.101  16.556  0.00  0.00    +0.000 HD
BRANCH   8  10
ATOM     10  C   UNL     1       7.677   5.684  18.059  0.00  0.00    +0.000 C 
BRANCH  10  11
ATOM     11  C   UNL     1       7.981   7.074  18.618  0.00  0.00    +0.000 C 
BRANCH  11  12
ATOM     12  C   UNL     1       7.781   8.147  17.546  0.00  0.00    +0.000 C 
BRANCH  12  13
ATOM     13  C   UNL     1       8.296   9.501  18.029  0.00  0.00    +0.000 C 
BRANCH  13  14
ATOM     14  N   UNL     1       9.141   9.314  19.207  0.00  0.00    +0.000 NA
ATOM     15  H   UNL     1       9.982   8.797  18.947  0.00  0.00    +0.000 HD
BRANCH  14  16
ATOM     16  C   UNL     1       9.521  10.605  19.781  0.00  0.00    +0.000 C 
BRANCH  16  17
ATOM     17  C   UNL     1       9.576  11.673  18.690  0.00  0.00    +0.000 C 
BRANCH  17  18
ATOM     18  C   UNL     1       9.926  13.031  19.295  0.00  0.00    +0.000 C 
BRANCH  18  19
ATOM     19  N   UNL     1       9.592  13.059  20.713  0.00  0.00    +0.000 NA
ATOM     20  H   UNL     1       8.710  12.571  20.865  0.00  0.00    +0.000 HD
ATOM     21  H   UNL     1       9.440  14.022  21.008  0.00  0.00    +0.000 HD
ENDBRANCH  18  19
ENDBRANCH  17  18
ENDBRANCH  16  17
ENDBRANCH  14  16
ENDBRANCH  13  14
ENDBRANCH  12  13
ENDBRANCH  11  12
ENDBRANCH  10  11
ENDBRANCH   8  10
ENDBRANCH   7   8
ENDBRANCH   6   7
ENDBRANCH   5   6
ENDBRANCH   3   5
BRANCH   1  22
ATOM     22  C   UNL     1       3.002   6.497  18.331  0.00  0.00    +0.000 C 
BRANCH  22  25
ATOM     23  C   UNL     1       1.776   8.484  19.283  0.00  0.00    +0.000 C 
ATOM     24  O   UNL     1       1.705   7.970  20.414  0.00  0.00    +0.000 OA
ATOM     25  N   UNL     1       2.359   7.838  18.228  0.00  0.00    +0.000 N 
ATOM     26  H   UNL     1       2.609   8.375  17.400  0.00  0.00    +0.000 HD
BRANCH  23  27
ATOM     27  C   UNL     1       1.231   9.883  19.056  0.00  0.00    +0.000 C 
BRANCH  27  29
ATOM     28  C   UNL     1      -1.255  10.315  18.664  0.00  0.00    +0.000 C 
ATOM     29  C   UNL     1       0.050   9.797  18.075  0.00  0.00    +0.000 C 
ENDBRANCH  27  29
ENDBRANCH  23  27
ENDBRANCH  22  25
BRANCH  22  30
ATOM     30  C   UNL     1       2.001   5.331  18.450  0.00  0.00    +0.000 C 
BRANCH  30  31
ATOM     31  C   UNL     1       2.149   4.400  19.636  0.00  0.00    +0.000 A 
ATOM     32  C   UNL     1       1.062   4.057  20.461  0.00  0.00    +0.000 A 
ATOM     33  C   UNL     1       1.164   3.000  21.376  0.00  0.00    +0.000 A 
ATOM     34  C   UNL     1       2.365   2.310  21.531  0.00  0.00    +0.000 A 
ATOM     35  C   UNL     1       3.476   2.695  20.782  0.00  0.00    +0.000 A 
ATOM     36  C   UNL     1       3.359   3.723  19.837  0.00  0.00    +0.000 A 
ENDBRANCH  30  31
ENDBRANCH  22  30
ENDBRANCH   1  22
TORSDOF 19
ENDMDL
MODEL 7
REMARK VINA RESULT:      -6.0      1.910      4.362
REMARK  Name = 
REMARK  20 active torsions:
REMARK  status: ('A' for Active; 'I' for Inactive)
REMARK    1  A    between atoms: C_1  and  C_2
REMARK    2  A    between atoms: C_2  and  C_3
REMARK    3  A    between atoms: C_3  and  C_4
REMARK    4  A    between atoms: N_6  and  C_7
REMARK    5  A    between atoms: C_7  and  C_8
REMARK    6  A    between atoms: C_7  and  C_15
REMARK    7  A    between atoms: C_8  and  C_9
REMARK    8  A    between atoms: N_17  and  C_18
REMARK    9  A    between atoms: C_18  and  C_19
REMARK   10  A    between atoms: C_19  and  C_20
REMARK   11  A    between atoms: C_20  and  N_21
REMARK   12  A    between atoms: N_21  and  C_22
REMARK   13  A    between atoms: C_22  and  C_23
REMARK   14  A    between atoms: C_23  and  C_24
REMARK   15  A    between atoms: C_24  and  C_25
REMARK   16  A    between atoms: C_25  and  N_26
REMARK   17  A    between atoms: N_26  and  C_27
REMARK   18  A    between atoms: C_27  and  C_28
REMARK   19  A    between atoms: C_28  and  C_29
REMARK   20  A    between atoms: C_29  and  N_30
REMARK                            x       y       z     vdW  Elec       q    Type
REMARK                         _______ _______ _______ _____ _____    ______ ____
ROOT
ATOM      1  C   UNL     1       4.858   4.157  17.542  0.00  0.00    +0.000 C 
ATOM      2  O   UNL     1       3.750   4.007  17.032  0.00  0.00    +0.000 OA
ATOM      3  N   UNL     1       5.218   3.508  18.711  0.00  0.00    +0.000 N 
ATOM      4  H   UNL     1       6.168   3.534  19.051  0.00  0.00    +0.000 HD
ENDROOT
BRANCH   3   5
ATOM      5  C   UNL     1       4.273   2.637  19.408  0.00  0.00    +0.000 C 
BRANCH   5   6
ATOM      6  C   UNL     1       3.399   3.374  20.426  0.00  0.00    +0.000 C 
BRANCH   6   7
ATOM      7  C   UNL     1       1.945   3.468  19.945  0.00  0.00    +0.000 C 
BRANCH   7   8
ATOM      8  N   UNL     1       1.711   4.734  19.246  0.00  0.00    +0.000 NA
ATOM      9  H   UNL     1       0.720   4.977  19.298  0.00  0.00    +0.000 HD
BRANCH   8  10
ATOM     10  C   UNL     1       2.506   5.813  19.832  0.00  0.00    +0.000 C 
BRANCH  10  11
ATOM     11  C   UNL     1       1.635   6.660  20.760  0.00  0.00    +0.000 C 
BRANCH  11  12
ATOM     12  C   UNL     1       1.555   8.104  20.264  0.00  0.00    +0.000 C 
BRANCH  12  13
ATOM     13  C   UNL     1       0.694   8.953  21.197  0.00  0.00    +0.000 C 
BRANCH  13  14
ATOM     14  N   UNL     1       0.886  10.369  20.889  0.00  0.00    +0.000 NA
ATOM     15  H   UNL     1       1.884  10.583  20.866  0.00  0.00    +0.000 HD
BRANCH  14  16
ATOM     16  C   UNL     1       0.286  10.703  19.597  0.00  0.00    +0.000 C 
BRANCH  16  17
ATOM     17  C   UNL     1       0.887  11.999  19.056  0.00  0.00    +0.000 C 
BRANCH  17  18
ATOM     18  C   UNL     1       2.206  11.713  18.340  0.00  0.00    +0.000 C 
BRANCH  18  19
ATOM     19  N   UNL     1       2.500  12.764  17.374  0.00  0.00    +0.000 NA
ATOM     20  H   UNL     1       1.938  13.588  17.586  0.00  0.00    +0.000 HD
ATOM     21  H   UNL     1       2.220  12.458  16.444  0.00  0.00    +0.000 HD
ENDBRANCH  18  19
ENDBRANCH  17  18
ENDBRANCH  16  17
ENDBRANCH  14  16
ENDBRANCH  13  14
ENDBRANCH  12  13
ENDBRANCH  11  12
ENDBRANCH  10  11
ENDBRANCH   8  10
ENDBRANCH   7   8
ENDBRANCH   6   7
ENDBRANCH   5   6
ENDBRANCH   3   5
BRANCH   1  22
ATOM     22  C   UNL     1       5.940   5.040  16.851  0.00  0.00    +0.000 C 
BRANCH  22  25
ATOM     23  C   UNL     1       7.526   6.878  17.534  0.00  0.00    +0.000 C 
ATOM     24  O   UNL     1       7.796   7.161  16.353  0.00  0.00    +0.000 OA
ATOM     25  N   UNL     1       6.665   5.865  17.859  0.00  0.00    +0.000 N 
ATOM     26  H   UNL     1       6.290   5.822  18.804  0.00  0.00    +0.000 HD
BRANCH  23  27
ATOM     27  C   UNL     1       8.134   7.691  18.663  0.00  0.00    +0.000 C 
BRANCH  27  29
ATOM     28  C   UNL     1       9.173   9.975  19.136  0.00  0.00    +0.000 C 
ATOM     29  C   UNL     1       8.358   9.130  18.168  0.00  0.00    +0.000 C 
ENDBRANCH  27  29
ENDBRANCH  23  27
ENDBRANCH  22  25
BRANCH  22  30
ATOM     30  C   UNL     1       6.860   4.163  15.980  0.00  0.00    +0.000 C 
BRANCH  30  31
ATOM     31  C   UNL     1       6.733   4.294  14.476  0.00  0.00    +0.000 A 
ATOM     32  C   UNL     1       7.575   5.131  13.721  0.00  0.00    +0.000 A 
ATOM     33  C   UNL     1       7.616   5.033  12.324  0.00  0.00    +0.000 A 
ATOM     34  C   UNL     1       6.775   4.149  11.650  0.00  0.00    +0.000 A 
ATOM     35  C   UNL     1       5.873   3.375  12.379  0.00  0.00    +0.000 A 
ATOM     36  C   UNL     1       5.866   3.443  13.779  0.00  0.00    +0.000 A 
ENDBRANCH  30  31
ENDBRANCH  22  30
ENDBRANCH   1  22
TORSDOF 19
ENDMDL
MODEL 8
REMARK VINA RESULT:      -5.9      3.180      8.811
REMARK  Name = 
REMARK  20 active torsions:
REMARK  status: ('A' for Active; 'I' for Inactive)
REMARK    1  A    between atoms: C_1  and  C_2
REMARK    2  A    between atoms: C_2  and  C_3
REMARK    3  A    between atoms: C_3  and  C_4
REMARK    4  A    between atoms: N_6  and  C_7
REMARK    5  A    between atoms: C_7  and  C_8
REMARK    6  A    between atoms: C_7  and  C_15
REMARK    7  A    between atoms: C_8  and  C_9
REMARK    8  A    between atoms: N_17  and  C_18
REMARK    9  A    between atoms: C_18  and  C_19
REMARK   10  A    between atoms: C_19  and  C_20
REMARK   11  A    between atoms: C_20  and  N_21
REMARK   12  A    between atoms: N_21  and  C_22
REMARK   13  A    between atoms: C_22  and  C_23
REMARK   14  A    between atoms: C_23  and  C_24
REMARK   15  A    between atoms: C_24  and  C_25
REMARK   16  A    between atoms: C_25  and  N_26
REMARK   17  A    between atoms: N_26  and  C_27
REMARK   18  A    between atoms: C_27  and  C_28
REMARK   19  A    between atoms: C_28  and  C_29
REMARK   20  A    between atoms: C_29  and  N_30
REMARK                            x       y       z     vdW  Elec       q    Type
REMARK                         _______ _______ _______ _____ _____    ______ ____
ROOT
ATOM      1  C   UNL     1       1.420   8.830  18.927  0.00  0.00    +0.000 C 
ATOM      2  O   UNL     1       1.810   8.735  17.766  0.00  0.00    +0.000 OA
ATOM      3  N   UNL     1       1.723   7.873  19.880  0.00  0.00    +0.000 N 
ATOM      4  H   UNL     1       1.511   8.023  20.856  0.00  0.00    +0.000 HD
ENDROOT
BRANCH   3   5
ATOM      5  C   UNL     1       2.495   6.683  19.530  0.00  0.00    +0.000 C 
BRANCH   5   6
ATOM      6  C   UNL     1       2.494   5.609  20.622  0.00  0.00    +0.000 C 
BRANCH   6   7
ATOM      7  C   UNL     1       1.255   4.711  20.516  0.00  0.00    +0.000 C 
BRANCH   7   8
ATOM      8  N   UNL     1       1.155   4.122  19.177  0.00  0.00    +0.000 NA
ATOM      9  H   UNL     1       1.788   4.607  18.540  0.00  0.00    +0.000 HD
BRANCH   8  10
ATOM     10  C   UNL     1       1.489   2.698  19.202  0.00  0.00    +0.000 C 
BRANCH  10  11
ATOM     11  C   UNL     1       2.179   2.300  17.898  0.00  0.00    +0.000 C 
BRANCH  11  12
ATOM     12  C   UNL     1       3.690   2.173  18.098  0.00  0.00    +0.000 C 
BRANCH  12  13
ATOM     13  C   UNL     1       4.372   3.533  17.965  0.00  0.00    +0.000 C 
BRANCH  13  14
ATOM     14  N   UNL     1       5.452   3.639  18.944  0.00  0.00    +0.000 NA
ATOM     15  H   UNL     1       6.285   3.166  18.589  0.00  0.00    +0.000 HD
BRANCH  14  16
ATOM     16  C   UNL     1       5.768   5.041  19.217  0.00  0.00    +0.000 C 
BRANCH  16  17
ATOM     17  C   UNL     1       5.972   5.801  17.908  0.00  0.00    +0.000 C 
BRANCH  17  18
ATOM     18  C   UNL     1       7.450   5.807  17.523  0.00  0.00    +0.000 C 
BRANCH  18  19
ATOM     19  N   UNL     1       7.865   4.485  17.071  0.00  0.00    +0.000 NA
ATOM     20  H   UNL     1       7.051   3.873  17.018  0.00  0.00    +0.000 HD
ATOM     21  H   UNL     1       8.490   4.071  17.760  0.00  0.00    +0.000 HD
ENDBRANCH  18  19
ENDBRANCH  17  18
ENDBRANCH  16  17
ENDBRANCH  14  16
ENDBRANCH  13  14
ENDBRANCH  12  13
ENDBRANCH  11  12
ENDBRANCH  10  11
ENDBRANCH   8  10
ENDBRANCH   7   8
ENDBRANCH   6   7
ENDBRANCH   5   6
ENDBRANCH   3   5
BRANCH   1  22
ATOM     22  C   UNL     1       0.619  10.081  19.398  0.00  0.00    +0.000 C 
BRANCH  22  25
ATOM     23  C   UNL     1      -1.488  10.974  18.337  0.00  0.00    +0.000 C 
ATOM     24  O   UNL     1      -0.961  12.072  18.083  0.00  0.00    +0.000 OA
ATOM     25  N   UNL     1      -0.808   9.976  18.982  0.00  0.00    +0.000 N 
ATOM     26  H   UNL     1      -1.183   9.030  18.956  0.00  0.00    +0.000 HD
BRANCH  23  27
ATOM     27  C   UNL     1      -2.915  10.702  17.898  0.00  0.00    +0.000 C 
BRANCH  27  29
ATOM     28  C   UNL     1      -2.946   9.999  15.443  0.00  0.00    +0.000 C 
ATOM     29  C   UNL     1      -3.073  11.147  16.434  0.00  0.00    +0.000 C 
ENDBRANCH  27  29
ENDBRANCH  23  27
ENDBRANCH  22  25
BRANCH  22  30
ATOM     30  C   UNL     1       0.816  10.296  20.911  0.00  0.00    +0.000 C 
BRANCH  30  31
ATOM     31  C   UNL     1      -0.063  11.324  21.593  0.00  0.00    +0.000 A 
ATOM     32  C   UNL     1      -1.069  10.963  22.508  0.00  0.00    +0.000 A 
ATOM     33  C   UNL     1      -1.680  11.930  23.318  0.00  0.00    +0.000 A 
ATOM     34  C   UNL     1      -1.350  13.278  23.185  0.00  0.00    +0.000 A 
ATOM     35  C   UNL     1      -0.417  13.661  22.222  0.00  0.00    +0.000 A 
ATOM     36  C   UNL     1       0.225  12.687  21.445  0.00  0.00    +0.000 A 
ENDBRANCH  30  31
ENDBRANCH  22  30
ENDBRANCH   1  22
TORSDOF 19
ENDMDL
MODEL 9
REMARK VINA RESULT:      -5.9      3.465      9.471
REMARK  Name = 
REMARK  20 active torsions:
REMARK  status: ('A' for Active; 'I' for Inactive)
REMARK    1  A    between atoms: C_1  and  C_2
REMARK    2  A    between atoms: C_2  and  C_3
REMARK    3  A    between atoms: C_3  and  C_4
REMARK    4  A    between atoms: N_6  and  C_7
REMARK    5  A    between atoms: C_7  and  C_8
REMARK    6  A    between atoms: C_7  and  C_15
REMARK    7  A    between atoms: C_8  and  C_9
REMARK    8  A    between atoms: N_17  and  C_18
REMARK    9  A    between atoms: C_18  and  C_19
REMARK   10  A    between atoms: C_19  and  C_20
REMARK   11  A    between atoms: C_20  and  N_21
REMARK   12  A    between atoms: N_21  and  C_22
REMARK   13  A    between atoms: C_22  and  C_23
REMARK   14  A    between atoms: C_23  and  C_24
REMARK   15  A    between atoms: C_24  and  C_25
REMARK   16  A    between atoms: C_25  and  N_26
REMARK   17  A    between atoms: N_26  and  C_27
REMARK   18  A    between atoms: C_27  and  C_28
REMARK   19  A    between atoms: C_28  and  C_29
REMARK   20  A    between atoms: C_29  and  N_30
REMARK                            x       y       z     vdW  Elec       q    Type
REMARK                         _______ _______ _______ _____ _____    ______ ____
ROOT
ATOM      1  C   UNL     1       1.488  10.412  18.444  0.00  0.00    +0.000 C 
ATOM      2  O   UNL     1       2.389  10.964  17.816  0.00  0.00    +0.000 OA
ATOM      3  N   UNL     1       1.324   9.038  18.430  0.00  0.00    +0.000 N 
ATOM      4  H   UNL     1       0.666   8.585  19.048  0.00  0.00    +0.000 HD
ENDROOT
BRANCH   3   5
ATOM      5  C   UNL     1       2.204   8.184  17.634  0.00  0.00    +0.000 C 
BRANCH   5   6
ATOM      6  C   UNL     1       3.220   7.403  18.471  0.00  0.00    +0.000 C 
BRANCH   6   7
ATOM      7  C   UNL     1       2.522   6.391  19.390  0.00  0.00    +0.000 C 
BRANCH   7   8
ATOM      8  N   UNL     1       3.502   5.503  20.021  0.00  0.00    +0.000 NA
ATOM      9  H   UNL     1       3.040   4.647  20.332  0.00  0.00    +0.000 HD
BRANCH   8  10
ATOM     10  C   UNL     1       4.579   5.162  19.092  0.00  0.00    +0.000 C 
BRANCH  10  11
ATOM     11  C   UNL     1       4.574   3.659  18.815  0.00  0.00    +0.000 C 
BRANCH  11  12
ATOM     12  C   UNL     1       4.007   3.364  17.425  0.00  0.00    +0.000 C 
BRANCH  12  13
ATOM     13  C   UNL     1       2.795   2.440  17.517  0.00  0.00    +0.000 C 
BRANCH  13  14
ATOM     14  N   UNL     1       1.608   3.220  17.864  0.00  0.00    +0.000 NA
ATOM     15  H   UNL     1       1.080   3.435  17.017  0.00  0.00    +0.000 HD
BRANCH  14  16
ATOM     16  C   UNL     1       0.756   2.479  18.794  0.00  0.00    +0.000 C 
BRANCH  16  17
ATOM     17  C   UNL     1       0.817   3.111  20.183  0.00  0.00    +0.000 C 
BRANCH  17  18
ATOM     18  C   UNL     1       1.846   2.388  21.050  0.00  0.00    +0.000 C 
BRANCH  18  19
ATOM     19  N   UNL     1       2.401   3.296  22.047  0.00  0.00    +0.000 NA
ATOM     20  H   UNL     1       1.716   4.016  22.270  0.00  0.00    +0.000 HD
ATOM     21  H   UNL     1       3.207   3.779  21.654  0.00  0.00    +0.000 HD
ENDBRANCH  18  19
ENDBRANCH  17  18
ENDBRANCH  16  17
ENDBRANCH  14  16
ENDBRANCH  13  14
ENDBRANCH  12  13
ENDBRANCH  11  12
ENDBRANCH  10  11
ENDBRANCH   8  10
ENDBRANCH   7   8
ENDBRANCH   6   7
ENDBRANCH   5   6
ENDBRANCH   3   5
BRANCH   1  22
ATOM     22  C   UNL     1       0.523  11.240  19.345  0.00  0.00    +0.000 C 
BRANCH  22  25
ATOM     23  C   UNL     1       1.145  13.682  19.416  0.00  0.00    +0.000 C 
ATOM     24  O   UNL     1       1.894  13.522  20.396  0.00  0.00    +0.000 OA
ATOM     25  N   UNL     1       0.437  12.648  18.867  0.00  0.00    +0.000 N 
ATOM     26  H   UNL     1       0.034  12.766  17.939  0.00  0.00    +0.000 HD
BRANCH  23  27
ATOM     27  C   UNL     1       1.024  15.054  18.776  0.00  0.00    +0.000 C 
BRANCH  27  29
ATOM     28  C   UNL     1      -0.847  15.684  20.396  0.00  0.00    +0.000 C 
ATOM     29  C   UNL     1      -0.424  15.547  18.940  0.00  0.00    +0.000 C 
ENDBRANCH  27  29
ENDBRANCH  23  27
ENDBRANCH  22  25
BRANCH  22  30
ATOM     30  C   UNL     1      -0.840  10.529  19.451  0.00  0.00    +0.000 C 
BRANCH  30  31
ATOM     31  C   UNL     1      -1.830  10.743  18.326  0.00  0.00    +0.000 A 
ATOM     32  C   UNL     1      -1.818   9.962  17.155  0.00  0.00    +0.000 A 
ATOM     33  C   UNL     1      -2.895   9.998  16.259  0.00  0.00    +0.000 A 
ATOM     34  C   UNL     1      -3.969  10.858  16.476  0.00  0.00    +0.000 A 
ATOM     35  C   UNL     1      -3.956  11.702  17.587  0.00  0.00    +0.000 A 
ATOM     36  C   UNL     1      -2.899  11.631  18.504  0.00  0.00    +0.000 A 
ENDBRANCH  30  31
ENDBRANCH  22  30
ENDBRANCH   1  22
TORSDOF 19
ENDMDL
