MODEL 1
REMARK VINA RESULT:      -7.7      0.000      0.000
REMARK  Name = 
REMARK  4 active torsions:
REMARK  status: ('A' for Active; 'I' for Inactive)
REMARK    1  A    between atoms: C_4  and  C_5
REMARK    2  A    between atoms: C_5  and  C_6
REMARK    3  A    between atoms: C_6  and  C_7
REMARK    4  A    between atoms: C_7  and  C_8
REMARK                            x       y       z     vdW  Elec       q    Type
REMARK                         _______ _______ _______ _____ _____    ______ ____
ROOT
ATOM      1  N   UNL     1       8.456   5.237  20.447  0.00  0.00    +0.000 N 
ATOM      2  C   UNL     1       7.926   5.619  19.260  0.00  0.00    +0.000 A 
ATOM      3  N   UNL     1       7.235   4.784  18.552  0.00  0.00    +0.000 NA
ATOM      4  C   UNL     1       6.749   5.214  17.337  0.00  0.00    +0.000 A 
ATOM      5  C   UNL     1       6.926   6.457  16.870  0.00  0.00    +0.000 A 
ATOM      6  C   UNL     1       7.692   7.401  17.694  0.00  0.00    +0.000 A 
ATOM      7  O   UNL     1       7.896   8.555  17.330  0.00  0.00    +0.000 OA
ATOM      8  N   UNL     1       8.153   6.903  18.874  0.00  0.00    +0.000 N 
ATOM      9  H   UNL     1       8.065   4.361  20.781  0.00  0.00    +0.000 HD
ATOM     10  H   UNL     1       8.556   5.938  21.166  0.00  0.00    +0.000 HD
ATOM     11  H   UNL     1       8.714   7.519  19.436  0.00  0.00    +0.000 HD
ENDROOT
BRANCH   4  12
ATOM     12  C   UNL     1       5.983   4.181  16.534  0.00  0.00    +0.000 C 
BRANCH  12  13
ATOM     13  C   UNL     1       4.468   4.290  16.743  0.00  0.00    +0.000 C 
BRANCH  13  14
ATOM     14  C   UNL     1       3.904   3.065  17.469  0.00  0.00    +0.000 C 
BRANCH  14  15
ATOM     15  C   UNL     1       2.880   3.459  18.507  0.00  0.00    +0.000 A 
ATOM     16  C   UNL     1       3.078   4.582  19.321  0.00  0.00    +0.000 A 
ATOM     17  C   UNL     1       2.146   4.917  20.306  0.00  0.00    +0.000 A 
ATOM     18  C   UNL     1       1.009   4.132  20.489  0.00  0.00    +0.000 A 
ATOM     19  C   UNL     1       0.801   3.014  19.685  0.00  0.00    +0.000 A 
ATOM     20  C   UNL     1       1.732   2.677  18.699  0.00  0.00    +0.000 A 
ENDBRANCH  14  15
ENDBRANCH  13  14
ENDBRANCH  12  13
ENDBRANCH   4  12
TORSDOF 4
ENDMDL
MODEL 2
REMARK VINA RESULT:      -7.6      1.131      1.426
REMARK  Name = 
REMARK  4 active torsions:
REMARK  status: ('A' for Active; 'I' for Inactive)
REMARK    1  A    between atoms: C_4  and  C_5
REMARK    2  A    between atoms: C_5  and  C_6
REMARK    3  A    between atoms: C_6  and  C_7
REMARK    4  A    between atoms: C_7  and  C_8
REMARK                            x       y       z     vdW  Elec       q    Type
REMARK                         _______ _______ _______ _____ _____    ______ ____
ROOT
ATOM      1  N   UNL     1       8.582   5.130  20.553  0.00  0.00    +0.000 N 
ATOM      2  C   UNL     1       7.764   5.555  19.561  0.00  0.00    +0.000 A 
ATOM      3  N   UNL     1       6.654   4.935  19.315  0.00  0.00    +0.000 NA
ATOM      4  C   UNL     1       5.877   5.389  18.273  0.00  0.00    +0.000 A 
ATOM      5  C   UNL     1       6.193   6.455  17.526  0.00  0.00    +0.000 A 
ATOM      6  C   UNL     1       7.443   7.164  17.831  0.00  0.00    +0.000 A 
ATOM      7  O   UNL     1       7.799   8.147  17.189  0.00  0.00    +0.000 OA
ATOM      8  N   UNL     1       8.167   6.651  18.863  0.00  0.00    +0.000 N 
ATOM      9  H   UNL     1       8.126   4.467  21.173  0.00  0.00    +0.000 HD
ATOM     10  H   UNL     1       9.138   5.821  21.035  0.00  0.00    +0.000 HD
ATOM     11  H   UNL     1       9.045   7.096  19.064  0.00  0.00    +0.000 HD
ENDROOT
BRANCH   4  12
ATOM     12  C   UNL     1       4.611   4.599  18.006  0.00  0.00    +0.000 C 
BRANCH  12  13
ATOM     13  C   UNL     1       3.510   5.461  17.378  0.00  0.00    +0.000 C 
BRANCH  13  14
ATOM     14  C   UNL     1       2.505   5.952  18.424  0.00  0.00    +0.000 C 
BRANCH  14  15
ATOM     15  C   UNL     1       2.053   4.830  19.329  0.00  0.00    +0.000 A 
ATOM     16  C   UNL     1       2.509   4.747  20.652  0.00  0.00    +0.000 A 
ATOM     17  C   UNL     1       2.119   3.685  21.471  0.00  0.00    +0.000 A 
ATOM     18  C   UNL     1       1.272   2.694  20.977  0.00  0.00    +0.000 A 
ATOM     19  C   UNL     1       0.812   2.767  19.664  0.00  0.00    +0.000 A 
ATOM     20  C   UNL     1       1.201   3.828  18.843  0.00  0.00    +0.000 A 
ENDBRANCH  14  15
ENDBRANCH  13  14
ENDBRANCH  12  13
ENDBRANCH   4  12
TORSDOF 4
ENDMDL
MODEL 3
REMARK VINA RESULT:      -7.5      1.058      1.204
REMARK  Name = 
REMARK  4 active torsions:
REMARK  status: ('A' for Active; 'I' for Inactive)
REMARK    1  A    between atoms: C_4  and  C_5
REMARK    2  A    between atoms: C_5  and  C_6
REMARK    3  A    between atoms: C_6  and  C_7
REMARK    4  A    between atoms: C_7  and  C_8
REMARK                            x       y       z     vdW  Elec       q    Type
REMARK                         _______ _______ _______ _____ _____    ______ ____
ROOT
ATOM      1  N   UNL     1       8.358   5.281  20.413  0.00  0.00    +0.000 N 
ATOM      2  C   UNL     1       7.635   5.802  19.392  0.00  0.00    +0.000 A 
ATOM      3  N   UNL     1       6.477   5.307  19.090  0.00  0.00    +0.000 NA
ATOM      4  C   UNL     1       5.800   5.853  18.022  0.00  0.00    +0.000 A 
ATOM      5  C   UNL     1       6.262   6.887  17.306  0.00  0.00    +0.000 A 
ATOM      6  C   UNL     1       7.565   7.454  17.675  0.00  0.00    +0.000 A 
ATOM      7  O   UNL     1       8.052   8.400  17.064  0.00  0.00    +0.000 OA
ATOM      8  N   UNL     1       8.183   6.856  18.730  0.00  0.00    +0.000 N 
ATOM      9  H   UNL     1       7.806   4.664  21.002  0.00  0.00    +0.000 HD
ATOM     10  H   UNL     1       8.962   5.903  20.929  0.00  0.00    +0.000 HD
ATOM     11  H   UNL     1       9.094   7.201  18.975  0.00  0.00    +0.000 HD
ENDROOT
BRANCH   4  12
ATOM     12  C   UNL     1       4.470   5.206  17.689  0.00  0.00    +0.000 C 
BRANCH  12  13
ATOM     13  C   UNL     1       4.619   3.722  17.338  0.00  0.00    +0.000 C 
BRANCH  13  14
ATOM     14  C   UNL     1       3.280   2.982  17.412  0.00  0.00    +0.000 C 
BRANCH  14  15
ATOM     15  C   UNL     1       2.665   3.083  18.788  0.00  0.00    +0.000 A 
ATOM     16  C   UNL     1       3.327   2.565  19.910  0.00  0.00    +0.000 A 
ATOM     17  C   UNL     1       2.735   2.626  21.173  0.00  0.00    +0.000 A 
ATOM     18  C   UNL     1       1.476   3.204  21.329  0.00  0.00    +0.000 A 
ATOM     19  C   UNL     1       0.810   3.724  20.221  0.00  0.00    +0.000 A 
ATOM     20  C   UNL     1       1.400   3.663  18.956  0.00  0.00    +0.000 A 
ENDBRANCH  14  15
ENDBRANCH  13  14
ENDBRANCH  12  13
ENDBRANCH   4  12
TORSDOF 4
ENDMDL
MODEL 4
REMARK VINA RESULT:      -7.4      0.588      1.350
REMARK  Name = 
REMARK  4 active torsions:
REMARK  status: ('A' for Active; 'I' for Inactive)
REMARK    1  A    between atoms: C_4  and  C_5
REMARK    2  A    between atoms: C_5  and  C_6
REMARK    3  A    between atoms: C_6  and  C_7
REMARK    4  A    between atoms: C_7  and  C_8
REMARK                            x       y       z     vdW  Elec       q    Type
REMARK                         _______ _______ _______ _____ _____    ______ ____
ROOT
ATOM      1  N   UNL     1       8.458   5.223  20.375  0.00  0.00    +0.000 N 
ATOM      2  C   UNL     1       7.928   5.589  19.182  0.00  0.00    +0.000 A 
ATOM      3  N   UNL     1       7.306   4.722  18.449  0.00  0.00    +0.000 NA
ATOM      4  C   UNL     1       6.816   5.139  17.231  0.00  0.00    +0.000 A 
ATOM      5  C   UNL     1       6.923   6.397  16.784  0.00  0.00    +0.000 A 
ATOM      6  C   UNL     1       7.611   7.376  17.637  0.00  0.00    +0.000 A 
ATOM      7  O   UNL     1       7.748   8.545  17.292  0.00  0.00    +0.000 OA
ATOM      8  N   UNL     1       8.080   6.890  18.818  0.00  0.00    +0.000 N 
ATOM      9  H   UNL     1       8.117   4.320  20.689  0.00  0.00    +0.000 HD
ATOM     10  H   UNL     1       8.499   5.919  21.105  0.00  0.00    +0.000 HD
ATOM     11  H   UNL     1       8.589   7.532  19.400  0.00  0.00    +0.000 HD
ENDROOT
BRANCH   4  12
ATOM     12  C   UNL     1       6.134   4.071  16.398  0.00  0.00    +0.000 C 
BRANCH  12  13
ATOM     13  C   UNL     1       4.635   3.971  16.699  0.00  0.00    +0.000 C 
BRANCH  13  14
ATOM     14  C   UNL     1       4.130   5.180  17.492  0.00  0.00    +0.000 C 
BRANCH  14  15
ATOM     15  C   UNL     1       3.075   4.784  18.498  0.00  0.00    +0.000 A 
ATOM     16  C   UNL     1       2.105   3.824  18.180  0.00  0.00    +0.000 A 
ATOM     17  C   UNL     1       1.108   3.492  19.100  0.00  0.00    +0.000 A 
ATOM     18  C   UNL     1       1.070   4.117  20.346  0.00  0.00    +0.000 A 
ATOM     19  C   UNL     1       2.031   5.071  20.673  0.00  0.00    +0.000 A 
ATOM     20  C   UNL     1       3.027   5.405  19.754  0.00  0.00    +0.000 A 
ENDBRANCH  14  15
ENDBRANCH  13  14
ENDBRANCH  12  13
ENDBRANCH   4  12
TORSDOF 4
ENDMDL
MODEL 5
REMARK VINA RESULT:      -7.4      2.284      3.070
REMARK  Name = 
REMARK  4 active torsions:
REMARK  status: ('A' for Active; 'I' for Inactive)
REMARK    1  A    between atoms: C_4  and  C_5
REMARK    2  A    between atoms: C_5  and  C_6
REMARK    3  A    between atoms: C_6  and  C_7
REMARK    4  A    between atoms: C_7  and  C_8
REMARK                            x       y       z     vdW  Elec       q    Type
REMARK                         _______ _______ _______ _____ _____    ______ ____
ROOT
ATOM      1  N   UNL     1       6.117   3.811  14.402  0.00  0.00    +0.000 N 
ATOM      2  C   UNL     1       6.103   4.462  15.589  0.00  0.00    +0.000 A 
ATOM      3  N   UNL     1       5.180   5.332  15.849  0.00  0.00    +0.000 NA
ATOM      4  C   UNL     1       5.233   5.989  17.058  0.00  0.00    +0.000 A 
ATOM      5  C   UNL     1       6.168   5.750  17.988  0.00  0.00    +0.000 A 
ATOM      6  C   UNL     1       7.195   4.743  17.690  0.00  0.00    +0.000 A 
ATOM      7  O   UNL     1       8.083   4.474  18.492  0.00  0.00    +0.000 OA
ATOM      8  N   UNL     1       7.089   4.145  16.472  0.00  0.00    +0.000 N 
ATOM      9  H   UNL     1       5.244   3.916  13.892  0.00  0.00    +0.000 HD
ATOM     10  H   UNL     1       6.488   2.872  14.382  0.00  0.00    +0.000 HD
ATOM     11  H   UNL     1       7.804   3.482  16.230  0.00  0.00    +0.000 HD
ENDROOT
BRANCH   4  12
ATOM     12  C   UNL     1       4.152   7.026  17.289  0.00  0.00    +0.000 C 
BRANCH  12  13
ATOM     13  C   UNL     1       3.192   6.623  18.415  0.00  0.00    +0.000 C 
BRANCH  13  14
ATOM     14  C   UNL     1       2.250   5.496  17.983  0.00  0.00    +0.000 C 
BRANCH  14  15
ATOM     15  C   UNL     1       1.941   4.562  19.130  0.00  0.00    +0.000 A 
ATOM     16  C   UNL     1       2.400   4.838  20.425  0.00  0.00    +0.000 A 
ATOM     17  C   UNL     1       2.145   3.950  21.472  0.00  0.00    +0.000 A 
ATOM     18  C   UNL     1       1.431   2.776  21.236  0.00  0.00    +0.000 A 
ATOM     19  C   UNL     1       0.968   2.492  19.952  0.00  0.00    +0.000 A 
ATOM     20  C   UNL     1       1.223   3.379  18.904  0.00  0.00    +0.000 A 
ENDBRANCH  14  15
ENDBRANCH  13  14
ENDBRANCH  12  13
ENDBRANCH   4  12
TORSDOF 4
ENDMDL
MODEL 6
REMARK VINA RESULT:      -7.4      1.604      2.176
REMARK  Name = 
REMARK  4 active torsions:
REMARK  status: ('A' for Active; 'I' for Inactive)
REMARK    1  A    between atoms: C_4  and  C_5
REMARK    2  A    between atoms: C_5  and  C_6
REMARK    3  A    between atoms: C_6  and  C_7
REMARK    4  A    between atoms: C_7  and  C_8
REMARK                            x       y       z     vdW  Elec       q    Type
REMARK                         _______ _______ _______ _____ _____    ______ ____
ROOT
ATOM      1  N   UNL     1       8.250   8.869  17.569  0.00  0.00    +0.000 N 
ATOM      2  C   UNL     1       7.699   7.659  17.830  0.00  0.00    +0.000 A 
ATOM      3  N   UNL     1       6.781   7.177  17.054  0.00  0.00    +0.000 NA
ATOM      4  C   UNL     1       6.231   5.958  17.385  0.00  0.00    +0.000 A 
ATOM      5  C   UNL     1       6.620   5.235  18.444  0.00  0.00    +0.000 A 
ATOM      6  C   UNL     1       7.679   5.783  19.301  0.00  0.00    +0.000 A 
ATOM      7  O   UNL     1       8.085   5.179  20.288  0.00  0.00    +0.000 OA
ATOM      8  N   UNL     1       8.165   6.997  18.922  0.00  0.00    +0.000 N 
ATOM      9  H   UNL     1       8.033   9.200  16.634  0.00  0.00    +0.000 HD
ATOM     10  H   UNL     1       9.211   9.018  17.840  0.00  0.00    +0.000 HD
ATOM     11  H   UNL     1       8.862   7.410  19.517  0.00  0.00    +0.000 HD
ENDROOT
BRANCH   4  12
ATOM     12  C   UNL     1       5.133   5.463  16.465  0.00  0.00    +0.000 C 
BRANCH  12  13
ATOM     13  C   UNL     1       4.183   4.487  17.168  0.00  0.00    +0.000 C 
BRANCH  13  14
ATOM     14  C   UNL     1       2.897   5.177  17.630  0.00  0.00    +0.000 C 
BRANCH  14  15
ATOM     15  C   UNL     1       2.316   4.506  18.853  0.00  0.00    +0.000 A 
ATOM     16  C   UNL     1       2.791   4.815  20.135  0.00  0.00    +0.000 A 
ATOM     17  C   UNL     1       2.278   4.162  21.258  0.00  0.00    +0.000 A 
ATOM     18  C   UNL     1       1.287   3.193  21.111  0.00  0.00    +0.000 A 
ATOM     19  C   UNL     1       0.806   2.879  19.841  0.00  0.00    +0.000 A 
ATOM     20  C   UNL     1       1.318   3.530  18.718  0.00  0.00    +0.000 A 
ENDBRANCH  14  15
ENDBRANCH  13  14
ENDBRANCH  12  13
ENDBRANCH   4  12
TORSDOF 4
ENDMDL
MODEL 7
REMARK VINA RESULT:      -7.4      2.106      2.856
REMARK  Name = 
REMARK  4 active torsions:
REMARK  status: ('A' for Active; 'I' for Inactive)
REMARK    1  A    between atoms: C_4  and  C_5
REMARK    2  A    between atoms: C_5  and  C_6
REMARK    3  A    between atoms: C_6  and  C_7
REMARK    4  A    between atoms: C_7  and  C_8
REMARK                            x       y       z     vdW  Elec       q    Type
REMARK                         _______ _______ _______ _____ _____    ______ ____
ROOT
ATOM      1  N   UNL     1       8.022   4.309  18.173  0.00  0.00    +0.000 N 
ATOM      2  C   UNL     1       7.178   4.844  17.259  0.00  0.00    +0.000 A 
ATOM      3  N   UNL     1       6.237   5.652  17.631  0.00  0.00    +0.000 NA
ATOM      4  C   UNL     1       5.385   6.141  16.665  0.00  0.00    +0.000 A 
ATOM      5  C   UNL     1       5.502   5.850  15.363  0.00  0.00    +0.000 A 
ATOM      6  C   UNL     1       6.589   4.952  14.952  0.00  0.00    +0.000 A 
ATOM      7  O   UNL     1       6.756   4.639  13.777  0.00  0.00    +0.000 OA
ATOM      8  N   UNL     1       7.381   4.496  15.960  0.00  0.00    +0.000 N 
ATOM      9  H   UNL     1       7.967   4.778  19.072  0.00  0.00    +0.000 HD
ATOM     10  H   UNL     1       8.966   4.102  17.880  0.00  0.00    +0.000 HD
ATOM     11  H   UNL     1       8.106   3.848  15.708  0.00  0.00    +0.000 HD
ENDROOT
BRANCH   4  12
ATOM     12  C   UNL     1       4.279   7.049  17.165  0.00  0.00    +0.000 C 
BRANCH  12  13
ATOM     13  C   UNL     1       3.509   6.434  18.339  0.00  0.00    +0.000 C 
BRANCH  13  14
ATOM     14  C   UNL     1       2.226   5.738  17.878  0.00  0.00    +0.000 C 
BRANCH  14  15
ATOM     15  C   UNL     1       1.901   4.542  18.742  0.00  0.00    +0.000 A 
ATOM     16  C   UNL     1       1.781   3.263  18.182  0.00  0.00    +0.000 A 
ATOM     17  C   UNL     1       1.441   2.169  18.981  0.00  0.00    +0.000 A 
ATOM     18  C   UNL     1       1.215   2.342  20.345  0.00  0.00    +0.000 A 
ATOM     19  C   UNL     1       1.333   3.609  20.913  0.00  0.00    +0.000 A 
ATOM     20  C   UNL     1       1.672   4.704  20.116  0.00  0.00    +0.000 A 
ENDBRANCH  14  15
ENDBRANCH  13  14
ENDBRANCH  12  13
ENDBRANCH   4  12
TORSDOF 4
ENDMDL
MODEL 8
REMARK VINA RESULT:      -7.3      2.256      3.038
REMARK  Name = 
REMARK  4 active torsions:
REMARK  status: ('A' for Active; 'I' for Inactive)
REMARK    1  A    between atoms: C_4  and  C_5
REMARK    2  A    between atoms: C_5  and  C_6
REMARK    3  A    between atoms: C_6  and  C_7
REMARK    4  A    between atoms: C_7  and  C_8
REMARK                            x       y       z     vdW  Elec       q    Type
REMARK                         _______ _______ _______ _____ _____    ______ ____
ROOT
ATOM      1  N   UNL     1       7.043   5.189  14.044  0.00  0.00    +0.000 N 
ATOM      2  C   UNL     1       6.663   4.984  15.327  0.00  0.00    +0.000 A 
ATOM      3  N   UNL     1       5.407   4.957  15.642  0.00  0.00    +0.000 NA
ATOM      4  C   UNL     1       5.076   4.780  16.967  0.00  0.00    +0.000 A 
ATOM      5  C   UNL     1       5.983   4.601  17.937  0.00  0.00    +0.000 A 
ATOM      6  C   UNL     1       7.403   4.610  17.562  0.00  0.00    +0.000 A 
ATOM      7  O   UNL     1       8.290   4.455  18.396  0.00  0.00    +0.000 OA
ATOM      8  N   UNL     1       7.656   4.804  16.239  0.00  0.00    +0.000 N 
ATOM      9  H   UNL     1       6.272   5.085  13.390  0.00  0.00    +0.000 HD
ATOM     10  H   UNL     1       7.901   4.758  13.732  0.00  0.00    +0.000 HD
ATOM     11  H   UNL     1       8.622   4.854  15.966  0.00  0.00    +0.000 HD
ENDROOT
BRANCH   4  12
ATOM     12  C   UNL     1       3.593   4.799  17.281  0.00  0.00    +0.000 C 
BRANCH  12  13
ATOM     13  C   UNL     1       2.875   3.546  16.768  0.00  0.00    +0.000 C 
BRANCH  13  14
ATOM     14  C   UNL     1       3.116   2.338  17.678  0.00  0.00    +0.000 C 
BRANCH  14  15
ATOM     15  C   UNL     1       2.554   2.565  19.062  0.00  0.00    +0.000 A 
ATOM     16  C   UNL     1       1.225   2.973  19.239  0.00  0.00    +0.000 A 
ATOM     17  C   UNL     1       0.724   3.220  20.519  0.00  0.00    +0.000 A 
ATOM     18  C   UNL     1       1.545   3.064  21.634  0.00  0.00    +0.000 A 
ATOM     19  C   UNL     1       2.868   2.658  21.470  0.00  0.00    +0.000 A 
ATOM     20  C   UNL     1       3.371   2.411  20.191  0.00  0.00    +0.000 A 
ENDBRANCH  14  15
ENDBRANCH  13  14
ENDBRANCH  12  13
ENDBRANCH   4  12
TORSDOF 4
ENDMDL
MODEL 9
REMARK VINA RESULT:      -7.3      1.221      1.877
REMARK  Name = 
REMARK  4 active torsions:
REMARK  status: ('A' for Active; 'I' for Inactive)
REMARK    1  A    between atoms: C_4  and  C_5
REMARK    2  A    between atoms: C_5  and  C_6
REMARK    3  A    between atoms: C_6  and  C_7
REMARK    4  A    between atoms: C_7  and  C_8
REMARK                            x       y       z     vdW  Elec       q    Type
REMARK                         _______ _______ _______ _____ _____    ______ ____
ROOT
ATOM      1  N   UNL     1       8.436   5.239  20.495  0.00  0.00    +0.000 N 
ATOM      2  C   UNL     1       7.841   5.574  19.325  0.00  0.00    +0.000 A 
ATOM      3  N   UNL     1       7.046   4.741  18.732  0.00  0.00    +0.000 NA
ATOM      4  C   UNL     1       6.495   5.120  17.528  0.00  0.00    +0.000 A 
ATOM      5  C   UNL     1       6.712   6.313  16.960  0.00  0.00    +0.000 A 
ATOM      6  C   UNL     1       7.597   7.257  17.655  0.00  0.00    +0.000 A 
ATOM      7  O   UNL     1       7.844   8.366  17.194  0.00  0.00    +0.000 OA
ATOM      8  N   UNL     1       8.116   6.811  18.831  0.00  0.00    +0.000 N 
ATOM      9  H   UNL     1       8.018   4.416  20.920  0.00  0.00    +0.000 HD
ATOM     10  H   UNL     1       8.635   5.979  21.152  0.00  0.00    +0.000 HD
ATOM     11  H   UNL     1       8.756   7.424  19.304  0.00  0.00    +0.000 HD
ENDROOT
BRANCH   4  12
ATOM     12  C   UNL     1       5.607   4.088  16.860  0.00  0.00    +0.000 C 
BRANCH  12  13
ATOM     13  C   UNL     1       4.457   3.638  17.768  0.00  0.00    +0.000 C 
BRANCH  13  14
ATOM     14  C   UNL     1       3.137   4.318  17.396  0.00  0.00    +0.000 C 
BRANCH  14  15
ATOM     15  C   UNL     1       2.698   5.298  18.458  0.00  0.00    +0.000 A 
ATOM     16  C   UNL     1       2.207   4.848  19.691  0.00  0.00    +0.000 A 
ATOM     17  C   UNL     1       1.765   5.758  20.654  0.00  0.00    +0.000 A 
ATOM     18  C   UNL     1       1.808   7.127  20.394  0.00  0.00    +0.000 A 
ATOM     19  C   UNL     1       2.296   7.586  19.172  0.00  0.00    +0.000 A 
ATOM     20  C   UNL     1       2.737   6.677  18.208  0.00  0.00    +0.000 A 
ENDBRANCH  14  15
ENDBRANCH  13  14
ENDBRANCH  12  13
ENDBRANCH   4  12
TORSDOF 4
ENDMDL
