MODEL 1
REMARK VINA RESULT:      -7.8      0.000      0.000
REMARK  Name = 
REMARK  5 active torsions:
REMARK  status: ('A' for Active; 'I' for Inactive)
REMARK    1  A    between atoms: C_1  and  N_2
REMARK    2  A    between atoms: C_3  and  C_4
REMARK    3  A    between atoms: N_6  and  C_7
REMARK    4  A    between atoms: C_7  and  C_8
REMARK    5  A    between atoms: C_8  and  N_9
REMARK                            x       y       z     vdW  Elec       q    Type
REMARK                         _______ _______ _______ _____ _____    ______ ____
ROOT
ATOM      1  C   UNL     1       1.704   9.347  17.817  0.00  0.00    +0.000 C 
ATOM      2  N   UNL     1       1.436   8.983  19.193  0.00  0.00    +0.000 N 
ATOM      3  C   UNL     1       1.779   7.798  19.852  0.00  0.00    +0.000 A 
ATOM      4  C   UNL     1       1.303   7.946  21.157  0.00  0.00    +0.000 A 
ATOM      5  C   UNL     1       0.674   9.200  21.265  0.00  0.00    +0.000 A 
ATOM      6  C   UNL     1       0.005   9.869  22.360  0.00  0.00    +0.000 A 
ATOM      7  O   UNL     1      -0.098   9.346  23.465  0.00  0.00    +0.000 OA
ATOM      8  N   UNL     1      -0.501  11.135  22.012  0.00  0.00    +0.000 N 
ATOM      9  C   UNL     1      -1.168  11.865  22.995  0.00  0.00    +0.000 A 
ATOM     10  C   UNL     1      -1.681  13.078  22.756  0.00  0.00    +0.000 A 
ATOM     11  C   UNL     1      -1.550  13.667  21.452  0.00  0.00    +0.000 A 
ATOM     12  C   UNL     1      -0.917  13.012  20.468  0.00  0.00    +0.000 A 
ATOM     13  C   UNL     1      -0.336  11.656  20.713  0.00  0.00    +0.000 A 
ATOM     14  N   UNL     1       0.274  11.045  19.728  0.00  0.00    +0.000 NA
ATOM     15  C   UNL     1       0.761   9.825  20.052  0.00  0.00    +0.000 A 
ENDROOT
BRANCH   3  16
ATOM     16  C   UNL     1       2.467   6.655  19.256  0.00  0.00    +0.000 C 
ATOM     17  O   UNL     1       2.267   6.255  18.114  0.00  0.00    +0.000 OA
ATOM     18  N   UNL     1       3.374   6.003  20.071  0.00  0.00    +0.000 N 
ATOM     19  H   UNL     1       3.656   6.425  20.942  0.00  0.00    +0.000 HD
BRANCH  18  20
ATOM     20  C   UNL     1       4.128   4.847  19.605  0.00  0.00    +0.000 C 
BRANCH  20  21
ATOM     21  C   UNL     1       5.562   5.181  19.129  0.00  0.00    +0.000 C 
BRANCH  21  22
ATOM     22  N   UNL     1       5.726   5.172  17.674  0.00  0.00    +0.000 NA
ATOM     23  C   UNL     1       5.443   6.439  16.976  0.00  0.00    +0.000 C 
ATOM     24  C   UNL     1       5.415   6.149  15.459  0.00  0.00    +0.000 C 
ATOM     25  O   UNL     1       6.652   5.581  14.997  0.00  0.00    +0.000 OA
ATOM     26  C   UNL     1       6.984   4.404  15.752  0.00  0.00    +0.000 C 
ATOM     27  C   UNL     1       7.069   4.728  17.249  0.00  0.00    +0.000 C 
ENDBRANCH  21  22
ENDBRANCH  20  21
ENDBRANCH  18  20
ENDBRANCH   3  16
TORSDOF 4
ENDMDL
MODEL 2
REMARK VINA RESULT:      -7.7      1.281      1.551
REMARK  Name = 
REMARK  5 active torsions:
REMARK  status: ('A' for Active; 'I' for Inactive)
REMARK    1  A    between atoms: C_1  and  N_2
REMARK    2  A    between atoms: C_3  and  C_4
REMARK    3  A    between atoms: N_6  and  C_7
REMARK    4  A    between atoms: C_7  and  C_8
REMARK    5  A    between atoms: C_8  and  N_9
REMARK                            x       y       z     vdW  Elec       q    Type
REMARK                         _______ _______ _______ _____ _____    ______ ____
ROOT
ATOM      1  C   UNL     1       1.997   8.399  17.863  0.00  0.00    +0.000 C 
ATOM      2  N   UNL     1       1.591   8.613  19.237  0.00  0.00    +0.000 N 
ATOM      3  C   UNL     1       1.656   7.710  20.303  0.00  0.00    +0.000 A 
ATOM      4  C   UNL     1       1.151   8.402  21.407  0.00  0.00    +0.000 A 
ATOM      5  C   UNL     1       0.781   9.695  20.995  0.00  0.00    +0.000 A 
ATOM      6  C   UNL     1       0.202  10.820  21.699  0.00  0.00    +0.000 A 
ATOM      7  O   UNL     1      -0.060  10.761  22.896  0.00  0.00    +0.000 OA
ATOM      8  N   UNL     1      -0.022  11.937  20.874  0.00  0.00    +0.000 N 
ATOM      9  C   UNL     1      -0.580  13.076  21.453  0.00  0.00    +0.000 A 
ATOM     10  C   UNL     1      -0.827  14.185  20.746  0.00  0.00    +0.000 A 
ATOM     11  C   UNL     1      -0.514  14.227  19.344  0.00  0.00    +0.000 A 
ATOM     12  C   UNL     1       0.026  13.162  18.735  0.00  0.00    +0.000 A 
ATOM     13  C   UNL     1       0.311  11.913  19.505  0.00  0.00    +0.000 A 
ATOM     14  N   UNL     1       0.837  10.892  18.875  0.00  0.00    +0.000 NA
ATOM     15  C   UNL     1       1.054   9.810  19.660  0.00  0.00    +0.000 A 
ENDROOT
BRANCH   3  16
ATOM     16  C   UNL     1       2.132   6.331  20.229  0.00  0.00    +0.000 C 
ATOM     17  O   UNL     1       1.470   5.359  20.577  0.00  0.00    +0.000 OA
ATOM     18  N   UNL     1       3.420   6.161  19.754  0.00  0.00    +0.000 N 
ATOM     19  H   UNL     1       3.897   6.935  19.319  0.00  0.00    +0.000 HD
BRANCH  18  20
ATOM     20  C   UNL     1       4.021   4.840  19.630  0.00  0.00    +0.000 C 
BRANCH  20  21
ATOM     21  C   UNL     1       3.927   4.236  18.209  0.00  0.00    +0.000 C 
BRANCH  21  22
ATOM     22  N   UNL     1       5.203   4.193  17.492  0.00  0.00    +0.000 NA
ATOM     23  C   UNL     1       5.176   4.620  16.082  0.00  0.00    +0.000 C 
ATOM     24  C   UNL     1       6.535   4.251  15.448  0.00  0.00    +0.000 C 
ATOM     25  O   UNL     1       7.637   4.860  16.142  0.00  0.00    +0.000 OA
ATOM     26  C   UNL     1       7.601   4.531  17.541  0.00  0.00    +0.000 C 
ATOM     27  C   UNL     1       6.268   4.965  18.164  0.00  0.00    +0.000 C 
ENDBRANCH  21  22
ENDBRANCH  20  21
ENDBRANCH  18  20
ENDBRANCH   3  16
TORSDOF 4
ENDMDL
MODEL 3
REMARK VINA RESULT:      -7.6      2.112      3.437
REMARK  Name = 
REMARK  5 active torsions:
REMARK  status: ('A' for Active; 'I' for Inactive)
REMARK    1  A    between atoms: C_1  and  N_2
REMARK    2  A    between atoms: C_3  and  C_4
REMARK    3  A    between atoms: N_6  and  C_7
REMARK    4  A    between atoms: C_7  and  C_8
REMARK    5  A    between atoms: C_8  and  N_9
REMARK                            x       y       z     vdW  Elec       q    Type
REMARK                         _______ _______ _______ _____ _____    ______ ____
ROOT
ATOM      1  C   UNL     1       2.239   4.972  20.929  0.00  0.00    +0.000 C 
ATOM      2  N   UNL     1       2.260   6.044  19.955  0.00  0.00    +0.000 N 
ATOM      3  C   UNL     1       2.806   6.027  18.668  0.00  0.00    +0.000 A 
ATOM      4  C   UNL     1       2.560   7.297  18.142  0.00  0.00    +0.000 A 
ATOM      5  C   UNL     1       1.887   8.062  19.112  0.00  0.00    +0.000 A 
ATOM      6  C   UNL     1       1.400   9.425  19.121  0.00  0.00    +0.000 A 
ATOM      7  O   UNL     1       1.537  10.160  18.149  0.00  0.00    +0.000 OA
ATOM      8  N   UNL     1       0.787   9.788  20.333  0.00  0.00    +0.000 N 
ATOM      9  C   UNL     1       0.284  11.084  20.449  0.00  0.00    +0.000 A 
ATOM     10  C   UNL     1      -0.316  11.517  21.564  0.00  0.00    +0.000 A 
ATOM     11  C   UNL     1      -0.461  10.636  22.690  0.00  0.00    +0.000 A 
ATOM     12  C   UNL     1       0.002   9.379  22.634  0.00  0.00    +0.000 A 
ATOM     13  C   UNL     1       0.675   8.873  21.399  0.00  0.00    +0.000 A 
ATOM     14  N   UNL     1       1.116   7.640  21.383  0.00  0.00    +0.000 NA
ATOM     15  C   UNL     1       1.711   7.281  20.221  0.00  0.00    +0.000 A 
ENDROOT
BRANCH   3  16
ATOM     16  C   UNL     1       3.505   4.902  18.050  0.00  0.00    +0.000 C 
ATOM     17  O   UNL     1       3.591   3.788  18.556  0.00  0.00    +0.000 OA
ATOM     18  N   UNL     1       4.110   5.161  16.833  0.00  0.00    +0.000 N 
ATOM     19  H   UNL     1       3.903   6.019  16.346  0.00  0.00    +0.000 HD
BRANCH  18  20
ATOM     20  C   UNL     1       4.842   4.131  16.109  0.00  0.00    +0.000 C 
BRANCH  20  21
ATOM     21  C   UNL     1       6.375   4.195  16.302  0.00  0.00    +0.000 C 
BRANCH  21  22
ATOM     22  N   UNL     1       6.817   5.231  17.238  0.00  0.00    +0.000 NA
ATOM     23  C   UNL     1       7.811   4.820  18.246  0.00  0.00    +0.000 C 
ATOM     24  C   UNL     1       7.939   5.960  19.280  0.00  0.00    +0.000 C 
ATOM     25  O   UNL     1       8.321   7.203  18.667  0.00  0.00    +0.000 OA
ATOM     26  C   UNL     1       7.411   7.549  17.609  0.00  0.00    +0.000 C 
ATOM     27  C   UNL     1       7.349   6.431  16.561  0.00  0.00    +0.000 C 
ENDBRANCH  21  22
ENDBRANCH  20  21
ENDBRANCH  18  20
ENDBRANCH   3  16
TORSDOF 4
ENDMDL
MODEL 4
REMARK VINA RESULT:      -7.5      0.943      1.110
REMARK  Name = 
REMARK  5 active torsions:
REMARK  status: ('A' for Active; 'I' for Inactive)
REMARK    1  A    between atoms: C_1  and  N_2
REMARK    2  A    between atoms: C_3  and  C_4
REMARK    3  A    between atoms: N_6  and  C_7
REMARK    4  A    between atoms: C_7  and  C_8
REMARK    5  A    between atoms: C_8  and  N_9
REMARK                            x       y       z     vdW  Elec       q    Type
REMARK                         _______ _______ _______ _____ _____    ______ ____
ROOT
ATOM      1  C   UNL     1       1.701   9.703  17.730  0.00  0.00    +0.000 C 
ATOM      2  N   UNL     1       1.456   9.212  19.071  0.00  0.00    +0.000 N 
ATOM      3  C   UNL     1       1.859   7.994  19.628  0.00  0.00    +0.000 A 
ATOM      4  C   UNL     1       1.381   8.009  20.940  0.00  0.00    +0.000 A 
ATOM      5  C   UNL     1       0.693   9.217  21.153  0.00  0.00    +0.000 A 
ATOM      6  C   UNL     1      -0.005   9.759  22.300  0.00  0.00    +0.000 A 
ATOM      7  O   UNL     1      -0.077   9.140  23.357  0.00  0.00    +0.000 OA
ATOM      8  N   UNL     1      -0.573  11.023  22.059  0.00  0.00    +0.000 N 
ATOM      9  C   UNL     1      -1.272  11.635  23.100  0.00  0.00    +0.000 A 
ATOM     10  C   UNL     1      -1.844  12.836  22.963  0.00  0.00    +0.000 A 
ATOM     11  C   UNL     1      -1.747  13.539  21.714  0.00  0.00    +0.000 A 
ATOM     12  C   UNL     1      -1.086  13.000  20.679  0.00  0.00    +0.000 A 
ATOM     13  C   UNL     1      -0.439  11.659  20.809  0.00  0.00    +0.000 A 
ATOM     14  N   UNL     1       0.197  11.163  19.776  0.00  0.00    +0.000 NA
ATOM     15  C   UNL     1       0.744   9.945  19.996  0.00  0.00    +0.000 A 
ENDROOT
BRANCH   3  16
ATOM     16  C   UNL     1       2.600   6.941  18.937  0.00  0.00    +0.000 C 
ATOM     17  O   UNL     1       3.464   7.153  18.094  0.00  0.00    +0.000 OA
ATOM     18  N   UNL     1       2.258   5.643  19.271  0.00  0.00    +0.000 N 
ATOM     19  H   UNL     1       1.672   5.472  20.074  0.00  0.00    +0.000 HD
BRANCH  18  20
ATOM     20  C   UNL     1       2.915   4.497  18.658  0.00  0.00    +0.000 C 
BRANCH  20  21
ATOM     21  C   UNL     1       4.299   4.167  19.265  0.00  0.00    +0.000 C 
BRANCH  21  22
ATOM     22  N   UNL     1       5.388   4.127  18.285  0.00  0.00    +0.000 NA
ATOM     23  C   UNL     1       5.008   4.338  16.877  0.00  0.00    +0.000 C 
ATOM     24  C   UNL     1       6.232   3.997  15.999  0.00  0.00    +0.000 C 
ATOM     25  O   UNL     1       7.379   4.792  16.341  0.00  0.00    +0.000 OA
ATOM     26  C   UNL     1       7.684   4.670  17.740  0.00  0.00    +0.000 C 
ATOM     27  C   UNL     1       6.476   5.076  18.594  0.00  0.00    +0.000 C 
ENDBRANCH  21  22
ENDBRANCH  20  21
ENDBRANCH  18  20
ENDBRANCH   3  16
TORSDOF 4
ENDMDL
MODEL 5
REMARK VINA RESULT:      -7.5      2.081      3.364
REMARK  Name = 
REMARK  5 active torsions:
REMARK  status: ('A' for Active; 'I' for Inactive)
REMARK    1  A    between atoms: C_1  and  N_2
REMARK    2  A    between atoms: C_3  and  C_4
REMARK    3  A    between atoms: N_6  and  C_7
REMARK    4  A    between atoms: C_7  and  C_8
REMARK    5  A    between atoms: C_8  and  N_9
REMARK                            x       y       z     vdW  Elec       q    Type
REMARK                         _______ _______ _______ _____ _____    ______ ____
ROOT
ATOM      1  C   UNL     1       2.410   5.246  20.645  0.00  0.00    +0.000 C 
ATOM      2  N   UNL     1       2.331   6.400  19.774  0.00  0.00    +0.000 N 
ATOM      3  C   UNL     1       2.848   6.540  18.482  0.00  0.00    +0.000 A 
ATOM      4  C   UNL     1       2.500   7.831  18.079  0.00  0.00    +0.000 A 
ATOM      5  C   UNL     1       1.796   8.453  19.127  0.00  0.00    +0.000 A 
ATOM      6  C   UNL     1       1.214   9.771  19.269  0.00  0.00    +0.000 A 
ATOM      7  O   UNL     1       1.275  10.599  18.367  0.00  0.00    +0.000 OA
ATOM      8  N   UNL     1       0.604   9.976  20.520  0.00  0.00    +0.000 N 
ATOM      9  C   UNL     1       0.013  11.216  20.763  0.00  0.00    +0.000 A 
ATOM     10  C   UNL     1      -0.591  11.501  21.922  0.00  0.00    +0.000 A 
ATOM     11  C   UNL     1      -0.646  10.513  22.964  0.00  0.00    +0.000 A 
ATOM     12  C   UNL     1      -0.097   9.304  22.786  0.00  0.00    +0.000 A 
ATOM     13  C   UNL     1       0.582   8.963  21.499  0.00  0.00    +0.000 A 
ATOM     14  N   UNL     1       1.110   7.772  21.361  0.00  0.00    +0.000 NA
ATOM     15  C   UNL     1       1.702   7.564  20.162  0.00  0.00    +0.000 A 
ENDROOT
BRANCH   3  16
ATOM     16  C   UNL     1       3.611   5.530  17.751  0.00  0.00    +0.000 C 
ATOM     17  O   UNL     1       3.141   4.468  17.360  0.00  0.00    +0.000 OA
ATOM     18  N   UNL     1       4.944   5.823  17.530  0.00  0.00    +0.000 N 
ATOM     19  H   UNL     1       5.286   6.756  17.704  0.00  0.00    +0.000 HD
BRANCH  18  20
ATOM     20  C   UNL     1       5.821   4.904  16.817  0.00  0.00    +0.000 C 
BRANCH  20  21
ATOM     21  C   UNL     1       6.803   5.599  15.844  0.00  0.00    +0.000 C 
BRANCH  21  22
ATOM     22  N   UNL     1       6.682   5.155  14.454  0.00  0.00    +0.000 NA
ATOM     23  C   UNL     1       7.891   5.280  13.620  0.00  0.00    +0.000 C 
ATOM     24  C   UNL     1       7.485   5.017  12.153  0.00  0.00    +0.000 C 
ATOM     25  O   UNL     1       6.882   3.723  11.984  0.00  0.00    +0.000 OA
ATOM     26  C   UNL     1       5.767   3.561  12.877  0.00  0.00    +0.000 C 
ATOM     27  C   UNL     1       6.207   3.762  14.333  0.00  0.00    +0.000 C 
ENDBRANCH  21  22
ENDBRANCH  20  21
ENDBRANCH  18  20
ENDBRANCH   3  16
TORSDOF 4
ENDMDL
MODEL 6
REMARK VINA RESULT:      -7.5      1.259      1.550
REMARK  Name = 
REMARK  5 active torsions:
REMARK  status: ('A' for Active; 'I' for Inactive)
REMARK    1  A    between atoms: C_1  and  N_2
REMARK    2  A    between atoms: C_3  and  C_4
REMARK    3  A    between atoms: N_6  and  C_7
REMARK    4  A    between atoms: C_7  and  C_8
REMARK    5  A    between atoms: C_8  and  N_9
REMARK                            x       y       z     vdW  Elec       q    Type
REMARK                         _______ _______ _______ _____ _____    ______ ____
ROOT
ATOM      1  C   UNL     1       2.044   8.311  17.807  0.00  0.00    +0.000 C 
ATOM      2  N   UNL     1       1.641   8.532  19.180  0.00  0.00    +0.000 N 
ATOM      3  C   UNL     1       1.704   7.633  20.250  0.00  0.00    +0.000 A 
ATOM      4  C   UNL     1       1.204   8.331  21.352  0.00  0.00    +0.000 A 
ATOM      5  C   UNL     1       0.838   9.624  20.936  0.00  0.00    +0.000 A 
ATOM      6  C   UNL     1       0.265  10.753  21.637  0.00  0.00    +0.000 A 
ATOM      7  O   UNL     1       0.005  10.700  22.834  0.00  0.00    +0.000 OA
ATOM      8  N   UNL     1       0.044  11.868  20.807  0.00  0.00    +0.000 N 
ATOM      9  C   UNL     1      -0.509  13.012  21.383  0.00  0.00    +0.000 A 
ATOM     10  C   UNL     1      -0.753  14.119  20.673  0.00  0.00    +0.000 A 
ATOM     11  C   UNL     1      -0.441  14.155  19.270  0.00  0.00    +0.000 A 
ATOM     12  C   UNL     1       0.093  13.085  18.664  0.00  0.00    +0.000 A 
ATOM     13  C   UNL     1       0.375  11.838  19.438  0.00  0.00    +0.000 A 
ATOM     14  N   UNL     1       0.896  10.812  18.811  0.00  0.00    +0.000 NA
ATOM     15  C   UNL     1       1.109   9.733  19.600  0.00  0.00    +0.000 A 
ENDROOT
BRANCH   3  16
ATOM     16  C   UNL     1       2.175   6.251  20.181  0.00  0.00    +0.000 C 
ATOM     17  O   UNL     1       1.484   5.279  20.464  0.00  0.00    +0.000 OA
ATOM     18  N   UNL     1       3.490   6.080  19.788  0.00  0.00    +0.000 N 
ATOM     19  H   UNL     1       4.001   6.858  19.402  0.00  0.00    +0.000 HD
BRANCH  18  20
ATOM     20  C   UNL     1       4.089   4.757  19.679  0.00  0.00    +0.000 C 
BRANCH  20  21
ATOM     21  C   UNL     1       4.160   4.216  18.232  0.00  0.00    +0.000 C 
BRANCH  21  22
ATOM     22  N   UNL     1       5.113   4.925  17.374  0.00  0.00    +0.000 NA
ATOM     23  C   UNL     1       6.456   5.152  17.938  0.00  0.00    +0.000 C 
ATOM     24  C   UNL     1       7.203   6.128  17.003  0.00  0.00    +0.000 C 
ATOM     25  O   UNL     1       7.294   5.625  15.659  0.00  0.00    +0.000 OA
ATOM     26  C   UNL     1       5.990   5.301  15.149  0.00  0.00    +0.000 C 
ATOM     27  C   UNL     1       5.292   4.281  16.057  0.00  0.00    +0.000 C 
ENDBRANCH  21  22
ENDBRANCH  20  21
ENDBRANCH  18  20
ENDBRANCH   3  16
TORSDOF 4
ENDMDL
MODEL 7
REMARK VINA RESULT:      -7.5      2.869      8.304
REMARK  Name = 
REMARK  5 active torsions:
REMARK  status: ('A' for Active; 'I' for Inactive)
REMARK    1  A    between atoms: C_1  and  N_2
REMARK    2  A    between atoms: C_3  and  C_4
REMARK    3  A    between atoms: N_6  and  C_7
REMARK    4  A    between atoms: C_7  and  C_8
REMARK    5  A    between atoms: C_8  and  N_9
REMARK                            x       y       z     vdW  Elec       q    Type
REMARK                         _______ _______ _______ _____ _____    ______ ____
ROOT
ATOM      1  C   UNL     1       1.996   9.626  18.014  0.00  0.00    +0.000 C 
ATOM      2  N   UNL     1       1.838   8.678  19.097  0.00  0.00    +0.000 N 
ATOM      3  C   UNL     1       1.245   8.889  20.345  0.00  0.00    +0.000 A 
ATOM      4  C   UNL     1       1.341   7.667  21.015  0.00  0.00    +0.000 A 
ATOM      5  C   UNL     1       1.995   6.746  20.176  0.00  0.00    +0.000 A 
ATOM      6  C   UNL     1       2.370   5.359  20.347  0.00  0.00    +0.000 A 
ATOM      7  O   UNL     1       2.120   4.751  21.382  0.00  0.00    +0.000 OA
ATOM      8  N   UNL     1       3.036   4.821  19.231  0.00  0.00    +0.000 N 
ATOM      9  C   UNL     1       3.445   3.489  19.293  0.00  0.00    +0.000 A 
ATOM     10  C   UNL     1       4.084   2.893  18.280  0.00  0.00    +0.000 A 
ATOM     11  C   UNL     1       4.367   3.629  17.078  0.00  0.00    +0.000 A 
ATOM     12  C   UNL     1       3.997   4.912  16.962  0.00  0.00    +0.000 A 
ATOM     13  C   UNL     1       3.281   5.598  18.081  0.00  0.00    +0.000 A 
ATOM     14  N   UNL     1       2.936   6.853  17.933  0.00  0.00    +0.000 NA
ATOM     15  C   UNL     1       2.297   7.381  19.003  0.00  0.00    +0.000 A 
ENDROOT
BRANCH   3  16
ATOM     16  C   UNL     1       0.679  10.149  20.822  0.00  0.00    +0.000 C 
ATOM     17  O   UNL     1       1.301  10.969  21.489  0.00  0.00    +0.000 OA
ATOM     18  N   UNL     1      -0.645  10.379  20.497  0.00  0.00    +0.000 N 
ATOM     19  H   UNL     1      -1.102   9.790  19.818  0.00  0.00    +0.000 HD
BRANCH  18  20
ATOM     20  C   UNL     1      -1.335  11.594  20.910  0.00  0.00    +0.000 C 
BRANCH  20  21
ATOM     21  C   UNL     1      -1.932  12.408  19.738  0.00  0.00    +0.000 C 
BRANCH  21  22
ATOM     22  N   UNL     1      -2.673  11.602  18.766  0.00  0.00    +0.000 NA
ATOM     23  C   UNL     1      -4.109  11.902  18.627  0.00  0.00    +0.000 C 
ATOM     24  C   UNL     1      -4.746  10.787  17.769  0.00  0.00    +0.000 C 
ATOM     25  O   UNL     1      -4.123  10.677  16.478  0.00  0.00    +0.000 OA
ATOM     26  C   UNL     1      -2.704  10.492  16.613  0.00  0.00    +0.000 C 
ATOM     27  C   UNL     1      -2.082  11.645  17.413  0.00  0.00    +0.000 C 
ENDBRANCH  21  22
ENDBRANCH  20  21
ENDBRANCH  18  20
ENDBRANCH   3  16
TORSDOF 4
ENDMDL
MODEL 8
REMARK VINA RESULT:      -7.5      1.258      1.638
REMARK  Name = 
REMARK  5 active torsions:
REMARK  status: ('A' for Active; 'I' for Inactive)
REMARK    1  A    between atoms: C_1  and  N_2
REMARK    2  A    between atoms: C_3  and  C_4
REMARK    3  A    between atoms: N_6  and  C_7
REMARK    4  A    between atoms: C_7  and  C_8
REMARK    5  A    between atoms: C_8  and  N_9
REMARK                            x       y       z     vdW  Elec       q    Type
REMARK                         _______ _______ _______ _____ _____    ______ ____
ROOT
ATOM      1  C   UNL     1       2.332   8.558  17.678  0.00  0.00    +0.000 C 
ATOM      2  N   UNL     1       1.861   8.344  19.031  0.00  0.00    +0.000 N 
ATOM      3  C   UNL     1       2.087   7.237  19.855  0.00  0.00    +0.000 A 
ATOM      4  C   UNL     1       1.427   7.523  21.052  0.00  0.00    +0.000 A 
ATOM      5  C   UNL     1       0.807   8.780  20.933  0.00  0.00    +0.000 A 
ATOM      6  C   UNL     1      -0.006   9.561  21.840  0.00  0.00    +0.000 A 
ATOM      7  O   UNL     1      -0.277   9.160  22.966  0.00  0.00    +0.000 OA
ATOM      8  N   UNL     1      -0.438  10.781  21.288  0.00  0.00    +0.000 N 
ATOM      9  C   UNL     1      -1.232  11.612  22.079  0.00  0.00    +0.000 A 
ATOM     10  C   UNL     1      -1.687  12.790  21.640  0.00  0.00    +0.000 A 
ATOM     11  C   UNL     1      -1.359  13.237  20.314  0.00  0.00    +0.000 A 
ATOM     12  C   UNL     1      -0.598  12.481  19.510  0.00  0.00    +0.000 A 
ATOM     13  C   UNL     1      -0.078  11.161  19.980  0.00  0.00    +0.000 A 
ATOM     14  N   UNL     1       0.662  10.449  19.166  0.00  0.00    +0.000 NA
ATOM     15  C   UNL     1       1.080   9.271  19.686  0.00  0.00    +0.000 A 
ENDROOT
BRANCH   3  16
ATOM     16  C   UNL     1       2.840   6.038  19.491  0.00  0.00    +0.000 C 
ATOM     17  O   UNL     1       3.970   5.791  19.895  0.00  0.00    +0.000 OA
ATOM     18  N   UNL     1       2.208   5.170  18.619  0.00  0.00    +0.000 N 
ATOM     19  H   UNL     1       1.228   5.289  18.419  0.00  0.00    +0.000 HD
BRANCH  18  20
ATOM     20  C   UNL     1       2.845   3.938  18.172  0.00  0.00    +0.000 C 
BRANCH  20  21
ATOM     21  C   UNL     1       3.547   4.055  16.799  0.00  0.00    +0.000 C 
BRANCH  21  22
ATOM     22  N   UNL     1       4.884   4.651  16.860  0.00  0.00    +0.000 NA
ATOM     23  C   UNL     1       5.940   3.969  16.091  0.00  0.00    +0.000 C 
ATOM     24  C   UNL     1       7.296   4.587  16.496  0.00  0.00    +0.000 C 
ATOM     25  O   UNL     1       7.334   6.005  16.263  0.00  0.00    +0.000 OA
ATOM     26  C   UNL     1       6.238   6.658  16.926  0.00  0.00    +0.000 C 
ATOM     27  C   UNL     1       4.898   6.073  16.460  0.00  0.00    +0.000 C 
ENDBRANCH  21  22
ENDBRANCH  20  21
ENDBRANCH  18  20
ENDBRANCH   3  16
TORSDOF 4
ENDMDL
MODEL 9
REMARK VINA RESULT:      -7.5      2.481      3.968
REMARK  Name = 
REMARK  5 active torsions:
REMARK  status: ('A' for Active; 'I' for Inactive)
REMARK    1  A    between atoms: C_1  and  N_2
REMARK    2  A    between atoms: C_3  and  C_4
REMARK    3  A    between atoms: N_6  and  C_7
REMARK    4  A    between atoms: C_7  and  C_8
REMARK    5  A    between atoms: C_8  and  N_9
REMARK                            x       y       z     vdW  Elec       q    Type
REMARK                         _______ _______ _______ _____ _____    ______ ____
ROOT
ATOM      1  C   UNL     1       2.193   6.278  20.615  0.00  0.00    +0.000 C 
ATOM      2  N   UNL     1       2.036   7.462  19.795  0.00  0.00    +0.000 N 
ATOM      3  C   UNL     1       2.568   7.705  18.525  0.00  0.00    +0.000 A 
ATOM      4  C   UNL     1       2.120   8.980  18.172  0.00  0.00    +0.000 A 
ATOM      5  C   UNL     1       1.343   9.491  19.227  0.00  0.00    +0.000 A 
ATOM      6  C   UNL     1       0.647  10.747  19.414  0.00  0.00    +0.000 A 
ATOM      7  O   UNL     1       0.658  11.619  18.553  0.00  0.00    +0.000 OA
ATOM      8  N   UNL     1      -0.006  10.841  20.657  0.00  0.00    +0.000 N 
ATOM      9  C   UNL     1      -0.705  12.014  20.940  0.00  0.00    +0.000 A 
ATOM     10  C   UNL     1      -1.357  12.192  22.095  0.00  0.00    +0.000 A 
ATOM     11  C   UNL     1      -1.352  11.155  23.089  0.00  0.00    +0.000 A 
ATOM     12  C   UNL     1      -0.697  10.005  22.870  0.00  0.00    +0.000 A 
ATOM     13  C   UNL     1       0.037   9.784  21.587  0.00  0.00    +0.000 A 
ATOM     14  N   UNL     1       0.667   8.649  21.410  0.00  0.00    +0.000 NA
ATOM     15  C   UNL     1       1.302   8.549  20.218  0.00  0.00    +0.000 A 
ENDROOT
BRANCH   3  16
ATOM     16  C   UNL     1       3.431   6.799  17.769  0.00  0.00    +0.000 C 
ATOM     17  O   UNL     1       4.454   7.151  17.193  0.00  0.00    +0.000 OA
ATOM     18  N   UNL     1       3.018   5.480  17.711  0.00  0.00    +0.000 N 
ATOM     19  H   UNL     1       2.275   5.163  18.314  0.00  0.00    +0.000 HD
BRANCH  18  20
ATOM     20  C   UNL     1       3.782   4.471  16.990  0.00  0.00    +0.000 C 
BRANCH  20  21
ATOM     21  C   UNL     1       3.797   3.085  17.676  0.00  0.00    +0.000 C 
BRANCH  21  22
ATOM     22  N   UNL     1       3.008   3.019  18.908  0.00  0.00    +0.000 NA
ATOM     23  C   UNL     1       1.714   2.319  18.820  0.00  0.00    +0.000 C 
ATOM     24  C   UNL     1       0.938   2.590  20.127  0.00  0.00    +0.000 C 
ATOM     25  O   UNL     1       1.669   2.160  21.287  0.00  0.00    +0.000 OA
ATOM     26  C   UNL     1       2.975   2.760  21.316  0.00  0.00    +0.000 C 
ATOM     27  C   UNL     1       3.753   2.424  20.037  0.00  0.00    +0.000 C 
ENDBRANCH  21  22
ENDBRANCH  20  21
ENDBRANCH  18  20
ENDBRANCH   3  16
TORSDOF 4
ENDMDL
