MODEL 1
REMARK VINA RESULT:      -9.1      0.000      0.000
REMARK  Name = 
REMARK  8 active torsions:
REMARK  status: ('A' for Active; 'I' for Inactive)
REMARK    1  A    between atoms: C_1  and  C_2
REMARK    2  A    between atoms: C_2  and  C_3
REMARK    3  A    between atoms: C_3  and  S_4
REMARK    4  A    between atoms: S_4  and  N_7
REMARK    5  A    between atoms: N_7  and  C_8
REMARK    6  A    between atoms: C_13  and  N_14
REMARK    7  A    between atoms: N_14  and  C_15
REMARK    8  A    between atoms: N_21  and  C_22
REMARK                            x       y       z     vdW  Elec       q    Type
REMARK                         _______ _______ _______ _____ _____    ______ ____
ROOT
ATOM      1  C   UNL     1       4.900   4.027  18.418  0.00  0.00    +0.000 A 
ATOM      2  C   UNL     1       4.071   3.099  17.792  0.00  0.00    +0.000 A 
ATOM      3  C   UNL     1       2.698   3.137  18.033  0.00  0.00    +0.000 A 
ATOM      4  C   UNL     1       2.164   4.099  18.891  0.00  0.00    +0.000 A 
ATOM      5  F   UNL     1       0.833   4.099  19.066  0.00  0.00    +0.000 F 
ATOM      6  C   UNL     1       2.962   5.061  19.522  0.00  0.00    +0.000 A 
ATOM      7  C   UNL     1       4.343   5.013  19.254  0.00  0.00    +0.000 A 
ATOM      8  F   UNL     1       5.163   5.899  19.846  0.00  0.00    +0.000 F 
ENDROOT
BRANCH   1   9
ATOM      9  N   UNL     1       6.313   3.988  18.148  0.00  0.00    +0.000 N 
ATOM     10  H   UNL     1       6.873   4.150  18.992  0.00  0.00    +0.000 HD
BRANCH   9  11
ATOM     11  S   UNL     1       6.875   5.097  16.981  0.00  0.00    +0.000 S 
ATOM     12  O   UNL     1       5.677   5.650  16.389  0.00  0.00    +0.000 OA
ATOM     13  O   UNL     1       7.911   4.476  16.186  0.00  0.00    +0.000 OA
BRANCH  11  14
ATOM     14  C   UNL     1       7.621   6.366  18.019  0.00  0.00    +0.000 C 
BRANCH  14  16
ATOM     15  C   UNL     1       8.272   8.812  18.095  0.00  0.00    +0.000 C 
ATOM     16  C   UNL     1       7.479   7.738  17.367  0.00  0.00    +0.000 C 
ENDBRANCH  14  16
ENDBRANCH  11  14
ENDBRANCH   9  11
ENDBRANCH   1   9
BRANCH   6  17
ATOM     17  N   UNL     1       2.436   5.996  20.444  0.00  0.00    +0.000 N 
ATOM     18  H   UNL     1       2.414   5.663  21.403  0.00  0.00    +0.000 HD
BRANCH  17  19
ATOM     19  C   UNL     1       1.897   7.281  20.232  0.00  0.00    +0.000 A 
ATOM     20  C   UNL     1       2.006   7.948  19.004  0.00  0.00    +0.000 A 
ATOM     21  C   UNL     1       1.483   9.235  18.821  0.00  0.00    +0.000 A 
ATOM     22  C   UNL     1       0.832   9.890  19.862  0.00  0.00    +0.000 A 
ATOM     23  N   UNL     1       0.294  11.164  19.628  0.00  0.00    +0.000 NA
ATOM     24  C   UNL     1      -0.345  11.728  20.596  0.00  0.00    +0.000 A 
ATOM     25  N   UNL     1      -0.524  11.182  21.842  0.00  0.00    +0.000 N 
ATOM     26  C   UNL     1      -1.289  11.890  22.847  0.00  0.00    +0.000 C 
ATOM     27  C   UNL     1       0.006   9.941  22.171  0.00  0.00    +0.000 A 
ATOM     28  O   UNL     1      -0.106   9.420  23.277  0.00  0.00    +0.000 OA
ATOM     29  C   UNL     1       0.727   9.239  21.090  0.00  0.00    +0.000 A 
ATOM     30  C   UNL     1       1.261   7.953  21.284  0.00  0.00    +0.000 A 
ENDBRANCH  17  19
ENDBRANCH   6  17
TORSDOF 6
ENDMDL
MODEL 2
REMARK VINA RESULT:      -9.0      1.722      2.269
REMARK  Name = 
REMARK  8 active torsions:
REMARK  status: ('A' for Active; 'I' for Inactive)
REMARK    1  A    between atoms: C_1  and  C_2
REMARK    2  A    between atoms: C_2  and  C_3
REMARK    3  A    between atoms: C_3  and  S_4
REMARK    4  A    between atoms: S_4  and  N_7
REMARK    5  A    between atoms: N_7  and  C_8
REMARK    6  A    between atoms: C_13  and  N_14
REMARK    7  A    between atoms: N_14  and  C_15
REMARK    8  A    between atoms: N_21  and  C_22
REMARK                            x       y       z     vdW  Elec       q    Type
REMARK                         _______ _______ _______ _____ _____    ______ ____
ROOT
ATOM      1  C   UNL     1       4.723   4.192  17.727  0.00  0.00    +0.000 A 
ATOM      2  C   UNL     1       3.803   3.223  17.332  0.00  0.00    +0.000 A 
ATOM      3  C   UNL     1       2.513   3.249  17.860  0.00  0.00    +0.000 A 
ATOM      4  C   UNL     1       2.150   4.240  18.773  0.00  0.00    +0.000 A 
ATOM      5  F   UNL     1       0.888   4.227  19.229  0.00  0.00    +0.000 F 
ATOM      6  C   UNL     1       3.040   5.243  19.178  0.00  0.00    +0.000 A 
ATOM      7  C   UNL     1       4.332   5.205  18.622  0.00  0.00    +0.000 A 
ATOM      8  F   UNL     1       5.237   6.130  18.988  0.00  0.00    +0.000 F 
ENDROOT
BRANCH   1   9
ATOM      9  N   UNL     1       6.046   4.163  17.161  0.00  0.00    +0.000 N 
ATOM     10  H   UNL     1       6.765   4.420  17.847  0.00  0.00    +0.000 HD
BRANCH   9  11
ATOM     11  S   UNL     1       6.296   5.169  15.808  0.00  0.00    +0.000 S 
ATOM     12  O   UNL     1       7.553   5.836  16.070  0.00  0.00    +0.000 OA
ATOM     13  O   UNL     1       5.082   5.900  15.519  0.00  0.00    +0.000 OA
BRANCH  11  14
ATOM     14  C   UNL     1       6.570   3.958  14.504  0.00  0.00    +0.000 C 
BRANCH  14  16
ATOM     15  C   UNL     1       5.797   3.245  12.200  0.00  0.00    +0.000 C 
ATOM     16  C   UNL     1       5.477   4.059  13.444  0.00  0.00    +0.000 C 
ENDBRANCH  14  16
ENDBRANCH  11  14
ENDBRANCH   9  11
ENDBRANCH   1   9
BRANCH   6  17
ATOM     17  N   UNL     1       2.700   6.210  20.152  0.00  0.00    +0.000 N 
ATOM     18  H   UNL     1       2.945   5.945  21.102  0.00  0.00    +0.000 HD
BRANCH  17  19
ATOM     19  C   UNL     1       2.035   7.445  20.018  0.00  0.00    +0.000 A 
ATOM     20  C   UNL     1       2.021   8.164  18.814  0.00  0.00    +0.000 A 
ATOM     21  C   UNL     1       1.373   9.401  18.707  0.00  0.00    +0.000 A 
ATOM     22  C   UNL     1       0.716   9.954  19.803  0.00  0.00    +0.000 A 
ATOM     23  N   UNL     1       0.052  11.179  19.645  0.00  0.00    +0.000 NA
ATOM     24  C   UNL     1      -0.587  11.646  20.663  0.00  0.00    +0.000 A 
ATOM     25  N   UNL     1      -0.653  11.041  21.893  0.00  0.00    +0.000 N 
ATOM     26  C   UNL     1      -1.430  11.637  22.960  0.00  0.00    +0.000 C 
ATOM     27  C   UNL     1       0.005   9.844  22.147  0.00  0.00    +0.000 A 
ATOM     28  O   UNL     1      -0.004   9.276  23.236  0.00  0.00    +0.000 OA
ATOM     29  C   UNL     1       0.733   9.253  21.007  0.00  0.00    +0.000 A 
ATOM     30  C   UNL     1       1.392   8.017  21.124  0.00  0.00    +0.000 A 
ENDBRANCH  17  19
ENDBRANCH   6  17
TORSDOF 6
ENDMDL
MODEL 3
REMARK VINA RESULT:      -8.6      1.065      1.154
REMARK  Name = 
REMARK  8 active torsions:
REMARK  status: ('A' for Active; 'I' for Inactive)
REMARK    1  A    between atoms: C_1  and  C_2
REMARK    2  A    between atoms: C_2  and  C_3
REMARK    3  A    between atoms: C_3  and  S_4
REMARK    4  A    between atoms: S_4  and  N_7
REMARK    5  A    between atoms: N_7  and  C_8
REMARK    6  A    between atoms: C_13  and  N_14
REMARK    7  A    between atoms: N_14  and  C_15
REMARK    8  A    between atoms: N_21  and  C_22
REMARK                            x       y       z     vdW  Elec       q    Type
REMARK                         _______ _______ _______ _____ _____    ______ ____
ROOT
ATOM      1  C   UNL     1       3.966   4.699  17.421  0.00  0.00    +0.000 A 
ATOM      2  C   UNL     1       3.245   3.511  17.495  0.00  0.00    +0.000 A 
ATOM      3  C   UNL     1       2.246   3.375  18.458  0.00  0.00    +0.000 A 
ATOM      4  C   UNL     1       1.973   4.425  19.336  0.00  0.00    +0.000 A 
ATOM      5  F   UNL     1       0.985   4.244  20.227  0.00  0.00    +0.000 F 
ATOM      6  C   UNL     1       2.663   5.643  19.279  0.00  0.00    +0.000 A 
ATOM      7  C   UNL     1       3.657   5.762  18.291  0.00  0.00    +0.000 A 
ATOM      8  F   UNL     1       4.367   6.900  18.201  0.00  0.00    +0.000 F 
ENDROOT
BRANCH   1   9
ATOM      9  N   UNL     1       4.984   4.832  16.412  0.00  0.00    +0.000 N 
ATOM     10  H   UNL     1       4.963   4.058  15.738  0.00  0.00    +0.000 HD
BRANCH   9  11
ATOM     11  S   UNL     1       6.587   4.927  16.983  0.00  0.00    +0.000 S 
ATOM     12  O   UNL     1       7.388   4.332  15.936  0.00  0.00    +0.000 OA
ATOM     13  O   UNL     1       6.640   4.463  18.351  0.00  0.00    +0.000 OA
BRANCH  11  14
ATOM     14  C   UNL     1       6.874   6.705  16.960  0.00  0.00    +0.000 C 
BRANCH  14  16
ATOM     15  C   UNL     1       8.221   8.573  18.012  0.00  0.00    +0.000 C 
ATOM     16  C   UNL     1       7.834   7.104  18.076  0.00  0.00    +0.000 C 
ENDBRANCH  14  16
ENDBRANCH  11  14
ENDBRANCH   9  11
ENDBRANCH   1   9
BRANCH   6  17
ATOM     17  N   UNL     1       2.437   6.685  20.208  0.00  0.00    +0.000 N 
ATOM     18  H   UNL     1       2.784   6.489  21.143  0.00  0.00    +0.000 HD
BRANCH  17  19
ATOM     19  C   UNL     1       1.769   7.916  20.053  0.00  0.00    +0.000 A 
ATOM     20  C   UNL     1       1.631   8.544  18.807  0.00  0.00    +0.000 A 
ATOM     21  C   UNL     1       0.983   9.779  18.677  0.00  0.00    +0.000 A 
ATOM     22  C   UNL     1       0.451  10.421  19.792  0.00  0.00    +0.000 A 
ATOM     23  N   UNL     1      -0.218  11.640  19.614  0.00  0.00    +0.000 NA
ATOM     24  C   UNL     1      -0.742  12.190  20.657  0.00  0.00    +0.000 A 
ATOM     25  N   UNL     1      -0.680  11.679  21.928  0.00  0.00    +0.000 N 
ATOM     26  C   UNL     1      -1.334  12.363  23.024  0.00  0.00    +0.000 C 
ATOM     27  C   UNL     1      -0.006  10.495  22.200  0.00  0.00    +0.000 A 
ATOM     28  O   UNL     1       0.098  10.009  23.323  0.00  0.00    +0.000 OA
ATOM     29  C   UNL     1       0.593   9.811  21.037  0.00  0.00    +0.000 A 
ATOM     30  C   UNL     1       1.252   8.577  21.176  0.00  0.00    +0.000 A 
ENDBRANCH  17  19
ENDBRANCH   6  17
TORSDOF 6
ENDMDL
MODEL 4
REMARK VINA RESULT:      -8.5      2.000      2.366
REMARK  Name = 
REMARK  8 active torsions:
REMARK  status: ('A' for Active; 'I' for Inactive)
REMARK    1  A    between atoms: C_1  and  C_2
REMARK    2  A    between atoms: C_2  and  C_3
REMARK    3  A    between atoms: C_3  and  S_4
REMARK    4  A    between atoms: S_4  and  N_7
REMARK    5  A    between atoms: N_7  and  C_8
REMARK    6  A    between atoms: C_13  and  N_14
REMARK    7  A    between atoms: N_14  and  C_15
REMARK    8  A    between atoms: N_21  and  C_22
REMARK                            x       y       z     vdW  Elec       q    Type
REMARK                         _______ _______ _______ _____ _____    ______ ____
ROOT
ATOM      1  C   UNL     1       3.683   5.112  17.477  0.00  0.00    +0.000 A 
ATOM      2  C   UNL     1       3.085   3.892  17.782  0.00  0.00    +0.000 A 
ATOM      3  C   UNL     1       2.251   3.799  18.896  0.00  0.00    +0.000 A 
ATOM      4  C   UNL     1       2.019   4.922  19.692  0.00  0.00    +0.000 A 
ATOM      5  F   UNL     1       1.189   4.776  20.737  0.00  0.00    +0.000 F 
ATOM      6  C   UNL     1       2.586   6.170  19.404  0.00  0.00    +0.000 A 
ATOM      7  C   UNL     1       3.413   6.243  18.269  0.00  0.00    +0.000 A 
ATOM      8  F   UNL     1       4.001   7.411  17.954  0.00  0.00    +0.000 F 
ENDROOT
BRANCH   1   9
ATOM      9  N   UNL     1       4.529   5.198  16.315  0.00  0.00    +0.000 N 
ATOM     10  H   UNL     1       4.365   4.426  15.659  0.00  0.00    +0.000 HD
BRANCH   9  11
ATOM     11  S   UNL     1       6.206   5.220  16.619  0.00  0.00    +0.000 S 
ATOM     12  O   UNL     1       6.372   4.450  17.832  0.00  0.00    +0.000 OA
ATOM     13  O   UNL     1       6.702   6.572  16.490  0.00  0.00    +0.000 OA
BRANCH  11  14
ATOM     14  C   UNL     1       6.834   4.237  15.246  0.00  0.00    +0.000 C 
BRANCH  14  16
ATOM     15  C   UNL     1       6.375   3.730  12.808  0.00  0.00    +0.000 C 
ATOM     16  C   UNL     1       5.777   4.112  14.153  0.00  0.00    +0.000 C 
ENDBRANCH  14  16
ENDBRANCH  11  14
ENDBRANCH   9  11
ENDBRANCH   1   9
BRANCH   6  17
ATOM     17  N   UNL     1       2.407   7.294  20.244  0.00  0.00    +0.000 N 
ATOM     18  H   UNL     1       2.982   7.279  21.083  0.00  0.00    +0.000 HD
BRANCH  17  19
ATOM     19  C   UNL     1       1.532   8.391  20.125  0.00  0.00    +0.000 A 
ATOM     20  C   UNL     1       1.203   8.960  18.886  0.00  0.00    +0.000 A 
ATOM     21  C   UNL     1       0.348  10.065  18.791  0.00  0.00    +0.000 A 
ATOM     22  C   UNL     1      -0.207  10.632  19.935  0.00  0.00    +0.000 A 
ATOM     23  N   UNL     1      -1.084  11.717  19.794  0.00  0.00    +0.000 NA
ATOM     24  C   UNL     1      -1.621  12.192  20.866  0.00  0.00    +0.000 A 
ATOM     25  N   UNL     1      -1.386  11.727  22.135  0.00  0.00    +0.000 N 
ATOM     26  C   UNL     1      -2.070  12.314  23.268  0.00  0.00    +0.000 C 
ATOM     27  C   UNL     1      -0.504  10.679  22.369  0.00  0.00    +0.000 A 
ATOM     28  O   UNL     1      -0.242  10.241  23.486  0.00  0.00    +0.000 OA
ATOM     29  C   UNL     1       0.121  10.081  21.172  0.00  0.00    +0.000 A 
ATOM     30  C   UNL     1       0.988   8.979  21.276  0.00  0.00    +0.000 A 
ENDBRANCH  17  19
ENDBRANCH   6  17
TORSDOF 6
ENDMDL
MODEL 5
REMARK VINA RESULT:      -8.4      0.959      1.044
REMARK  Name = 
REMARK  8 active torsions:
REMARK  status: ('A' for Active; 'I' for Inactive)
REMARK    1  A    between atoms: C_1  and  C_2
REMARK    2  A    between atoms: C_2  and  C_3
REMARK    3  A    between atoms: C_3  and  S_4
REMARK    4  A    between atoms: S_4  and  N_7
REMARK    5  A    between atoms: N_7  and  C_8
REMARK    6  A    between atoms: C_13  and  N_14
REMARK    7  A    between atoms: N_14  and  C_15
REMARK    8  A    between atoms: N_21  and  C_22
REMARK                            x       y       z     vdW  Elec       q    Type
REMARK                         _______ _______ _______ _____ _____    ______ ____
ROOT
ATOM      1  C   UNL     1       4.141   3.826  18.683  0.00  0.00    +0.000 A 
ATOM      2  C   UNL     1       3.227   2.787  18.536  0.00  0.00    +0.000 A 
ATOM      3  C   UNL     1       1.978   2.881  19.150  0.00  0.00    +0.000 A 
ATOM      4  C   UNL     1       1.652   4.010  19.902  0.00  0.00    +0.000 A 
ATOM      5  F   UNL     1       0.427   4.053  20.451  0.00  0.00    +0.000 F 
ATOM      6  C   UNL     1       2.537   5.085  20.056  0.00  0.00    +0.000 A 
ATOM      7  C   UNL     1       3.785   4.974  19.417  0.00  0.00    +0.000 A 
ATOM      8  F   UNL     1       4.684   5.965  19.544  0.00  0.00    +0.000 F 
ENDROOT
BRANCH   1   9
ATOM      9  N   UNL     1       5.420   3.723  18.030  0.00  0.00    +0.000 N 
ATOM     10  H   UNL     1       6.165   4.183  18.565  0.00  0.00    +0.000 HD
BRANCH   9  11
ATOM     11  S   UNL     1       5.499   4.362  16.452  0.00  0.00    +0.000 S 
ATOM     12  O   UNL     1       4.129   4.374  15.988  0.00  0.00    +0.000 OA
ATOM     13  O   UNL     1       6.556   3.704  15.717  0.00  0.00    +0.000 OA
BRANCH  11  14
ATOM     14  C   UNL     1       5.990   6.065  16.776  0.00  0.00    +0.000 C 
BRANCH  14  16
ATOM     15  C   UNL     1       7.732   7.488  17.937  0.00  0.00    +0.000 C 
ATOM     16  C   UNL     1       7.378   6.108  17.409  0.00  0.00    +0.000 C 
ENDBRANCH  14  16
ENDBRANCH  11  14
ENDBRANCH   9  11
ENDBRANCH   1   9
BRANCH   6  17
ATOM     17  N   UNL     1       2.238   6.202  20.871  0.00  0.00    +0.000 N 
ATOM     18  H   UNL     1       2.354   6.031  21.866  0.00  0.00    +0.000 HD
BRANCH  17  19
ATOM     19  C   UNL     1       1.761   7.482  20.525  0.00  0.00    +0.000 A 
ATOM     20  C   UNL     1       1.850   7.989  19.220  0.00  0.00    +0.000 A 
ATOM     21  C   UNL     1       1.391   9.274  18.901  0.00  0.00    +0.000 A 
ATOM     22  C   UNL     1       0.825  10.087  19.879  0.00  0.00    +0.000 A 
ATOM     23  N   UNL     1       0.348  11.353  19.511  0.00  0.00    +0.000 NA
ATOM     24  C   UNL     1      -0.214  12.067  20.427  0.00  0.00    +0.000 A 
ATOM     25  N   UNL     1      -0.365  11.687  21.737  0.00  0.00    +0.000 N 
ATOM     26  C   UNL     1      -1.043  12.555  22.676  0.00  0.00    +0.000 C 
ATOM     27  C   UNL     1       0.111  10.464  22.194  0.00  0.00    +0.000 A 
ATOM     28  O   UNL     1       0.020  10.088  23.360  0.00  0.00    +0.000 OA
ATOM     29  C   UNL     1       0.742   9.596  21.181  0.00  0.00    +0.000 A 
ATOM     30  C   UNL     1       1.212   8.313  21.510  0.00  0.00    +0.000 A 
ENDBRANCH  17  19
ENDBRANCH   6  17
TORSDOF 6
ENDMDL
MODEL 6
REMARK VINA RESULT:      -8.2      2.133      2.573
REMARK  Name = 
REMARK  8 active torsions:
REMARK  status: ('A' for Active; 'I' for Inactive)
REMARK    1  A    between atoms: C_1  and  C_2
REMARK    2  A    between atoms: C_2  and  C_3
REMARK    3  A    between atoms: C_3  and  S_4
REMARK    4  A    between atoms: S_4  and  N_7
REMARK    5  A    between atoms: N_7  and  C_8
REMARK    6  A    between atoms: C_13  and  N_14
REMARK    7  A    between atoms: N_14  and  C_15
REMARK    8  A    between atoms: N_21  and  C_22
REMARK                            x       y       z     vdW  Elec       q    Type
REMARK                         _______ _______ _______ _____ _____    ______ ____
ROOT
ATOM      1  C   UNL     1       4.607   5.595  16.760  0.00  0.00    +0.000 A 
ATOM      2  C   UNL     1       4.116   4.295  16.674  0.00  0.00    +0.000 A 
ATOM      3  C   UNL     1       3.157   3.863  17.589  0.00  0.00    +0.000 A 
ATOM      4  C   UNL     1       2.694   4.731  18.579  0.00  0.00    +0.000 A 
ATOM      5  F   UNL     1       1.754   4.266  19.418  0.00  0.00    +0.000 F 
ATOM      6  C   UNL     1       3.148   6.051  18.685  0.00  0.00    +0.000 A 
ATOM      7  C   UNL     1       4.106   6.469  17.743  0.00  0.00    +0.000 A 
ATOM      8  F   UNL     1       4.595   7.720  17.806  0.00  0.00    +0.000 F 
ENDROOT
BRANCH   1   9
ATOM      9  N   UNL     1       5.585   6.032  15.799  0.00  0.00    +0.000 N 
ATOM     10  H   UNL     1       5.163   6.245  14.888  0.00  0.00    +0.000 HD
BRANCH   9  11
ATOM     11  S   UNL     1       6.862   4.945  15.493  0.00  0.00    +0.000 S 
ATOM     12  O   UNL     1       7.162   4.356  16.780  0.00  0.00    +0.000 OA
ATOM     13  O   UNL     1       7.871   5.599  14.690  0.00  0.00    +0.000 OA
BRANCH  11  14
ATOM     14  C   UNL     1       6.040   3.696  14.489  0.00  0.00    +0.000 C 
BRANCH  14  16
ATOM     15  C   UNL     1       5.399   3.269  12.076  0.00  0.00    +0.000 C 
ATOM     16  C   UNL     1       6.442   3.841  13.024  0.00  0.00    +0.000 C 
ENDBRANCH  14  16
ENDBRANCH  11  14
ENDBRANCH   9  11
ENDBRANCH   1   9
BRANCH   6  17
ATOM     17  N   UNL     1       2.733   6.915  19.726  0.00  0.00    +0.000 N 
ATOM     18  H   UNL     1       3.082   6.653  20.644  0.00  0.00    +0.000 HD
BRANCH  17  19
ATOM     19  C   UNL     1       1.880   8.036  19.695  0.00  0.00    +0.000 A 
ATOM     20  C   UNL     1       1.508   8.664  18.498  0.00  0.00    +0.000 A 
ATOM     21  C   UNL     1       0.677   9.792  18.490  0.00  0.00    +0.000 A 
ATOM     22  C   UNL     1       0.191  10.322  19.682  0.00  0.00    +0.000 A 
ATOM     23  N   UNL     1      -0.664  11.432  19.628  0.00  0.00    +0.000 NA
ATOM     24  C   UNL     1      -1.138  11.873  20.744  0.00  0.00    +0.000 A 
ATOM     25  N   UNL     1      -0.855  11.349  21.979  0.00  0.00    +0.000 N 
ATOM     26  C   UNL     1      -1.470  11.903  23.168  0.00  0.00    +0.000 C 
ATOM     27  C   UNL     1       0.011  10.272  22.127  0.00  0.00    +0.000 A 
ATOM     28  O   UNL     1       0.313   9.781  23.211  0.00  0.00    +0.000 OA
ATOM     29  C   UNL     1       0.563   9.711  20.878  0.00  0.00    +0.000 A 
ATOM     30  C   UNL     1       1.406   8.587  20.893  0.00  0.00    +0.000 A 
ENDBRANCH  17  19
ENDBRANCH   6  17
TORSDOF 6
ENDMDL
MODEL 7
REMARK VINA RESULT:      -8.0      1.137      1.382
REMARK  Name = 
REMARK  8 active torsions:
REMARK  status: ('A' for Active; 'I' for Inactive)
REMARK    1  A    between atoms: C_1  and  C_2
REMARK    2  A    between atoms: C_2  and  C_3
REMARK    3  A    between atoms: C_3  and  S_4
REMARK    4  A    between atoms: S_4  and  N_7
REMARK    5  A    between atoms: N_7  and  C_8
REMARK    6  A    between atoms: C_13  and  N_14
REMARK    7  A    between atoms: N_14  and  C_15
REMARK    8  A    between atoms: N_21  and  C_22
REMARK                            x       y       z     vdW  Elec       q    Type
REMARK                         _______ _______ _______ _____ _____    ______ ____
ROOT
ATOM      1  C   UNL     1       4.957   4.011  18.544  0.00  0.00    +0.000 A 
ATOM      2  C   UNL     1       4.153   3.209  17.738  0.00  0.00    +0.000 A 
ATOM      3  C   UNL     1       2.770   3.389  17.757  0.00  0.00    +0.000 A 
ATOM      4  C   UNL     1       2.203   4.367  18.575  0.00  0.00    +0.000 A 
ATOM      5  F   UNL     1       0.868   4.507  18.533  0.00  0.00    +0.000 F 
ATOM      6  C   UNL     1       2.980   5.205  19.383  0.00  0.00    +0.000 A 
ATOM      7  C   UNL     1       4.373   5.015  19.339  0.00  0.00    +0.000 A 
ATOM      8  F   UNL     1       5.170   5.777  20.108  0.00  0.00    +0.000 F 
ENDROOT
BRANCH   1   9
ATOM      9  N   UNL     1       6.384   3.826  18.503  0.00  0.00    +0.000 N 
ATOM     10  H   UNL     1       6.804   3.849  19.439  0.00  0.00    +0.000 HD
BRANCH   9  11
ATOM     11  S   UNL     1       7.250   4.953  17.562  0.00  0.00    +0.000 S 
ATOM     12  O   UNL     1       8.226   4.162  16.844  0.00  0.00    +0.000 OA
ATOM     13  O   UNL     1       7.627   6.080  18.384  0.00  0.00    +0.000 OA
BRANCH  11  14
ATOM     14  C   UNL     1       5.993   5.484  16.387  0.00  0.00    +0.000 C 
BRANCH  14  16
ATOM     15  C   UNL     1       4.177   7.250  16.413  0.00  0.00    +0.000 C 
ATOM     16  C   UNL     1       5.659   6.959  16.595  0.00  0.00    +0.000 C 
ENDBRANCH  14  16
ENDBRANCH  11  14
ENDBRANCH   9  11
ENDBRANCH   1   9
BRANCH   6  17
ATOM     17  N   UNL     1       2.407   6.152  20.264  0.00  0.00    +0.000 N 
ATOM     18  H   UNL     1       2.310   5.822  21.220  0.00  0.00    +0.000 HD
BRANCH  17  19
ATOM     19  C   UNL     1       1.909   7.446  20.013  0.00  0.00    +0.000 A 
ATOM     20  C   UNL     1       1.930   8.025  18.736  0.00  0.00    +0.000 A 
ATOM     21  C   UNL     1       1.451   9.322  18.512  0.00  0.00    +0.000 A 
ATOM     22  C   UNL     1       0.933  10.078  19.560  0.00  0.00    +0.000 A 
ATOM     23  N   UNL     1       0.434  11.359  19.287  0.00  0.00    +0.000 NA
ATOM     24  C   UNL     1      -0.083  12.018  20.268  0.00  0.00    +0.000 A 
ATOM     25  N   UNL     1      -0.167  11.566  21.561  0.00  0.00    +0.000 N 
ATOM     26  C   UNL     1      -0.800  12.377  22.580  0.00  0.00    +0.000 C 
ATOM     27  C   UNL     1       0.335  10.323  21.926  0.00  0.00    +0.000 A 
ATOM     28  O   UNL     1       0.305   9.883  23.072  0.00  0.00    +0.000 OA
ATOM     29  C   UNL     1       0.917   9.516  20.836  0.00  0.00    +0.000 A 
ATOM     30  C   UNL     1       1.407   8.219  21.070  0.00  0.00    +0.000 A 
ENDBRANCH  17  19
ENDBRANCH   6  17
TORSDOF 6
ENDMDL
MODEL 8
REMARK VINA RESULT:      -8.0      2.291      2.962
REMARK  Name = 
REMARK  8 active torsions:
REMARK  status: ('A' for Active; 'I' for Inactive)
REMARK    1  A    between atoms: C_1  and  C_2
REMARK    2  A    between atoms: C_2  and  C_3
REMARK    3  A    between atoms: C_3  and  S_4
REMARK    4  A    between atoms: S_4  and  N_7
REMARK    5  A    between atoms: N_7  and  C_8
REMARK    6  A    between atoms: C_13  and  N_14
REMARK    7  A    between atoms: N_14  and  C_15
REMARK    8  A    between atoms: N_21  and  C_22
REMARK                            x       y       z     vdW  Elec       q    Type
REMARK                         _______ _______ _______ _____ _____    ______ ____
ROOT
ATOM      1  C   UNL     1       3.828   5.075  17.211  0.00  0.00    +0.000 A 
ATOM      2  C   UNL     1       3.169   3.848  17.238  0.00  0.00    +0.000 A 
ATOM      3  C   UNL     1       2.299   3.562  18.290  0.00  0.00    +0.000 A 
ATOM      4  C   UNL     1       2.092   4.500  19.302  0.00  0.00    +0.000 A 
ATOM      5  F   UNL     1       1.227   4.176  20.276  0.00  0.00    +0.000 F 
ATOM      6  C   UNL     1       2.721   5.751  19.299  0.00  0.00    +0.000 A 
ATOM      7  C   UNL     1       3.583   6.024  18.221  0.00  0.00    +0.000 A 
ATOM      8  F   UNL     1       4.230   7.202  18.174  0.00  0.00    +0.000 F 
ENDROOT
BRANCH   1   9
ATOM      9  N   UNL     1       4.710   5.364  16.111  0.00  0.00    +0.000 N 
ATOM     10  H   UNL     1       4.562   4.729  15.319  0.00  0.00    +0.000 HD
BRANCH   9  11
ATOM     11  S   UNL     1       6.377   5.309  16.464  0.00  0.00    +0.000 S 
ATOM     12  O   UNL     1       6.495   4.354  17.543  0.00  0.00    +0.000 OA
ATOM     13  O   UNL     1       6.894   6.655  16.566  0.00  0.00    +0.000 OA
BRANCH  11  14
ATOM     14  C   UNL     1       7.036   4.545  14.971  0.00  0.00    +0.000 C 
BRANCH  14  16
ATOM     15  C   UNL     1       6.371   3.682  12.686  0.00  0.00    +0.000 C 
ATOM     16  C   UNL     1       5.901   4.038  14.087  0.00  0.00    +0.000 C 
ENDBRANCH  14  16
ENDBRANCH  11  14
ENDBRANCH   9  11
ENDBRANCH   1   9
BRANCH   6  17
ATOM     17  N   UNL     1       2.567   6.679  20.355  0.00  0.00    +0.000 N 
ATOM     18  H   UNL     1       3.175   6.505  21.150  0.00  0.00    +0.000 HD
BRANCH  17  19
ATOM     19  C   UNL     1       1.676   7.762  20.495  0.00  0.00    +0.000 A 
ATOM     20  C   UNL     1       0.639   7.765  21.439  0.00  0.00    +0.000 A 
ATOM     21  C   UNL     1      -0.251   8.842  21.546  0.00  0.00    +0.000 A 
ATOM     22  C   UNL     1      -0.125   9.951  20.714  0.00  0.00    +0.000 A 
ATOM     23  N   UNL     1      -1.015  11.021  20.877  0.00  0.00    +0.000 NA
ATOM     24  C   UNL     1      -0.846  12.056  20.124  0.00  0.00    +0.000 A 
ATOM     25  N   UNL     1       0.128  12.179  19.167  0.00  0.00    +0.000 N 
ATOM     26  C   UNL     1       0.249  13.402  18.400  0.00  0.00    +0.000 C 
ATOM     27  C   UNL     1       1.030  11.152  18.915  0.00  0.00    +0.000 A 
ATOM     28  O   UNL     1       1.904  11.206  18.055  0.00  0.00    +0.000 OA
ATOM     29  C   UNL     1       0.897   9.953  19.766  0.00  0.00    +0.000 A 
ATOM     30  C   UNL     1       1.785   8.871  19.645  0.00  0.00    +0.000 A 
ENDBRANCH  17  19
ENDBRANCH   6  17
TORSDOF 6
ENDMDL
MODEL 9
REMARK VINA RESULT:      -7.9      1.798      2.393
REMARK  Name = 
REMARK  8 active torsions:
REMARK  status: ('A' for Active; 'I' for Inactive)
REMARK    1  A    between atoms: C_1  and  C_2
REMARK    2  A    between atoms: C_2  and  C_3
REMARK    3  A    between atoms: C_3  and  S_4
REMARK    4  A    between atoms: S_4  and  N_7
REMARK    5  A    between atoms: N_7  and  C_8
REMARK    6  A    between atoms: C_13  and  N_14
REMARK    7  A    between atoms: N_14  and  C_15
REMARK    8  A    between atoms: N_21  and  C_22
REMARK                            x       y       z     vdW  Elec       q    Type
REMARK                         _______ _______ _______ _____ _____    ______ ____
ROOT
ATOM      1  C   UNL     1       3.440   5.001  17.664  0.00  0.00    +0.000 A 
ATOM      2  C   UNL     1       2.674   3.841  17.580  0.00  0.00    +0.000 A 
ATOM      3  C   UNL     1       1.694   3.598  18.541  0.00  0.00    +0.000 A 
ATOM      4  C   UNL     1       1.482   4.514  19.573  0.00  0.00    +0.000 A 
ATOM      5  F   UNL     1       0.509   4.236  20.455  0.00  0.00    +0.000 F 
ATOM      6  C   UNL     1       2.218   5.701  19.678  0.00  0.00    +0.000 A 
ATOM      7  C   UNL     1       3.193   5.931  18.690  0.00  0.00    +0.000 A 
ATOM      8  F   UNL     1       3.945   7.045  18.750  0.00  0.00    +0.000 F 
ENDROOT
BRANCH   1   9
ATOM      9  N   UNL     1       4.438   5.247  16.656  0.00  0.00    +0.000 N 
ATOM     10  H   UNL     1       4.113   4.988  15.718  0.00  0.00    +0.000 HD
BRANCH   9  11
ATOM     11  S   UNL     1       5.930   4.452  16.881  0.00  0.00    +0.000 S 
ATOM     12  O   UNL     1       5.978   3.454  15.834  0.00  0.00    +0.000 OA
ATOM     13  O   UNL     1       6.091   4.113  18.277  0.00  0.00    +0.000 OA
BRANCH  11  14
ATOM     14  C   UNL     1       7.100   5.755  16.460  0.00  0.00    +0.000 C 
BRANCH  14  16
ATOM     15  C   UNL     1       7.983   7.332  18.233  0.00  0.00    +0.000 C 
ATOM     16  C   UNL     1       6.831   7.002  17.297  0.00  0.00    +0.000 C 
ENDBRANCH  14  16
ENDBRANCH  11  14
ENDBRANCH   9  11
ENDBRANCH   1   9
BRANCH   6  17
ATOM     17  N   UNL     1       2.055   6.600  20.758  0.00  0.00    +0.000 N 
ATOM     18  H   UNL     1       2.531   6.315  21.609  0.00  0.00    +0.000 HD
BRANCH  17  19
ATOM     19  C   UNL     1       1.303   7.788  20.849  0.00  0.00    +0.000 A 
ATOM     20  C   UNL     1       0.293   7.967  21.805  0.00  0.00    +0.000 A 
ATOM     21  C   UNL     1      -0.459   9.147  21.864  0.00  0.00    +0.000 A 
ATOM     22  C   UNL     1      -0.219  10.186  20.970  0.00  0.00    +0.000 A 
ATOM     23  N   UNL     1      -0.972  11.363  21.084  0.00  0.00    +0.000 NA
ATOM     24  C   UNL     1      -0.696  12.328  20.273  0.00  0.00    +0.000 A 
ATOM     25  N   UNL     1       0.267  12.282  19.297  0.00  0.00    +0.000 N 
ATOM     26  C   UNL     1       0.517  13.438  18.461  0.00  0.00    +0.000 C 
ATOM     27  C   UNL     1       1.034  11.142  19.091  0.00  0.00    +0.000 A 
ATOM     28  O   UNL     1       1.891  11.043  18.217  0.00  0.00    +0.000 OA
ATOM     29  C   UNL     1       0.776  10.015  20.009  0.00  0.00    +0.000 A 
ATOM     30  C   UNL     1       1.526   8.828  19.936  0.00  0.00    +0.000 A 
ENDBRANCH  17  19
ENDBRANCH   6  17
TORSDOF 6
ENDMDL
