MODEL 1
REMARK VINA RESULT:      -7.7      0.000      0.000
REMARK  Name = 
REMARK  7 active torsions:
REMARK  status: ('A' for Active; 'I' for Inactive)
REMARK    1  A    between atoms: C_1  and  C_2
REMARK    2  A    between atoms: C_2  and  N_3
REMARK    3  A    between atoms: C_2  and  C_16
REMARK    4  A    between atoms: N_3  and  C_4
REMARK    5  A    between atoms: C_4  and  C_5
REMARK    6  A    between atoms: C_8  and  C_9
REMARK    7  A    between atoms: C_19  and  N_20
REMARK                            x       y       z     vdW  Elec       q    Type
REMARK                         _______ _______ _______ _____ _____    ______ ____
ROOT
ATOM      1  N   UNL     1       3.258   4.152  19.069  0.00  0.00    +0.000 NA
ATOM      2  H   UNL     1       3.180   4.706  18.218  0.00  0.00    +0.000 HD
ENDROOT
BRANCH   1   4
ATOM      3  C   UNL     1       1.044   3.940  20.100  0.00  0.00    +0.000 C 
ATOM      4  C   UNL     1       2.372   4.707  20.104  0.00  0.00    +0.000 C 
BRANCH   4   5
ATOM      5  C   UNL     1       2.117   6.192  19.917  0.00  0.00    +0.000 A 
ATOM      6  C   UNL     1       2.374   6.802  18.683  0.00  0.00    +0.000 A 
ATOM      7  C   UNL     1       2.065   8.150  18.474  0.00  0.00    +0.000 A 
ATOM      8  C   UNL     1       1.496   8.910  19.503  0.00  0.00    +0.000 A 
ATOM      9  C   UNL     1       1.258   8.311  20.746  0.00  0.00    +0.000 A 
ATOM     10  C   UNL     1       1.565   6.965  20.948  0.00  0.00    +0.000 A 
BRANCH   8  11
ATOM     11  N   UNL     1       1.144  10.274  19.292  0.00  0.00    +0.000 N 
ATOM     12  C   UNL     1       1.799  11.198  18.503  0.00  0.00    +0.000 A 
ATOM     13  C   UNL     1       1.079  12.364  18.602  0.00  0.00    +0.000 A 
ATOM     14  N   UNL     1       0.004  12.204  19.426  0.00  0.00    +0.000 NA
ATOM     15  C   UNL     1       0.066  10.950  19.823  0.00  0.00    +0.000 A 
ENDBRANCH   8  11
ENDBRANCH   4   5
ENDBRANCH   1   4
BRANCH   1  16
ATOM     16  C   UNL     1       4.665   4.136  19.480  0.00  0.00    +0.000 C 
BRANCH  16  17
ATOM     17  C   UNL     1       5.545   4.417  18.297  0.00  0.00    +0.000 A 
ATOM     18  C   UNL     1       6.794   4.997  18.275  0.00  0.00    +0.000 A 
ATOM     19  C   UNL     1       7.328   5.079  16.956  0.00  0.00    +0.000 A 
ATOM     20  C   UNL     1       6.477   4.559  15.994  0.00  0.00    +0.000 A 
ATOM     21  S   UNL     1       5.019   4.011  16.722  0.00  0.00    +0.000 S 
BRANCH  20  22
ATOM     22  C   UNL     1       6.677   4.465  14.535  0.00  0.00    +0.000 A 
ATOM     23  C   UNL     1       7.648   5.230  13.866  0.00  0.00    +0.000 A 
ATOM     24  C   UNL     1       7.819   5.130  12.482  0.00  0.00    +0.000 A 
ATOM     25  C   UNL     1       7.017   4.268  11.740  0.00  0.00    +0.000 A 
ATOM     26  C   UNL     1       6.044   3.506  12.382  0.00  0.00    +0.000 A 
ATOM     27  C   UNL     1       5.876   3.604  13.767  0.00  0.00    +0.000 A 
ENDBRANCH  20  22
ENDBRANCH  16  17
ENDBRANCH   1  16
TORSDOF 6
ENDMDL
MODEL 2
REMARK VINA RESULT:      -7.7      1.107      1.902
REMARK  Name = 
REMARK  7 active torsions:
REMARK  status: ('A' for Active; 'I' for Inactive)
REMARK    1  A    between atoms: C_1  and  C_2
REMARK    2  A    between atoms: C_2  and  N_3
REMARK    3  A    between atoms: C_2  and  C_16
REMARK    4  A    between atoms: N_3  and  C_4
REMARK    5  A    between atoms: C_4  and  C_5
REMARK    6  A    between atoms: C_8  and  C_9
REMARK    7  A    between atoms: C_19  and  N_20
REMARK                            x       y       z     vdW  Elec       q    Type
REMARK                         _______ _______ _______ _____ _____    ______ ____
ROOT
ATOM      1  N   UNL     1       3.531   5.578  20.168  0.00  0.00    +0.000 NA
ATOM      2  H   UNL     1       4.128   5.295  20.943  0.00  0.00    +0.000 HD
ENDROOT
BRANCH   1   4
ATOM      3  C   UNL     1       1.205   4.804  20.187  0.00  0.00    +0.000 C 
ATOM      4  C   UNL     1       2.182   5.884  20.667  0.00  0.00    +0.000 C 
BRANCH   4   5
ATOM      5  C   UNL     1       1.698   7.256  20.232  0.00  0.00    +0.000 A 
ATOM      6  C   UNL     1       0.932   8.042  21.103  0.00  0.00    +0.000 A 
ATOM      7  C   UNL     1       0.551   9.339  20.746  0.00  0.00    +0.000 A 
ATOM      8  C   UNL     1       0.930   9.869  19.507  0.00  0.00    +0.000 A 
ATOM      9  C   UNL     1       1.677   9.080  18.624  0.00  0.00    +0.000 A 
ATOM     10  C   UNL     1       2.057   7.788  18.986  0.00  0.00    +0.000 A 
BRANCH   8  11
ATOM     11  N   UNL     1       0.579  11.202  19.146  0.00  0.00    +0.000 N 
ATOM     12  C   UNL     1      -0.673  11.781  19.191  0.00  0.00    +0.000 A 
ATOM     13  C   UNL     1      -0.509  13.078  18.767  0.00  0.00    +0.000 A 
ATOM     14  N   UNL     1       0.795  13.327  18.455  0.00  0.00    +0.000 NA
ATOM     15  C   UNL     1       1.421  12.194  18.691  0.00  0.00    +0.000 A 
ENDBRANCH   8  11
ENDBRANCH   4   5
ENDBRANCH   1   4
BRANCH   1  16
ATOM     16  C   UNL     1       3.533   4.504  19.169  0.00  0.00    +0.000 C 
BRANCH  16  17
ATOM     17  C   UNL     1       4.318   4.930  17.963  0.00  0.00    +0.000 A 
ATOM     18  C   UNL     1       4.944   6.135  17.729  0.00  0.00    +0.000 A 
ATOM     19  C   UNL     1       5.611   6.160  16.469  0.00  0.00    +0.000 A 
ATOM     20  C   UNL     1       5.482   4.975  15.764  0.00  0.00    +0.000 A 
ATOM     21  S   UNL     1       4.513   3.861  16.644  0.00  0.00    +0.000 S 
BRANCH  20  22
ATOM     22  C   UNL     1       6.028   4.623  14.439  0.00  0.00    +0.000 A 
ATOM     23  C   UNL     1       5.409   3.673  13.608  0.00  0.00    +0.000 A 
ATOM     24  C   UNL     1       5.944   3.348  12.358  0.00  0.00    +0.000 A 
ATOM     25  C   UNL     1       7.113   3.963  11.919  0.00  0.00    +0.000 A 
ATOM     26  C   UNL     1       7.746   4.901  12.729  0.00  0.00    +0.000 A 
ATOM     27  C   UNL     1       7.208   5.228  13.977  0.00  0.00    +0.000 A 
ENDBRANCH  20  22
ENDBRANCH  16  17
ENDBRANCH   1  16
TORSDOF 6
ENDMDL
MODEL 3
REMARK VINA RESULT:      -7.6      3.711     10.205
REMARK  Name = 
REMARK  7 active torsions:
REMARK  status: ('A' for Active; 'I' for Inactive)
REMARK    1  A    between atoms: C_1  and  C_2
REMARK    2  A    between atoms: C_2  and  N_3
REMARK    3  A    between atoms: C_2  and  C_16
REMARK    4  A    between atoms: N_3  and  C_4
REMARK    5  A    between atoms: C_4  and  C_5
REMARK    6  A    between atoms: C_8  and  C_9
REMARK    7  A    between atoms: C_19  and  N_20
REMARK                            x       y       z     vdW  Elec       q    Type
REMARK                         _______ _______ _______ _____ _____    ______ ____
ROOT
ATOM      1  N   UNL     1       2.092   7.457  20.665  0.00  0.00    +0.000 NA
ATOM      2  H   UNL     1       3.094   7.631  20.614  0.00  0.00    +0.000 HD
ENDROOT
BRANCH   1   4
ATOM      3  C   UNL     1       1.789   5.041  20.949  0.00  0.00    +0.000 C 
ATOM      4  C   UNL     1       1.770   6.210  19.955  0.00  0.00    +0.000 C 
BRANCH   4   5
ATOM      5  C   UNL     1       2.720   5.932  18.804  0.00  0.00    +0.000 A 
ATOM      6  C   UNL     1       3.466   6.974  18.240  0.00  0.00    +0.000 A 
ATOM      7  C   UNL     1       4.406   6.716  17.236  0.00  0.00    +0.000 A 
ATOM      8  C   UNL     1       4.610   5.409  16.780  0.00  0.00    +0.000 A 
ATOM      9  C   UNL     1       3.850   4.367  17.325  0.00  0.00    +0.000 A 
ATOM     10  C   UNL     1       2.917   4.629  18.328  0.00  0.00    +0.000 A 
BRANCH   8  11
ATOM     11  N   UNL     1       5.589   5.129  15.783  0.00  0.00    +0.000 N 
ATOM     12  C   UNL     1       5.430   4.370  14.641  0.00  0.00    +0.000 A 
ATOM     13  C   UNL     1       6.640   4.405  13.990  0.00  0.00    +0.000 A 
ATOM     14  N   UNL     1       7.546   5.150  14.683  0.00  0.00    +0.000 NA
ATOM     15  C   UNL     1       6.894   5.570  15.747  0.00  0.00    +0.000 A 
ENDBRANCH   8  11
ENDBRANCH   4   5
ENDBRANCH   1   4
BRANCH   1  16
ATOM     16  C   UNL     1       1.393   8.620  20.107  0.00  0.00    +0.000 C 
BRANCH  16  17
ATOM     17  C   UNL     1       0.561   9.273  21.171  0.00  0.00    +0.000 A 
ATOM     18  C   UNL     1       0.147   8.752  22.377  0.00  0.00    +0.000 A 
ATOM     19  C   UNL     1      -0.618   9.686  23.135  0.00  0.00    +0.000 A 
ATOM     20  C   UNL     1      -0.774  10.905  22.495  0.00  0.00    +0.000 A 
ATOM     21  S   UNL     1      -0.009  10.870  20.955  0.00  0.00    +0.000 S 
BRANCH  20  22
ATOM     22  C   UNL     1      -1.491  12.109  22.958  0.00  0.00    +0.000 A 
ATOM     23  C   UNL     1      -0.893  13.380  22.950  0.00  0.00    +0.000 A 
ATOM     24  C   UNL     1      -1.586  14.508  23.398  0.00  0.00    +0.000 A 
ATOM     25  C   UNL     1      -2.890  14.384  23.868  0.00  0.00    +0.000 A 
ATOM     26  C   UNL     1      -3.500  13.132  23.891  0.00  0.00    +0.000 A 
ATOM     27  C   UNL     1      -2.806  12.006  23.440  0.00  0.00    +0.000 A 
ENDBRANCH  20  22
ENDBRANCH  16  17
ENDBRANCH   1  16
TORSDOF 6
ENDMDL
MODEL 4
REMARK VINA RESULT:      -7.6      0.997      1.509
REMARK  Name = 
REMARK  7 active torsions:
REMARK  status: ('A' for Active; 'I' for Inactive)
REMARK    1  A    between atoms: C_1  and  C_2
REMARK    2  A    between atoms: C_2  and  N_3
REMARK    3  A    between atoms: C_2  and  C_16
REMARK    4  A    between atoms: N_3  and  C_4
REMARK    5  A    between atoms: C_4  and  C_5
REMARK    6  A    between atoms: C_8  and  C_9
REMARK    7  A    between atoms: C_19  and  N_20
REMARK                            x       y       z     vdW  Elec       q    Type
REMARK                         _______ _______ _______ _____ _____    ______ ____
ROOT
ATOM      1  N   UNL     1       3.196   5.414  19.122  0.00  0.00    +0.000 NA
ATOM      2  H   UNL     1       3.132   6.109  18.381  0.00  0.00    +0.000 HD
ENDROOT
BRANCH   1   4
ATOM      3  C   UNL     1       1.303   4.906  20.594  0.00  0.00    +0.000 C 
ATOM      4  C   UNL     1       2.452   5.878  20.303  0.00  0.00    +0.000 C 
BRANCH   4   5
ATOM      5  C   UNL     1       1.913   7.288  20.134  0.00  0.00    +0.000 A 
ATOM      6  C   UNL     1       2.036   7.947  18.904  0.00  0.00    +0.000 A 
ATOM      7  C   UNL     1       1.470   9.211  18.712  0.00  0.00    +0.000 A 
ATOM      8  C   UNL     1       0.774   9.838  19.752  0.00  0.00    +0.000 A 
ATOM      9  C   UNL     1       0.667   9.193  20.991  0.00  0.00    +0.000 A 
ATOM     10  C   UNL     1       1.231   7.930  21.176  0.00  0.00    +0.000 A 
BRANCH   8  11
ATOM     11  N   UNL     1       0.163  11.110  19.558  0.00  0.00    +0.000 N 
ATOM     12  C   UNL     1       0.151  12.177  20.433  0.00  0.00    +0.000 A 
ATOM     13  C   UNL     1      -0.541  13.181  19.800  0.00  0.00    +0.000 A 
ATOM     14  N   UNL     1      -0.966  12.779  18.569  0.00  0.00    +0.000 NA
ATOM     15  C   UNL     1      -0.533  11.542  18.449  0.00  0.00    +0.000 A 
ENDBRANCH   8  11
ENDBRANCH   4   5
ENDBRANCH   1   4
BRANCH   1  16
ATOM     16  C   UNL     1       4.615   5.174  19.407  0.00  0.00    +0.000 C 
BRANCH  16  17
ATOM     17  C   UNL     1       5.421   5.331  18.151  0.00  0.00    +0.000 A 
ATOM     18  C   UNL     1       6.530   6.118  17.935  0.00  0.00    +0.000 A 
ATOM     19  C   UNL     1       7.036   5.986  16.609  0.00  0.00    +0.000 A 
ATOM     20  C   UNL     1       6.303   5.101  15.835  0.00  0.00    +0.000 A 
ATOM     21  S   UNL     1       4.983   4.472  16.739  0.00  0.00    +0.000 S 
BRANCH  20  22
ATOM     22  C   UNL     1       6.517   4.705  14.429  0.00  0.00    +0.000 A 
ATOM     23  C   UNL     1       5.718   3.735  13.801  0.00  0.00    +0.000 A 
ATOM     24  C   UNL     1       5.938   3.369  12.470  0.00  0.00    +0.000 A 
ATOM     25  C   UNL     1       6.968   3.962  11.745  0.00  0.00    +0.000 A 
ATOM     26  C   UNL     1       7.777   4.920  12.351  0.00  0.00    +0.000 A 
ATOM     27  C   UNL     1       7.552   5.288  13.681  0.00  0.00    +0.000 A 
ENDBRANCH  20  22
ENDBRANCH  16  17
ENDBRANCH   1  16
TORSDOF 6
ENDMDL
MODEL 5
REMARK VINA RESULT:      -7.5      0.469      1.054
REMARK  Name = 
REMARK  7 active torsions:
REMARK  status: ('A' for Active; 'I' for Inactive)
REMARK    1  A    between atoms: C_1  and  C_2
REMARK    2  A    between atoms: C_2  and  N_3
REMARK    3  A    between atoms: C_2  and  C_16
REMARK    4  A    between atoms: N_3  and  C_4
REMARK    5  A    between atoms: C_4  and  C_5
REMARK    6  A    between atoms: C_8  and  C_9
REMARK    7  A    between atoms: C_19  and  N_20
REMARK                            x       y       z     vdW  Elec       q    Type
REMARK                         _______ _______ _______ _____ _____    ______ ____
ROOT
ATOM      1  N   UNL     1       3.441   4.532  19.241  0.00  0.00    +0.000 NA
ATOM      2  H   UNL     1       3.304   5.042  18.370  0.00  0.00    +0.000 HD
ENDROOT
BRANCH   1   4
ATOM      3  C   UNL     1       1.446   4.233  20.634  0.00  0.00    +0.000 C 
ATOM      4  C   UNL     1       2.634   5.145  20.307  0.00  0.00    +0.000 C 
BRANCH   4   5
ATOM      5  C   UNL     1       2.141   6.533  19.938  0.00  0.00    +0.000 A 
ATOM      6  C   UNL     1       1.624   7.383  20.924  0.00  0.00    +0.000 A 
ATOM      7  C   UNL     1       1.245   8.692  20.611  0.00  0.00    +0.000 A 
ATOM      8  C   UNL     1       1.374   9.170  19.302  0.00  0.00    +0.000 A 
ATOM      9  C   UNL     1       1.869   8.317  18.307  0.00  0.00    +0.000 A 
ATOM     10  C   UNL     1       2.250   7.013  18.626  0.00  0.00    +0.000 A 
BRANCH   8  11
ATOM     11  N   UNL     1       1.025  10.513  18.978  0.00  0.00    +0.000 N 
ATOM     12  C   UNL     1       1.881  11.561  18.709  0.00  0.00    +0.000 A 
ATOM     13  C   UNL     1       1.082  12.645  18.435  0.00  0.00    +0.000 A 
ATOM     14  N   UNL     1      -0.237  12.314  18.529  0.00  0.00    +0.000 NA
ATOM     15  C   UNL     1      -0.244  11.039  18.852  0.00  0.00    +0.000 A 
ENDBRANCH   8  11
ENDBRANCH   4   5
ENDBRANCH   1   4
BRANCH   1  16
ATOM     16  C   UNL     1       4.875   4.526  19.551  0.00  0.00    +0.000 C 
BRANCH  16  17
ATOM     17  C   UNL     1       5.664   4.837  18.313  0.00  0.00    +0.000 A 
ATOM     18  C   UNL     1       6.764   5.655  18.180  0.00  0.00    +0.000 A 
ATOM     19  C   UNL     1       7.256   5.685  16.843  0.00  0.00    +0.000 A 
ATOM     20  C   UNL     1       6.523   4.890  15.977  0.00  0.00    +0.000 A 
ATOM     21  S   UNL     1       5.218   4.146  16.815  0.00  0.00    +0.000 S 
BRANCH  20  22
ATOM     22  C   UNL     1       6.723   4.664  14.533  0.00  0.00    +0.000 A 
ATOM     23  C   UNL     1       7.630   5.428  13.779  0.00  0.00    +0.000 A 
ATOM     24  C   UNL     1       7.803   5.202  12.410  0.00  0.00    +0.000 A 
ATOM     25  C   UNL     1       7.065   4.212  11.769  0.00  0.00    +0.000 A 
ATOM     26  C   UNL     1       6.154   3.449  12.495  0.00  0.00    +0.000 A 
ATOM     27  C   UNL     1       5.986   3.673  13.864  0.00  0.00    +0.000 A 
ENDBRANCH  20  22
ENDBRANCH  16  17
ENDBRANCH   1  16
TORSDOF 6
ENDMDL
MODEL 6
REMARK VINA RESULT:      -7.5      0.941      1.489
REMARK  Name = 
REMARK  7 active torsions:
REMARK  status: ('A' for Active; 'I' for Inactive)
REMARK    1  A    between atoms: C_1  and  C_2
REMARK    2  A    between atoms: C_2  and  N_3
REMARK    3  A    between atoms: C_2  and  C_16
REMARK    4  A    between atoms: N_3  and  C_4
REMARK    5  A    between atoms: C_4  and  C_5
REMARK    6  A    between atoms: C_8  and  C_9
REMARK    7  A    between atoms: C_19  and  N_20
REMARK                            x       y       z     vdW  Elec       q    Type
REMARK                         _______ _______ _______ _____ _____    ______ ____
ROOT
ATOM      1  N   UNL     1       3.802   5.364  20.117  0.00  0.00    +0.000 NA
ATOM      2  H   UNL     1       4.082   5.204  21.083  0.00  0.00    +0.000 HD
ENDROOT
BRANCH   1   4
ATOM      3  C   UNL     1       1.761   4.637  18.971  0.00  0.00    +0.000 C 
ATOM      4  C   UNL     1       2.345   5.556  20.050  0.00  0.00    +0.000 C 
BRANCH   4   5
ATOM      5  C   UNL     1       1.961   6.999  19.772  0.00  0.00    +0.000 A 
ATOM      6  C   UNL     1       1.368   7.776  20.775  0.00  0.00    +0.000 A 
ATOM      7  C   UNL     1       1.087   9.129  20.557  0.00  0.00    +0.000 A 
ATOM      8  C   UNL     1       1.392   9.723  19.327  0.00  0.00    +0.000 A 
ATOM      9  C   UNL     1       1.965   8.945  18.313  0.00  0.00    +0.000 A 
ATOM     10  C   UNL     1       2.246   7.597  18.537  0.00  0.00    +0.000 A 
BRANCH   8  11
ATOM     11  N   UNL     1       1.143  11.109  19.105  0.00  0.00    +0.000 N 
ATOM     12  C   UNL     1       0.133  11.877  19.647  0.00  0.00    +0.000 A 
ATOM     13  C   UNL     1       0.314  13.147  19.155  0.00  0.00    +0.000 A 
ATOM     14  N   UNL     1       1.393  13.198  18.323  0.00  0.00    +0.000 NA
ATOM     15  C   UNL     1       1.869  11.971  18.311  0.00  0.00    +0.000 A 
ENDBRANCH   8  11
ENDBRANCH   4   5
ENDBRANCH   1   4
BRANCH   1  16
ATOM     16  C   UNL     1       4.258   4.227  19.311  0.00  0.00    +0.000 C 
BRANCH  16  17
ATOM     17  C   UNL     1       4.942   4.724  18.071  0.00  0.00    +0.000 A 
ATOM     18  C   UNL     1       5.561   5.935  17.859  0.00  0.00    +0.000 A 
ATOM     19  C   UNL     1       6.116   6.037  16.550  0.00  0.00    +0.000 A 
ATOM     20  C   UNL     1       5.912   4.900  15.785  0.00  0.00    +0.000 A 
ATOM     21  S   UNL     1       5.008   3.739  16.675  0.00  0.00    +0.000 S 
BRANCH  20  22
ATOM     22  C   UNL     1       6.336   4.629  14.398  0.00  0.00    +0.000 A 
ATOM     23  C   UNL     1       7.428   5.290  13.811  0.00  0.00    +0.000 A 
ATOM     24  C   UNL     1       7.811   5.023  12.493  0.00  0.00    +0.000 A 
ATOM     25  C   UNL     1       7.104   4.095  11.736  0.00  0.00    +0.000 A 
ATOM     26  C   UNL     1       6.014   3.434  12.295  0.00  0.00    +0.000 A 
ATOM     27  C   UNL     1       5.634   3.698  13.614  0.00  0.00    +0.000 A 
ENDBRANCH  20  22
ENDBRANCH  16  17
ENDBRANCH   1  16
TORSDOF 6
ENDMDL
MODEL 7
REMARK VINA RESULT:      -7.4      2.617      8.083
REMARK  Name = 
REMARK  7 active torsions:
REMARK  status: ('A' for Active; 'I' for Inactive)
REMARK    1  A    between atoms: C_1  and  C_2
REMARK    2  A    between atoms: C_2  and  N_3
REMARK    3  A    between atoms: C_2  and  C_16
REMARK    4  A    between atoms: N_3  and  C_4
REMARK    5  A    between atoms: C_4  and  C_5
REMARK    6  A    between atoms: C_8  and  C_9
REMARK    7  A    between atoms: C_19  and  N_20
REMARK                            x       y       z     vdW  Elec       q    Type
REMARK                         _______ _______ _______ _____ _____    ______ ____
ROOT
ATOM      1  N   UNL     1       1.185   4.690  20.499  0.00  0.00    +0.000 NA
ATOM      2  H   UNL     1       0.534   4.422  21.235  0.00  0.00    +0.000 HD
ENDROOT
BRANCH   1   4
ATOM      3  C   UNL     1       2.655   2.881  21.258  0.00  0.00    +0.000 C 
ATOM      4  C   UNL     1       1.943   3.511  20.054  0.00  0.00    +0.000 C 
BRANCH   4   5
ATOM      5  C   UNL     1       2.950   3.841  18.966  0.00  0.00    +0.000 A 
ATOM      6  C   UNL     1       4.293   4.065  19.293  0.00  0.00    +0.000 A 
ATOM      7  C   UNL     1       5.244   4.287  18.292  0.00  0.00    +0.000 A 
ATOM      8  C   UNL     1       4.862   4.292  16.946  0.00  0.00    +0.000 A 
ATOM      9  C   UNL     1       3.516   4.091  16.614  0.00  0.00    +0.000 A 
ATOM     10  C   UNL     1       2.572   3.867  17.617  0.00  0.00    +0.000 A 
BRANCH   8  11
ATOM     11  N   UNL     1       5.827   4.483  15.914  0.00  0.00    +0.000 N 
ATOM     12  C   UNL     1       5.732   4.092  14.594  0.00  0.00    +0.000 A 
ATOM     13  C   UNL     1       6.894   4.509  13.989  0.00  0.00    +0.000 A 
ATOM     14  N   UNL     1       7.710   5.137  14.882  0.00  0.00    +0.000 NA
ATOM     15  C   UNL     1       7.051   5.109  16.021  0.00  0.00    +0.000 A 
ENDBRANCH   8  11
ENDBRANCH   4   5
ENDBRANCH   1   4
BRANCH   1  16
ATOM     16  C   UNL     1       2.050   5.756  21.015  0.00  0.00    +0.000 C 
BRANCH  16  17
ATOM     17  C   UNL     1       1.899   6.988  20.172  0.00  0.00    +0.000 A 
ATOM     18  C   UNL     1       2.406   7.236  18.916  0.00  0.00    +0.000 A 
ATOM     19  C   UNL     1       2.030   8.521  18.426  0.00  0.00    +0.000 A 
ATOM     20  C   UNL     1       1.243   9.232  19.317  0.00  0.00    +0.000 A 
ATOM     21  S   UNL     1       1.007   8.324  20.758  0.00  0.00    +0.000 S 
BRANCH  20  22
ATOM     22  C   UNL     1       0.663  10.581  19.168  0.00  0.00    +0.000 A 
ATOM     23  C   UNL     1       1.438  11.684  18.772  0.00  0.00    +0.000 A 
ATOM     24  C   UNL     1       0.872  12.956  18.642  0.00  0.00    +0.000 A 
ATOM     25  C   UNL     1      -0.479  13.148  18.913  0.00  0.00    +0.000 A 
ATOM     26  C   UNL     1      -1.264  12.070  19.314  0.00  0.00    +0.000 A 
ATOM     27  C   UNL     1      -0.697  10.799  19.440  0.00  0.00    +0.000 A 
ENDBRANCH  20  22
ENDBRANCH  16  17
ENDBRANCH   1  16
TORSDOF 6
ENDMDL
MODEL 8
REMARK VINA RESULT:      -7.4      1.627      2.250
REMARK  Name = 
REMARK  7 active torsions:
REMARK  status: ('A' for Active; 'I' for Inactive)
REMARK    1  A    between atoms: C_1  and  C_2
REMARK    2  A    between atoms: C_2  and  N_3
REMARK    3  A    between atoms: C_2  and  C_16
REMARK    4  A    between atoms: N_3  and  C_4
REMARK    5  A    between atoms: C_4  and  C_5
REMARK    6  A    between atoms: C_8  and  C_9
REMARK    7  A    between atoms: C_19  and  N_20
REMARK                            x       y       z     vdW  Elec       q    Type
REMARK                         _______ _______ _______ _____ _____    ______ ____
ROOT
ATOM      1  N   UNL     1       3.578   5.929  19.731  0.00  0.00    +0.000 NA
ATOM      2  H   UNL     1       3.146   5.843  20.649  0.00  0.00    +0.000 HD
ENDROOT
BRANCH   1   4
ATOM      3  C   UNL     1       3.584   7.421  17.786  0.00  0.00    +0.000 C 
ATOM      4  C   UNL     1       2.720   6.740  18.854  0.00  0.00    +0.000 C 
BRANCH   4   5
ATOM      5  C   UNL     1       1.921   7.780  19.620  0.00  0.00    +0.000 A 
ATOM      6  C   UNL     1       1.570   8.989  19.008  0.00  0.00    +0.000 A 
ATOM      7  C   UNL     1       0.764   9.918  19.674  0.00  0.00    +0.000 A 
ATOM      8  C   UNL     1       0.300   9.651  20.968  0.00  0.00    +0.000 A 
ATOM      9  C   UNL     1       0.668   8.452  21.593  0.00  0.00    +0.000 A 
ATOM     10  C   UNL     1       1.468   7.527  20.922  0.00  0.00    +0.000 A 
BRANCH   8  11
ATOM     11  N   UNL     1      -0.550  10.573  21.643  0.00  0.00    +0.000 N 
ATOM     12  C   UNL     1      -1.183  11.676  21.109  0.00  0.00    +0.000 A 
ATOM     13  C   UNL     1      -1.901  12.239  22.137  0.00  0.00    +0.000 A 
ATOM     14  N   UNL     1      -1.735  11.532  23.291  0.00  0.00    +0.000 NA
ATOM     15  C   UNL     1      -0.926  10.545  22.969  0.00  0.00    +0.000 A 
ENDBRANCH   8  11
ENDBRANCH   4   5
ENDBRANCH   1   4
BRANCH   1  16
ATOM     16  C   UNL     1       3.810   4.580  19.203  0.00  0.00    +0.000 C 
BRANCH  16  17
ATOM     17  C   UNL     1       4.886   4.621  18.156  0.00  0.00    +0.000 A 
ATOM     18  C   UNL     1       6.238   4.822  18.323  0.00  0.00    +0.000 A 
ATOM     19  C   UNL     1       6.947   4.773  17.088  0.00  0.00    +0.000 A 
ATOM     20  C   UNL     1       6.124   4.535  15.999  0.00  0.00    +0.000 A 
ATOM     21  S   UNL     1       4.486   4.411  16.508  0.00  0.00    +0.000 S 
BRANCH  20  22
ATOM     22  C   UNL     1       6.486   4.415  14.574  0.00  0.00    +0.000 A 
ATOM     23  C   UNL     1       7.482   5.215  13.989  0.00  0.00    +0.000 A 
ATOM     24  C   UNL     1       7.808   5.090  12.635  0.00  0.00    +0.000 A 
ATOM     25  C   UNL     1       7.137   4.166  11.839  0.00  0.00    +0.000 A 
ATOM     26  C   UNL     1       6.141   3.368  12.397  0.00  0.00    +0.000 A 
ATOM     27  C   UNL     1       5.819   3.492  13.752  0.00  0.00    +0.000 A 
ENDBRANCH  20  22
ENDBRANCH  16  17
ENDBRANCH   1  16
TORSDOF 6
ENDMDL
MODEL 9
REMARK VINA RESULT:      -7.4      1.516      2.360
REMARK  Name = 
REMARK  7 active torsions:
REMARK  status: ('A' for Active; 'I' for Inactive)
REMARK    1  A    between atoms: C_1  and  C_2
REMARK    2  A    between atoms: C_2  and  N_3
REMARK    3  A    between atoms: C_2  and  C_16
REMARK    4  A    between atoms: N_3  and  C_4
REMARK    5  A    between atoms: C_4  and  C_5
REMARK    6  A    between atoms: C_8  and  C_9
REMARK    7  A    between atoms: C_19  and  N_20
REMARK                            x       y       z     vdW  Elec       q    Type
REMARK                         _______ _______ _______ _____ _____    ______ ____
ROOT
ATOM      1  N   UNL     1       3.795   5.999  19.711  0.00  0.00    +0.000 NA
ATOM      2  H   UNL     1       3.371   5.940  20.635  0.00  0.00    +0.000 HD
ENDROOT
BRANCH   1   4
ATOM      3  C   UNL     1       3.685   7.412  17.710  0.00  0.00    +0.000 C 
ATOM      4  C   UNL     1       2.875   6.679  18.787  0.00  0.00    +0.000 C 
BRANCH   4   5
ATOM      5  C   UNL     1       1.950   7.652  19.497  0.00  0.00    +0.000 A 
ATOM      6  C   UNL     1       1.561   7.416  20.821  0.00  0.00    +0.000 A 
ATOM      7  C   UNL     1       0.778   8.346  21.512  0.00  0.00    +0.000 A 
ATOM      8  C   UNL     1       0.370   9.529  20.884  0.00  0.00    +0.000 A 
ATOM      9  C   UNL     1       0.738   9.760  19.552  0.00  0.00    +0.000 A 
ATOM     10  C   UNL     1       1.521   8.830  18.869  0.00  0.00    +0.000 A 
BRANCH   8  11
ATOM     11  N   UNL     1      -0.398  10.501  21.588  0.00  0.00    +0.000 N 
ATOM     12  C   UNL     1      -0.803  10.456  22.906  0.00  0.00    +0.000 A 
ATOM     13  C   UNL     1      -1.499  11.619  23.132  0.00  0.00    +0.000 A 
ATOM     14  N   UNL     1      -1.547  12.384  22.004  0.00  0.00    +0.000 NA
ATOM     15  C   UNL     1      -0.884  11.695  21.100  0.00  0.00    +0.000 A 
ENDBRANCH   8  11
ENDBRANCH   4   5
ENDBRANCH   1   4
BRANCH   1  16
ATOM     16  C   UNL     1       4.135   4.642  19.272  0.00  0.00    +0.000 C 
BRANCH  16  17
ATOM     17  C   UNL     1       5.128   4.704  18.148  0.00  0.00    +0.000 A 
ATOM     18  C   UNL     1       6.462   5.041  18.199  0.00  0.00    +0.000 A 
ATOM     19  C   UNL     1       7.088   4.966  16.920  0.00  0.00    +0.000 A 
ATOM     20  C   UNL     1       6.219   4.574  15.914  0.00  0.00    +0.000 A 
ATOM     21  S   UNL     1       4.640   4.337  16.551  0.00  0.00    +0.000 S 
BRANCH  20  22
ATOM     22  C   UNL     1       6.493   4.382  14.477  0.00  0.00    +0.000 A 
ATOM     23  C   UNL     1       7.529   5.066  13.820  0.00  0.00    +0.000 A 
ATOM     24  C   UNL     1       7.770   4.876  12.456  0.00  0.00    +0.000 A 
ATOM     25  C   UNL     1       6.974   4.001  11.723  0.00  0.00    +0.000 A 
ATOM     26  C   UNL     1       5.936   3.318  12.353  0.00  0.00    +0.000 A 
ATOM     27  C   UNL     1       5.699   3.507  13.717  0.00  0.00    +0.000 A 
ENDBRANCH  20  22
ENDBRANCH  16  17
ENDBRANCH   1  16
TORSDOF 6
ENDMDL
