MODEL 1
REMARK VINA RESULT:      -7.6      0.000      0.000
REMARK  Name = 
REMARK  3 active torsions:
REMARK  status: ('A' for Active; 'I' for Inactive)
REMARK    1  A    between atoms: N_10  and  S_11
REMARK    2  A    between atoms: S_11  and  C_14
REMARK    3  A    between atoms: C_14  and  C_15
REMARK                            x       y       z     vdW  Elec       q    Type
REMARK                         _______ _______ _______ _____ _____    ______ ____
ROOT
ATOM      1  O   UNL     1       0.603   4.265  20.574  0.00  0.00    +0.000 OA
ATOM      2  C   UNL     1       1.300   3.627  19.794  0.00  0.00    +0.000 A 
ATOM      3  N   UNL     1       1.151   2.283  19.617  0.00  0.00    +0.000 N 
ATOM      4  C   UNL     1       1.926   1.580  18.750  0.00  0.00    +0.000 A 
ATOM      5  N   UNL     1       2.860   2.102  18.031  0.00  0.00    +0.000 NA
ATOM      6  C   UNL     1       3.075   3.456  18.166  0.00  0.00    +0.000 A 
ATOM      7  C   UNL     1       2.366   4.250  18.985  0.00  0.00    +0.000 A 
ATOM      8  C   UNL     1       2.627   5.715  19.141  0.00  0.00    +0.000 C 
ATOM      9  C   UNL     1       4.002   6.104  18.593  0.00  0.00    +0.000 C 
ATOM     10  N   UNL     1       4.206   5.501  17.238  0.00  0.00    +0.000 NA
ATOM     11  C   UNL     1       4.195   4.007  17.304  0.00  0.00    +0.000 C 
ATOM     12  H   UNL     1       0.432   1.831  20.163  0.00  0.00    +0.000 HD
ENDROOT
BRANCH  10  13
ATOM     13  S   UNL     1       5.590   6.138  16.440  0.00  0.00    +0.000 S 
ATOM     14  O   UNL     1       5.121   6.736  15.207  0.00  0.00    +0.000 OA
ATOM     15  O   UNL     1       6.307   6.923  17.425  0.00  0.00    +0.000 OA
BRANCH  13  16
ATOM     16  C   UNL     1       6.545   4.657  16.045  0.00  0.00    +0.000 C 
BRANCH  16  17
ATOM     17  C   UNL     1       6.740   4.558  14.551  0.00  0.00    +0.000 A 
ATOM     18  C   UNL     1       7.528   5.499  13.864  0.00  0.00    +0.000 A 
ATOM     19  C   UNL     1       7.720   5.388  12.484  0.00  0.00    +0.000 A 
ATOM     20 CL   UNL     1       8.699   6.543  11.665  0.00  0.00    +0.000 Cl
ATOM     21  C   UNL     1       7.138   4.348  11.767  0.00  0.00    +0.000 A 
ATOM     22  C   UNL     1       6.354   3.416  12.442  0.00  0.00    +0.000 A 
ATOM     23 CL   UNL     1       5.636   2.118  11.570  0.00  0.00    +0.000 Cl
ATOM     24  C   UNL     1       6.153   3.516  13.821  0.00  0.00    +0.000 A 
ENDBRANCH  16  17
ENDBRANCH  13  16
ENDBRANCH  10  13
TORSDOF 3
ENDMDL
MODEL 2
REMARK VINA RESULT:      -7.6      3.322      4.944
REMARK  Name = 
REMARK  3 active torsions:
REMARK  status: ('A' for Active; 'I' for Inactive)
REMARK    1  A    between atoms: N_10  and  S_11
REMARK    2  A    between atoms: S_11  and  C_14
REMARK    3  A    between atoms: C_14  and  C_15
REMARK                            x       y       z     vdW  Elec       q    Type
REMARK                         _______ _______ _______ _____ _____    ______ ____
ROOT
ATOM      1  O   UNL     1       0.799   9.830  21.250  0.00  0.00    +0.000 OA
ATOM      2  C   UNL     1       1.222   9.485  20.154  0.00  0.00    +0.000 A 
ATOM      3  N   UNL     1       1.312  10.349  19.103  0.00  0.00    +0.000 N 
ATOM      4  C   UNL     1       1.783   9.961  17.889  0.00  0.00    +0.000 A 
ATOM      5  N   UNL     1       2.177   8.764  17.617  0.00  0.00    +0.000 NA
ATOM      6  C   UNL     1       2.106   7.833  18.630  0.00  0.00    +0.000 A 
ATOM      7  C   UNL     1       1.665   8.105  19.869  0.00  0.00    +0.000 A 
ATOM      8  C   UNL     1       1.568   7.078  20.953  0.00  0.00    +0.000 C 
ATOM      9  C   UNL     1       1.637   5.657  20.389  0.00  0.00    +0.000 C 
ATOM     10  N   UNL     1       2.772   5.542  19.420  0.00  0.00    +0.000 NA
ATOM     11  C   UNL     1       2.572   6.442  18.243  0.00  0.00    +0.000 C 
ATOM     12  H   UNL     1       1.009  11.298  19.270  0.00  0.00    +0.000 HD
ENDROOT
BRANCH  10  13
ATOM     13  S   UNL     1       3.094   3.909  18.982  0.00  0.00    +0.000 S 
ATOM     14  O   UNL     1       2.429   3.077  19.964  0.00  0.00    +0.000 OA
ATOM     15  O   UNL     1       2.785   3.793  17.572  0.00  0.00    +0.000 OA
BRANCH  13  16
ATOM     16  C   UNL     1       4.880   3.774  19.217  0.00  0.00    +0.000 C 
BRANCH  16  17
ATOM     17  C   UNL     1       5.599   4.486  18.096  0.00  0.00    +0.000 A 
ATOM     18  C   UNL     1       6.272   5.698  18.328  0.00  0.00    +0.000 A 
ATOM     19  C   UNL     1       6.952   6.340  17.288  0.00  0.00    +0.000 A 
ATOM     20 CL   UNL     1       7.779   7.818  17.596  0.00  0.00    +0.000 Cl
ATOM     21  C   UNL     1       6.975   5.792  16.010  0.00  0.00    +0.000 A 
ATOM     22  C   UNL     1       6.308   4.593  15.774  0.00  0.00    +0.000 A 
ATOM     23 CL   UNL     1       6.338   3.897  14.201  0.00  0.00    +0.000 Cl
ATOM     24  C   UNL     1       5.623   3.942  16.804  0.00  0.00    +0.000 A 
ENDBRANCH  16  17
ENDBRANCH  13  16
ENDBRANCH  10  13
TORSDOF 3
ENDMDL
MODEL 3
REMARK VINA RESULT:      -7.5      1.096      1.141
REMARK  Name = 
REMARK  3 active torsions:
REMARK  status: ('A' for Active; 'I' for Inactive)
REMARK    1  A    between atoms: N_10  and  S_11
REMARK    2  A    between atoms: S_11  and  C_14
REMARK    3  A    between atoms: C_14  and  C_15
REMARK                            x       y       z     vdW  Elec       q    Type
REMARK                         _______ _______ _______ _____ _____    ______ ____
ROOT
ATOM      1  O   UNL     1       2.344   3.046  21.755  0.00  0.00    +0.000 OA
ATOM      2  C   UNL     1       2.072   3.203  20.571  0.00  0.00    +0.000 A 
ATOM      3  N   UNL     1       0.891   2.784  20.035  0.00  0.00    +0.000 N 
ATOM      4  C   UNL     1       0.592   2.961  18.721  0.00  0.00    +0.000 A 
ATOM      5  N   UNL     1       1.382   3.525  17.872  0.00  0.00    +0.000 NA
ATOM      6  C   UNL     1       2.599   3.967  18.342  0.00  0.00    +0.000 A 
ATOM      7  C   UNL     1       2.996   3.851  19.620  0.00  0.00    +0.000 A 
ATOM      8  C   UNL     1       4.333   4.311  20.112  0.00  0.00    +0.000 C 
ATOM      9  C   UNL     1       5.310   4.540  18.957  0.00  0.00    +0.000 C 
ATOM     10  N   UNL     1       4.651   5.343  17.877  0.00  0.00    +0.000 NA
ATOM     11  C   UNL     1       3.486   4.609  17.293  0.00  0.00    +0.000 C 
ATOM     12  H   UNL     1       0.242   2.331  20.663  0.00  0.00    +0.000 HD
ENDROOT
BRANCH  10  13
ATOM     13  S   UNL     1       5.773   5.893  16.695  0.00  0.00    +0.000 S 
ATOM     14  O   UNL     1       4.993   6.438  15.603  0.00  0.00    +0.000 OA
ATOM     15  O   UNL     1       6.745   6.705  17.398  0.00  0.00    +0.000 OA
BRANCH  13  16
ATOM     16  C   UNL     1       6.559   4.363  16.143  0.00  0.00    +0.000 C 
BRANCH  16  17
ATOM     17  C   UNL     1       6.695   4.372  14.639  0.00  0.00    +0.000 A 
ATOM     18  C   UNL     1       7.527   5.306  13.997  0.00  0.00    +0.000 A 
ATOM     19  C   UNL     1       7.663   5.293  12.606  0.00  0.00    +0.000 A 
ATOM     20 CL   UNL     1       8.697   6.438  11.841  0.00  0.00    +0.000 Cl
ATOM     21  C   UNL     1       6.980   4.360  11.834  0.00  0.00    +0.000 A 
ATOM     22  C   UNL     1       6.152   3.435  12.464  0.00  0.00    +0.000 A 
ATOM     23 CL   UNL     1       5.309   2.267  11.523  0.00  0.00    +0.000 Cl
ATOM     24  C   UNL     1       6.006   3.437  13.854  0.00  0.00    +0.000 A 
ENDBRANCH  16  17
ENDBRANCH  13  16
ENDBRANCH  10  13
TORSDOF 3
ENDMDL
MODEL 4
REMARK VINA RESULT:      -7.5      1.155      1.777
REMARK  Name = 
REMARK  3 active torsions:
REMARK  status: ('A' for Active; 'I' for Inactive)
REMARK    1  A    between atoms: N_10  and  S_11
REMARK    2  A    between atoms: S_11  and  C_14
REMARK    3  A    between atoms: C_14  and  C_15
REMARK                            x       y       z     vdW  Elec       q    Type
REMARK                         _______ _______ _______ _____ _____    ______ ____
ROOT
ATOM      1  O   UNL     1       0.872   1.927  18.952  0.00  0.00    +0.000 OA
ATOM      2  C   UNL     1       1.266   3.034  19.301  0.00  0.00    +0.000 A 
ATOM      3  N   UNL     1       0.681   3.726  20.319  0.00  0.00    +0.000 N 
ATOM      4  C   UNL     1       1.122   4.953  20.703  0.00  0.00    +0.000 A 
ATOM      5  N   UNL     1       2.111   5.569  20.150  0.00  0.00    +0.000 NA
ATOM      6  C   UNL     1       2.745   4.933  19.106  0.00  0.00    +0.000 A 
ATOM      7  C   UNL     1       2.400   3.718  18.648  0.00  0.00    +0.000 A 
ATOM      8  C   UNL     1       3.080   3.049  17.495  0.00  0.00    +0.000 C 
ATOM      9  C   UNL     1       3.906   4.042  16.674  0.00  0.00    +0.000 C 
ATOM     10  N   UNL     1       4.743   4.889  17.582  0.00  0.00    +0.000 NA
ATOM     11  C   UNL     1       3.890   5.714  18.491  0.00  0.00    +0.000 C 
ATOM     12  H   UNL     1      -0.101   3.283  20.778  0.00  0.00    +0.000 HD
ENDROOT
BRANCH  10  13
ATOM     13  S   UNL     1       5.912   5.812  16.720  0.00  0.00    +0.000 S 
ATOM     14  O   UNL     1       5.221   6.411  15.595  0.00  0.00    +0.000 OA
ATOM     15  O   UNL     1       6.594   6.632  17.700  0.00  0.00    +0.000 OA
BRANCH  13  16
ATOM     16  C   UNL     1       7.045   4.549  16.102  0.00  0.00    +0.000 C 
BRANCH  16  17
ATOM     17  C   UNL     1       7.014   4.528  14.592  0.00  0.00    +0.000 A 
ATOM     18  C   UNL     1       7.729   5.479  13.844  0.00  0.00    +0.000 A 
ATOM     19  C   UNL     1       7.711   5.439  12.446  0.00  0.00    +0.000 A 
ATOM     20 CL   UNL     1       8.603   6.606  11.549  0.00  0.00    +0.000 Cl
ATOM     21  C   UNL     1       6.987   4.461  11.773  0.00  0.00    +0.000 A 
ATOM     22  C   UNL     1       6.275   3.518  12.510  0.00  0.00    +0.000 A 
ATOM     23 CL   UNL     1       5.384   2.294  11.690  0.00  0.00    +0.000 Cl
ATOM     24  C   UNL     1       6.283   3.547  13.906  0.00  0.00    +0.000 A 
ENDBRANCH  16  17
ENDBRANCH  13  16
ENDBRANCH  10  13
TORSDOF 3
ENDMDL
MODEL 5
REMARK VINA RESULT:      -7.4      0.848      2.059
REMARK  Name = 
REMARK  3 active torsions:
REMARK  status: ('A' for Active; 'I' for Inactive)
REMARK    1  A    between atoms: N_10  and  S_11
REMARK    2  A    between atoms: S_11  and  C_14
REMARK    3  A    between atoms: C_14  and  C_15
REMARK                            x       y       z     vdW  Elec       q    Type
REMARK                         _______ _______ _______ _____ _____    ______ ____
ROOT
ATOM      1  O   UNL     1       2.224   3.607  21.862  0.00  0.00    +0.000 OA
ATOM      2  C   UNL     1       2.241   3.288  20.679  0.00  0.00    +0.000 A 
ATOM      3  N   UNL     1       1.443   2.303  20.180  0.00  0.00    +0.000 N 
ATOM      4  C   UNL     1       1.465   1.953  18.866  0.00  0.00    +0.000 A 
ATOM      5  N   UNL     1       2.230   2.503  17.987  0.00  0.00    +0.000 NA
ATOM      6  C   UNL     1       3.073   3.502  18.422  0.00  0.00    +0.000 A 
ATOM      7  C   UNL     1       3.131   3.934  19.693  0.00  0.00    +0.000 A 
ATOM      8  C   UNL     1       4.070   5.001  20.158  0.00  0.00    +0.000 C 
ATOM      9  C   UNL     1       5.194   5.242  19.148  0.00  0.00    +0.000 C 
ATOM     10  N   UNL     1       4.627   5.366  17.767  0.00  0.00    +0.000 NA
ATOM     11  C   UNL     1       3.956   4.099  17.343  0.00  0.00    +0.000 C 
ATOM     12  H   UNL     1       0.829   1.840  20.835  0.00  0.00    +0.000 HD
ENDROOT
BRANCH  10  13
ATOM     13  S   UNL     1       5.788   5.935  16.633  0.00  0.00    +0.000 S 
ATOM     14  O   UNL     1       5.046   6.462  15.506  0.00  0.00    +0.000 OA
ATOM     15  O   UNL     1       6.712   6.769  17.374  0.00  0.00    +0.000 OA
BRANCH  13  16
ATOM     16  C   UNL     1       6.628   4.420  16.121  0.00  0.00    +0.000 C 
BRANCH  16  17
ATOM     17  C   UNL     1       6.764   4.394  14.617  0.00  0.00    +0.000 A 
ATOM     18  C   UNL     1       6.074   3.439  13.849  0.00  0.00    +0.000 A 
ATOM     19  C   UNL     1       6.190   3.435  12.456  0.00  0.00    +0.000 A 
ATOM     20 CL   UNL     1       5.327   2.266  11.533  0.00  0.00    +0.000 Cl
ATOM     21  C   UNL     1       6.988   4.371  11.806  0.00  0.00    +0.000 A 
ATOM     22  C   UNL     1       7.676   5.316  12.563  0.00  0.00    +0.000 A 
ATOM     23 CL   UNL     1       8.657   6.488  11.772  0.00  0.00    +0.000 Cl
ATOM     24  C   UNL     1       7.570   5.331  13.956  0.00  0.00    +0.000 A 
ENDBRANCH  16  17
ENDBRANCH  13  16
ENDBRANCH  10  13
TORSDOF 3
ENDMDL
MODEL 6
REMARK VINA RESULT:      -7.4      3.256      5.085
REMARK  Name = 
REMARK  3 active torsions:
REMARK  status: ('A' for Active; 'I' for Inactive)
REMARK    1  A    between atoms: N_10  and  S_11
REMARK    2  A    between atoms: S_11  and  C_14
REMARK    3  A    between atoms: C_14  and  C_15
REMARK                            x       y       z     vdW  Elec       q    Type
REMARK                         _______ _______ _______ _____ _____    ______ ____
ROOT
ATOM      1  O   UNL     1       0.825   9.483  21.476  0.00  0.00    +0.000 OA
ATOM      2  C   UNL     1       1.207   9.204  20.347  0.00  0.00    +0.000 A 
ATOM      3  N   UNL     1       1.234  10.123  19.340  0.00  0.00    +0.000 N 
ATOM      4  C   UNL     1       1.660   9.809  18.088  0.00  0.00    +0.000 A 
ATOM      5  N   UNL     1       2.067   8.637  17.738  0.00  0.00    +0.000 NA
ATOM      6  C   UNL     1       2.058   7.654  18.703  0.00  0.00    +0.000 A 
ATOM      7  C   UNL     1       1.666   7.852  19.972  0.00  0.00    +0.000 A 
ATOM      8  C   UNL     1       1.636   6.768  21.004  0.00  0.00    +0.000 C 
ATOM      9  C   UNL     1       1.709   5.380  20.365  0.00  0.00    +0.000 C 
ATOM     10  N   UNL     1       2.804   5.340  19.344  0.00  0.00    +0.000 NA
ATOM     11  C   UNL     1       2.535   6.295  18.226  0.00  0.00    +0.000 C 
ATOM     12  H   UNL     1       0.920  11.055  19.568  0.00  0.00    +0.000 HD
ENDROOT
BRANCH  10  13
ATOM     13  S   UNL     1       3.141   3.740  18.808  0.00  0.00    +0.000 S 
ATOM     14  O   UNL     1       2.465   2.844  19.725  0.00  0.00    +0.000 OA
ATOM     15  O   UNL     1       2.853   3.712  17.389  0.00  0.00    +0.000 OA
BRANCH  13  16
ATOM     16  C   UNL     1       4.923   3.597  19.062  0.00  0.00    +0.000 C 
BRANCH  16  17
ATOM     17  C   UNL     1       5.656   4.339  17.970  0.00  0.00    +0.000 A 
ATOM     18  C   UNL     1       5.700   3.831  16.660  0.00  0.00    +0.000 A 
ATOM     19  C   UNL     1       6.364   4.535  15.651  0.00  0.00    +0.000 A 
ATOM     20 CL   UNL     1       6.396   3.902  14.050  0.00  0.00    +0.000 Cl
ATOM     21  C   UNL     1       6.992   5.746  15.924  0.00  0.00    +0.000 A 
ATOM     22  C   UNL     1       6.954   6.251  17.221  0.00  0.00    +0.000 A 
ATOM     23 CL   UNL     1       7.716   7.754  17.571  0.00  0.00    +0.000 Cl
ATOM     24  C   UNL     1       6.295   5.558  18.239  0.00  0.00    +0.000 A 
ENDBRANCH  16  17
ENDBRANCH  13  16
ENDBRANCH  10  13
TORSDOF 3
ENDMDL
MODEL 7
REMARK VINA RESULT:      -7.3      1.048      2.149
REMARK  Name = 
REMARK  3 active torsions:
REMARK  status: ('A' for Active; 'I' for Inactive)
REMARK    1  A    between atoms: N_10  and  S_11
REMARK    2  A    between atoms: S_11  and  C_14
REMARK    3  A    between atoms: C_14  and  C_15
REMARK                            x       y       z     vdW  Elec       q    Type
REMARK                         _______ _______ _______ _____ _____    ______ ____
ROOT
ATOM      1  O   UNL     1       0.629   4.442  20.310  0.00  0.00    +0.000 OA
ATOM      2  C   UNL     1       1.753   3.960  20.233  0.00  0.00    +0.000 A 
ATOM      3  N   UNL     1       2.138   2.892  20.988  0.00  0.00    +0.000 N 
ATOM      4  C   UNL     1       3.386   2.360  20.899  0.00  0.00    +0.000 A 
ATOM      5  N   UNL     1       4.306   2.806  20.113  0.00  0.00    +0.000 NA
ATOM      6  C   UNL     1       3.989   3.891  19.326  0.00  0.00    +0.000 A 
ATOM      7  C   UNL     1       2.788   4.493  19.326  0.00  0.00    +0.000 A 
ATOM      8  C   UNL     1       2.466   5.688  18.485  0.00  0.00    +0.000 C 
ATOM      9  C   UNL     1       3.733   6.365  17.959  0.00  0.00    +0.000 C 
ATOM     10  N   UNL     1       4.664   5.341  17.386  0.00  0.00    +0.000 NA
ATOM     11  C   UNL     1       5.117   4.376  18.435  0.00  0.00    +0.000 C 
ATOM     12  H   UNL     1       1.451   2.512  21.622  0.00  0.00    +0.000 HD
ENDROOT
BRANCH  10  13
ATOM     13  S   UNL     1       5.961   6.055  16.510  0.00  0.00    +0.000 S 
ATOM     14  O   UNL     1       5.381   6.663  15.331  0.00  0.00    +0.000 OA
ATOM     15  O   UNL     1       6.716   6.843  17.463  0.00  0.00    +0.000 OA
BRANCH  13  16
ATOM     16  C   UNL     1       6.942   4.624  16.006  0.00  0.00    +0.000 C 
BRANCH  16  17
ATOM     17  C   UNL     1       6.968   4.528  14.499  0.00  0.00    +0.000 A 
ATOM     18  C   UNL     1       6.271   3.505  13.831  0.00  0.00    +0.000 A 
ATOM     19  C   UNL     1       6.284   3.435  12.435  0.00  0.00    +0.000 A 
ATOM     20 CL   UNL     1       5.413   2.183  11.637  0.00  0.00    +0.000 Cl
ATOM     21  C   UNL     1       6.985   4.372  11.683  0.00  0.00    +0.000 A 
ATOM     22  C   UNL     1       7.679   5.385  12.340  0.00  0.00    +0.000 A 
ATOM     23 CL   UNL     1       8.541   6.558  11.423  0.00  0.00    +0.000 Cl
ATOM     24  C   UNL     1       7.676   5.466  13.735  0.00  0.00    +0.000 A 
ENDBRANCH  16  17
ENDBRANCH  13  16
ENDBRANCH  10  13
TORSDOF 3
ENDMDL
MODEL 8
REMARK VINA RESULT:      -7.3      1.186      2.548
REMARK  Name = 
REMARK  3 active torsions:
REMARK  status: ('A' for Active; 'I' for Inactive)
REMARK    1  A    between atoms: N_10  and  S_11
REMARK    2  A    between atoms: S_11  and  C_14
REMARK    3  A    between atoms: C_14  and  C_15
REMARK                            x       y       z     vdW  Elec       q    Type
REMARK                         _______ _______ _______ _____ _____    ______ ____
ROOT
ATOM      1  O   UNL     1       0.714   1.639  18.829  0.00  0.00    +0.000 OA
ATOM      2  C   UNL     1       1.262   2.589  19.374  0.00  0.00    +0.000 A 
ATOM      3  N   UNL     1       0.905   3.020  20.617  0.00  0.00    +0.000 N 
ATOM      4  C   UNL     1       1.517   4.074  21.218  0.00  0.00    +0.000 A 
ATOM      5  N   UNL     1       2.469   4.757  20.680  0.00  0.00    +0.000 NA
ATOM      6  C   UNL     1       2.876   4.384  19.418  0.00  0.00    +0.000 A 
ATOM      7  C   UNL     1       2.349   3.356  18.733  0.00  0.00    +0.000 A 
ATOM      8  C   UNL     1       2.782   2.978  17.352  0.00  0.00    +0.000 C 
ATOM      9  C   UNL     1       3.571   4.104  16.681  0.00  0.00    +0.000 C 
ATOM     10  N   UNL     1       4.613   4.632  17.618  0.00  0.00    +0.000 NA
ATOM     11  C   UNL     1       3.989   5.234  18.836  0.00  0.00    +0.000 C 
ATOM     12  H   UNL     1       0.160   2.516  21.075  0.00  0.00    +0.000 HD
ENDROOT
BRANCH  10  13
ATOM     13  S   UNL     1       5.726   5.682  16.831  0.00  0.00    +0.000 S 
ATOM     14  O   UNL     1       5.039   6.230  15.680  0.00  0.00    +0.000 OA
ATOM     15  O   UNL     1       6.271   6.547  17.858  0.00  0.00    +0.000 OA
BRANCH  13  16
ATOM     16  C   UNL     1       7.012   4.550  16.259  0.00  0.00    +0.000 C 
BRANCH  16  17
ATOM     17  C   UNL     1       7.026   4.512  14.749  0.00  0.00    +0.000 A 
ATOM     18  C   UNL     1       6.254   3.570  14.046  0.00  0.00    +0.000 A 
ATOM     19  C   UNL     1       6.257   3.556  12.648  0.00  0.00    +0.000 A 
ATOM     20 CL   UNL     1       5.297   2.402  11.806  0.00  0.00    +0.000 Cl
ATOM     21  C   UNL     1       7.021   4.470  11.930  0.00  0.00    +0.000 A 
ATOM     22  C   UNL     1       7.789   5.403  12.622  0.00  0.00    +0.000 A 
ATOM     23 CL   UNL     1       8.729   6.548  11.747  0.00  0.00    +0.000 Cl
ATOM     24  C   UNL     1       7.796   5.427  14.019  0.00  0.00    +0.000 A 
ENDBRANCH  16  17
ENDBRANCH  13  16
ENDBRANCH  10  13
TORSDOF 3
ENDMDL
MODEL 9
REMARK VINA RESULT:      -7.1      3.987      7.190
REMARK  Name = 
REMARK  3 active torsions:
REMARK  status: ('A' for Active; 'I' for Inactive)
REMARK    1  A    between atoms: N_10  and  S_11
REMARK    2  A    between atoms: S_11  and  C_14
REMARK    3  A    between atoms: C_14  and  C_15
REMARK                            x       y       z     vdW  Elec       q    Type
REMARK                         _______ _______ _______ _____ _____    ______ ____
ROOT
ATOM      1  O   UNL     1       6.792   5.746  15.323  0.00  0.00    +0.000 OA
ATOM      2  C   UNL     1       6.824   5.665  16.545  0.00  0.00    +0.000 A 
ATOM      3  N   UNL     1       7.812   6.242  17.286  0.00  0.00    +0.000 N 
ATOM      4  C   UNL     1       7.842   6.150  18.642  0.00  0.00    +0.000 A 
ATOM      5  N   UNL     1       6.962   5.519  19.342  0.00  0.00    +0.000 NA
ATOM      6  C   UNL     1       5.938   4.902  18.657  0.00  0.00    +0.000 A 
ATOM      7  C   UNL     1       5.804   4.933  17.321  0.00  0.00    +0.000 A 
ATOM      8  C   UNL     1       4.701   4.236  16.588  0.00  0.00    +0.000 C 
ATOM      9  C   UNL     1       4.013   3.190  17.468  0.00  0.00    +0.000 C 
ATOM     10  N   UNL     1       3.697   3.773  18.810  0.00  0.00    +0.000 NA
ATOM     11  C   UNL     1       4.944   4.166  19.535  0.00  0.00    +0.000 C 
ATOM     12  H   UNL     1       8.526   6.744  16.779  0.00  0.00    +0.000 HD
ENDROOT
BRANCH  10  13
ATOM     13  S   UNL     1       2.660   2.759  19.736  0.00  0.00    +0.000 S 
ATOM     14  O   UNL     1       2.391   1.589  18.925  0.00  0.00    +0.000 OA
ATOM     15  O   UNL     1       3.267   2.637  21.045  0.00  0.00    +0.000 OA
BRANCH  13  16
ATOM     16  C   UNL     1       1.149   3.739  19.865  0.00  0.00    +0.000 C 
BRANCH  16  17
ATOM     17  C   UNL     1       1.482   5.209  19.766  0.00  0.00    +0.000 A 
ATOM     18  C   UNL     1       1.215   6.080  20.837  0.00  0.00    +0.000 A 
ATOM     19  C   UNL     1       1.545   7.435  20.745  0.00  0.00    +0.000 A 
ATOM     20 CL   UNL     1       1.222   8.482  22.073  0.00  0.00    +0.000 Cl
ATOM     21  C   UNL     1       2.141   7.945  19.596  0.00  0.00    +0.000 A 
ATOM     22  C   UNL     1       2.404   7.087  18.532  0.00  0.00    +0.000 A 
ATOM     23 CL   UNL     1       3.151   7.701  17.109  0.00  0.00    +0.000 Cl
ATOM     24  C   UNL     1       2.078   5.731  18.610  0.00  0.00    +0.000 A 
ENDBRANCH  16  17
ENDBRANCH  13  16
ENDBRANCH  10  13
TORSDOF 3
ENDMDL
