MODEL 1
REMARK VINA RESULT:      -6.7      0.000      0.000
REMARK  Name = 
REMARK  5 active torsions:
REMARK  status: ('A' for Active; 'I' for Inactive)
REMARK    1  A    between atoms: C_1  and  C_2
REMARK    2  A    between atoms: C_2  and  C_3
REMARK    3  A    between atoms: C_3  and  C_4
REMARK    4  A    between atoms: C_4  and  N_5
REMARK    5  A    between atoms: N_14  and  C_15
REMARK                            x       y       z     vdW  Elec       q    Type
REMARK                         _______ _______ _______ _____ _____    ______ ____
ROOT
ATOM      1  N   UNL     1       4.169   5.271  17.030  0.00  0.00    +0.000 NA
ATOM      2  C   UNL     1       4.626   6.671  16.961  0.00  0.00    +0.000 C 
ATOM      3  C   UNL     1       3.474   7.634  17.255  0.00  0.00    +0.000 C 
ATOM      4  C   UNL     1       2.818   7.294  18.563  0.00  0.00    +0.000 A 
ATOM      5  N   UNL     1       2.143   8.276  19.193  0.00  0.00    +0.000 NA
ATOM      6  C   UNL     1       1.563   7.990  20.374  0.00  0.00    +0.000 A 
ATOM      7  N   UNL     1       0.816   8.957  21.011  0.00  0.00    +0.000 N 
ATOM      8  C   UNL     1       0.885   8.956  22.474  0.00  0.00    +0.000 C 
ATOM      9  C   UNL     1      -0.314   9.753  23.035  0.00  0.00    +0.000 C 
ATOM     10  N   UNL     1      -0.415  11.127  22.485  0.00  0.00    +0.000 NA
ATOM     11  C   UNL     1      -1.641  11.765  22.962  0.00  0.00    +0.000 C 
ATOM     12  C   UNL     1      -0.410  11.073  21.002  0.00  0.00    +0.000 C 
ATOM     13  C   UNL     1       0.795  10.296  20.423  0.00  0.00    +0.000 C 
ATOM     14  N   UNL     1       1.620   6.768  20.929  0.00  0.00    +0.000 NA
ATOM     15  C   UNL     1       2.274   5.806  20.258  0.00  0.00    +0.000 A 
ATOM     16  C   UNL     1       2.905   6.011  19.055  0.00  0.00    +0.000 A 
ATOM     17  C   UNL     1       3.705   4.937  18.390  0.00  0.00    +0.000 C 
ENDROOT
BRANCH   1  18
ATOM     18  C   UNL     1       5.245   4.366  16.588  0.00  0.00    +0.000 C 
BRANCH  18  19
ATOM     19  C   UNL     1       6.643   4.998  16.532  0.00  0.00    +0.000 C 
BRANCH  19  21
ATOM     20  C   UNL     1       7.677   5.698  18.714  0.00  0.00    +0.000 C 
ATOM     21  C   UNL     1       7.545   4.579  17.693  0.00  0.00    +0.000 C 
ENDBRANCH  19  21
ENDBRANCH  18  19
ENDBRANCH   1  18
TORSDOF 3
ENDMDL
MODEL 2
REMARK VINA RESULT:      -6.7      1.322      2.583
REMARK  Name = 
REMARK  5 active torsions:
REMARK  status: ('A' for Active; 'I' for Inactive)
REMARK    1  A    between atoms: C_1  and  C_2
REMARK    2  A    between atoms: C_2  and  C_3
REMARK    3  A    between atoms: C_3  and  C_4
REMARK    4  A    between atoms: C_4  and  N_5
REMARK    5  A    between atoms: N_14  and  C_15
REMARK                            x       y       z     vdW  Elec       q    Type
REMARK                         _______ _______ _______ _____ _____    ______ ____
ROOT
ATOM      1  N   UNL     1       4.783   4.803  17.672  0.00  0.00    +0.000 NA
ATOM      2  C   UNL     1       3.769   4.155  18.525  0.00  0.00    +0.000 C 
ATOM      3  C   UNL     1       3.389   5.060  19.699  0.00  0.00    +0.000 C 
ATOM      4  C   UNL     1       2.967   6.417  19.210  0.00  0.00    +0.000 A 
ATOM      5  N   UNL     1       2.169   7.147  20.015  0.00  0.00    +0.000 NA
ATOM      6  C   UNL     1       1.770   8.357  19.583  0.00  0.00    +0.000 A 
ATOM      7  N   UNL     1       1.004   9.151  20.410  0.00  0.00    +0.000 N 
ATOM      8  C   UNL     1      -0.009   9.973  19.746  0.00  0.00    +0.000 C 
ATOM      9  C   UNL     1      -0.446  11.104  20.704  0.00  0.00    +0.000 C 
ATOM     10  N   UNL     1      -0.910  10.609  22.023  0.00  0.00    +0.000 NA
ATOM     11  C   UNL     1      -1.179  11.739  22.912  0.00  0.00    +0.000 C 
ATOM     12  C   UNL     1       0.124   9.727  22.618  0.00  0.00    +0.000 C 
ATOM     13  C   UNL     1       0.559   8.577  21.680  0.00  0.00    +0.000 C 
ATOM     14  N   UNL     1       2.150   8.863  18.398  0.00  0.00    +0.000 NA
ATOM     15  C   UNL     1       2.971   8.121  17.636  0.00  0.00    +0.000 A 
ATOM     16  C   UNL     1       3.417   6.872  17.991  0.00  0.00    +0.000 A 
ATOM     17  C   UNL     1       4.250   6.039  17.069  0.00  0.00    +0.000 C 
ENDROOT
BRANCH   1  18
ATOM     18  C   UNL     1       5.255   3.859  16.644  0.00  0.00    +0.000 C 
BRANCH  18  19
ATOM     19  C   UNL     1       5.220   4.395  15.205  0.00  0.00    +0.000 C 
BRANCH  19  21
ATOM     20  C   UNL     1       6.082   3.618  12.975  0.00  0.00    +0.000 C 
ATOM     21  C   UNL     1       6.460   4.025  14.391  0.00  0.00    +0.000 C 
ENDBRANCH  19  21
ENDBRANCH  18  19
ENDBRANCH   1  18
TORSDOF 3
ENDMDL
MODEL 3
REMARK VINA RESULT:      -6.6      1.304      2.386
REMARK  Name = 
REMARK  5 active torsions:
REMARK  status: ('A' for Active; 'I' for Inactive)
REMARK    1  A    between atoms: C_1  and  C_2
REMARK    2  A    between atoms: C_2  and  C_3
REMARK    3  A    between atoms: C_3  and  C_4
REMARK    4  A    between atoms: C_4  and  N_5
REMARK    5  A    between atoms: N_14  and  C_15
REMARK                            x       y       z     vdW  Elec       q    Type
REMARK                         _______ _______ _______ _____ _____    ______ ____
ROOT
ATOM      1  N   UNL     1       4.093   4.866  18.467  0.00  0.00    +0.000 NA
ATOM      2  C   UNL     1       3.025   4.332  19.333  0.00  0.00    +0.000 C 
ATOM      3  C   UNL     1       2.664   5.336  20.429  0.00  0.00    +0.000 C 
ATOM      4  C   UNL     1       2.325   6.674  19.835  0.00  0.00    +0.000 A 
ATOM      5  N   UNL     1       1.547   7.498  20.564  0.00  0.00    +0.000 NA
ATOM      6  C   UNL     1       1.222   8.694  20.037  0.00  0.00    +0.000 A 
ATOM      7  N   UNL     1       0.478   9.581  20.784  0.00  0.00    +0.000 N 
ATOM      8  C   UNL     1      -0.474  10.404  20.036  0.00  0.00    +0.000 C 
ATOM      9  C   UNL     1      -0.876  11.621  20.899  0.00  0.00    +0.000 C 
ATOM     10  N   UNL     1      -1.398  11.245  22.236  0.00  0.00    +0.000 NA
ATOM     11  C   UNL     1      -1.630  12.447  23.036  0.00  0.00    +0.000 C 
ATOM     12  C   UNL     1      -0.427  10.356  22.920  0.00  0.00    +0.000 C 
ATOM     13  C   UNL     1      -0.029   9.122  22.077  0.00  0.00    +0.000 C 
ATOM     14  N   UNL     1       1.658   9.094  18.831  0.00  0.00    +0.000 NA
ATOM     15  C   UNL     1       2.457   8.259  18.147  0.00  0.00    +0.000 A 
ATOM     16  C   UNL     1       2.829   7.018  18.601  0.00  0.00    +0.000 A 
ATOM     17  C   UNL     1       3.641   6.081  17.764  0.00  0.00    +0.000 C 
ENDROOT
BRANCH   1  18
ATOM     18  C   UNL     1       4.541   3.828  17.520  0.00  0.00    +0.000 C 
BRANCH  18  19
ATOM     19  C   UNL     1       4.980   4.350  16.144  0.00  0.00    +0.000 C 
BRANCH  19  21
ATOM     20  C   UNL     1       6.841   4.648  14.481  0.00  0.00    +0.000 C 
ATOM     21  C   UNL     1       6.477   4.186  15.883  0.00  0.00    +0.000 C 
ENDBRANCH  19  21
ENDBRANCH  18  19
ENDBRANCH   1  18
TORSDOF 3
ENDMDL
MODEL 4
REMARK VINA RESULT:      -6.5      0.929      1.499
REMARK  Name = 
REMARK  5 active torsions:
REMARK  status: ('A' for Active; 'I' for Inactive)
REMARK    1  A    between atoms: C_1  and  C_2
REMARK    2  A    between atoms: C_2  and  C_3
REMARK    3  A    between atoms: C_3  and  C_4
REMARK    4  A    between atoms: C_4  and  N_5
REMARK    5  A    between atoms: N_14  and  C_15
REMARK                            x       y       z     vdW  Elec       q    Type
REMARK                         _______ _______ _______ _____ _____    ______ ____
ROOT
ATOM      1  N   UNL     1       3.931   5.086  17.272  0.00  0.00    +0.000 NA
ATOM      2  C   UNL     1       4.486   6.450  17.193  0.00  0.00    +0.000 C 
ATOM      3  C   UNL     1       3.395   7.494  17.437  0.00  0.00    +0.000 C 
ATOM      4  C   UNL     1       2.679   7.224  18.730  0.00  0.00    +0.000 A 
ATOM      5  N   UNL     1       2.055   8.261  19.323  0.00  0.00    +0.000 NA
ATOM      6  C   UNL     1       1.423   8.037  20.490  0.00  0.00    +0.000 A 
ATOM      7  N   UNL     1       0.727   9.065  21.089  0.00  0.00    +0.000 N 
ATOM      8  C   UNL     1       0.753   9.086  22.553  0.00  0.00    +0.000 C 
ATOM      9  C   UNL     1      -0.404   9.973  23.065  0.00  0.00    +0.000 C 
ATOM     10  N   UNL     1      -0.394  11.341  22.490  0.00  0.00    +0.000 NA
ATOM     11  C   UNL     1      -1.587  12.070  22.918  0.00  0.00    +0.000 C 
ATOM     12  C   UNL     1      -0.350  11.260  21.008  0.00  0.00    +0.000 C 
ATOM     13  C   UNL     1       0.815  10.391  20.478  0.00  0.00    +0.000 C 
ATOM     14  N   UNL     1       1.379   6.825  21.067  0.00  0.00    +0.000 NA
ATOM     15  C   UNL     1       1.985   5.809  20.431  0.00  0.00    +0.000 A 
ATOM     16  C   UNL     1       2.662   5.947  19.245  0.00  0.00    +0.000 A 
ATOM     17  C   UNL     1       3.406   4.809  18.622  0.00  0.00    +0.000 C 
ENDROOT
BRANCH   1  18
ATOM     18  C   UNL     1       4.954   4.101  16.877  0.00  0.00    +0.000 C 
BRANCH  18  19
ATOM     19  C   UNL     1       6.088   4.657  16.003  0.00  0.00    +0.000 C 
BRANCH  19  21
ATOM     20  C   UNL     1       6.194   3.803  13.640  0.00  0.00    +0.000 C 
ATOM     21  C   UNL     1       5.670   4.902  14.552  0.00  0.00    +0.000 C 
ENDBRANCH  19  21
ENDBRANCH  18  19
ENDBRANCH   1  18
TORSDOF 3
ENDMDL
MODEL 5
REMARK VINA RESULT:      -6.5      0.898      2.040
REMARK  Name = 
REMARK  5 active torsions:
REMARK  status: ('A' for Active; 'I' for Inactive)
REMARK    1  A    between atoms: C_1  and  C_2
REMARK    2  A    between atoms: C_2  and  C_3
REMARK    3  A    between atoms: C_3  and  C_4
REMARK    4  A    between atoms: C_4  and  N_5
REMARK    5  A    between atoms: N_14  and  C_15
REMARK                            x       y       z     vdW  Elec       q    Type
REMARK                         _______ _______ _______ _____ _____    ______ ____
ROOT
ATOM      1  N   UNL     1       4.369   5.235  17.919  0.00  0.00    +0.000 NA
ATOM      2  C   UNL     1       3.379   4.585  18.798  0.00  0.00    +0.000 C 
ATOM      3  C   UNL     1       3.000   5.505  19.961  0.00  0.00    +0.000 C 
ATOM      4  C   UNL     1       2.547   6.844  19.454  0.00  0.00    +0.000 A 
ATOM      5  N   UNL     1       1.749   7.575  20.257  0.00  0.00    +0.000 NA
ATOM      6  C   UNL     1       1.322   8.771  19.809  0.00  0.00    +0.000 A 
ATOM      7  N   UNL     1       0.554   9.565  20.633  0.00  0.00    +0.000 N 
ATOM      8  C   UNL     1      -0.483  10.358  19.969  0.00  0.00    +0.000 C 
ATOM      9  C   UNL     1      -0.926  11.499  20.913  0.00  0.00    +0.000 C 
ATOM     10  N   UNL     1      -1.363  11.020  22.248  0.00  0.00    +0.000 NA
ATOM     11  C   UNL     1      -1.639  12.161  23.120  0.00  0.00    +0.000 C 
ATOM     12  C   UNL     1      -0.305  10.166  22.843  0.00  0.00    +0.000 C 
ATOM     13  C   UNL     1       0.137   9.007  21.919  0.00  0.00    +0.000 C 
ATOM     14  N   UNL     1       1.677   9.261  18.610  0.00  0.00    +0.000 NA
ATOM     15  C   UNL     1       2.499   8.520  17.850  0.00  0.00    +0.000 A 
ATOM     16  C   UNL     1       2.972   7.285  18.221  0.00  0.00    +0.000 A 
ATOM     17  C   UNL     1       3.806   6.450  17.302  0.00  0.00    +0.000 C 
ENDROOT
BRANCH   1  18
ATOM     18  C   UNL     1       4.843   4.280  16.901  0.00  0.00    +0.000 C 
BRANCH  18  19
ATOM     19  C   UNL     1       6.328   4.411  16.529  0.00  0.00    +0.000 C 
BRANCH  19  21
ATOM     20  C   UNL     1       7.519   6.325  17.643  0.00  0.00    +0.000 C 
ATOM     21  C   UNL     1       7.211   4.837  17.702  0.00  0.00    +0.000 C 
ENDBRANCH  19  21
ENDBRANCH  18  19
ENDBRANCH   1  18
TORSDOF 3
ENDMDL
MODEL 6
REMARK VINA RESULT:      -6.2      1.209      2.425
REMARK  Name = 
REMARK  5 active torsions:
REMARK  status: ('A' for Active; 'I' for Inactive)
REMARK    1  A    between atoms: C_1  and  C_2
REMARK    2  A    between atoms: C_2  and  C_3
REMARK    3  A    between atoms: C_3  and  C_4
REMARK    4  A    between atoms: C_4  and  N_5
REMARK    5  A    between atoms: N_14  and  C_15
REMARK                            x       y       z     vdW  Elec       q    Type
REMARK                         _______ _______ _______ _____ _____    ______ ____
ROOT
ATOM      1  N   UNL     1       3.917   5.832  18.257  0.00  0.00    +0.000 NA
ATOM      2  C   UNL     1       2.907   5.218  19.139  0.00  0.00    +0.000 C 
ATOM      3  C   UNL     1       2.514   6.177  20.264  0.00  0.00    +0.000 C 
ATOM      4  C   UNL     1       2.079   7.502  19.705  0.00  0.00    +0.000 A 
ATOM      5  N   UNL     1       1.271   8.263  20.469  0.00  0.00    +0.000 NA
ATOM      6  C   UNL     1       0.860   9.446  19.975  0.00  0.00    +0.000 A 
ATOM      7  N   UNL     1       0.083  10.272  20.758  0.00  0.00    +0.000 N 
ATOM      8  C   UNL     1      -0.937  11.049  20.050  0.00  0.00    +0.000 C 
ATOM      9  C   UNL     1      -1.389  12.222  20.948  0.00  0.00    +0.000 C 
ATOM     10  N   UNL     1      -1.852  11.790  22.290  0.00  0.00    +0.000 NA
ATOM     11  C   UNL     1      -2.136  12.961  23.119  0.00  0.00    +0.000 C 
ATOM     12  C   UNL     1      -0.811  10.950  22.931  0.00  0.00    +0.000 C 
ATOM     13  C   UNL     1      -0.360   9.759  22.054  0.00  0.00    +0.000 C 
ATOM     14  N   UNL     1       1.239   9.894  18.767  0.00  0.00    +0.000 NA
ATOM     15  C   UNL     1       2.069   9.123  18.046  0.00  0.00    +0.000 A 
ATOM     16  C   UNL     1       2.528   7.899  18.465  0.00  0.00    +0.000 A 
ATOM     17  C   UNL     1       3.373   7.030  17.590  0.00  0.00    +0.000 C 
ENDROOT
BRANCH   1  18
ATOM     18  C   UNL     1       4.403   4.842  17.279  0.00  0.00    +0.000 C 
BRANCH  18  19
ATOM     19  C   UNL     1       5.224   5.423  16.119  0.00  0.00    +0.000 C 
BRANCH  19  21
ATOM     20  C   UNL     1       7.407   4.525  16.987  0.00  0.00    +0.000 C 
ATOM     21  C   UNL     1       6.472   4.603  15.790  0.00  0.00    +0.000 C 
ENDBRANCH  19  21
ENDBRANCH  18  19
ENDBRANCH   1  18
TORSDOF 3
ENDMDL
MODEL 7
REMARK VINA RESULT:      -6.2      1.701      2.314
REMARK  Name = 
REMARK  5 active torsions:
REMARK  status: ('A' for Active; 'I' for Inactive)
REMARK    1  A    between atoms: C_1  and  C_2
REMARK    2  A    between atoms: C_2  and  C_3
REMARK    3  A    between atoms: C_3  and  C_4
REMARK    4  A    between atoms: C_4  and  N_5
REMARK    5  A    between atoms: N_14  and  C_15
REMARK                            x       y       z     vdW  Elec       q    Type
REMARK                         _______ _______ _______ _____ _____    ______ ____
ROOT
ATOM      1  N   UNL     1       4.918   4.807  16.139  0.00  0.00    +0.000 NA
ATOM      2  C   UNL     1       5.499   6.158  16.248  0.00  0.00    +0.000 C 
ATOM      3  C   UNL     1       4.405   7.201  16.490  0.00  0.00    +0.000 C 
ATOM      4  C   UNL     1       3.565   6.825  17.677  0.00  0.00    +0.000 A 
ATOM      5  N   UNL     1       2.904   7.815  18.309  0.00  0.00    +0.000 NA
ATOM      6  C   UNL     1       2.159   7.494  19.384  0.00  0.00    +0.000 A 
ATOM      7  N   UNL     1       1.425   8.476  20.013  0.00  0.00    +0.000 N 
ATOM      8  C   UNL     1       1.311   8.355  21.468  0.00  0.00    +0.000 C 
ATOM      9  C   UNL     1       0.124   9.217  21.954  0.00  0.00    +0.000 C 
ATOM     10  N   UNL     1       0.210  10.633  21.520  0.00  0.00    +0.000 NA
ATOM     11  C   UNL     1      -1.007  11.346  21.905  0.00  0.00    +0.000 C 
ATOM     12  C   UNL     1       0.394  10.694  20.049  0.00  0.00    +0.000 C 
ATOM     13  C   UNL     1       1.591   9.853  19.547  0.00  0.00    +0.000 C 
ATOM     14  N   UNL     1       2.042   6.234  19.831  0.00  0.00    +0.000 NA
ATOM     15  C   UNL     1       2.690   5.269  19.158  0.00  0.00    +0.000 A 
ATOM     16  C   UNL     1       3.480   5.505  18.060  0.00  0.00    +0.000 A 
ATOM     17  C   UNL     1       4.262   4.414  17.400  0.00  0.00    +0.000 C 
ENDROOT
BRANCH   1  18
ATOM     18  C   UNL     1       5.959   3.840  15.747  0.00  0.00    +0.000 C 
BRANCH  18  19
ATOM     19  C   UNL     1       6.545   4.051  14.343  0.00  0.00    +0.000 C 
BRANCH  19  21
ATOM     20  C   UNL     1       5.959   2.925  12.172  0.00  0.00    +0.000 C 
ATOM     21  C   UNL     1       5.507   3.923  13.227  0.00  0.00    +0.000 C 
ENDBRANCH  19  21
ENDBRANCH  18  19
ENDBRANCH   1  18
TORSDOF 3
ENDMDL
MODEL 8
REMARK VINA RESULT:      -6.1      2.018      3.356
REMARK  Name = 
REMARK  5 active torsions:
REMARK  status: ('A' for Active; 'I' for Inactive)
REMARK    1  A    between atoms: C_1  and  C_2
REMARK    2  A    between atoms: C_2  and  C_3
REMARK    3  A    between atoms: C_3  and  C_4
REMARK    4  A    between atoms: C_4  and  N_5
REMARK    5  A    between atoms: N_14  and  C_15
REMARK                            x       y       z     vdW  Elec       q    Type
REMARK                         _______ _______ _______ _____ _____    ______ ____
ROOT
ATOM      1  N   UNL     1       3.649   5.437  18.909  0.00  0.00    +0.000 NA
ATOM      2  C   UNL     1       2.490   5.197  19.790  0.00  0.00    +0.000 C 
ATOM      3  C   UNL     1       2.145   6.456  20.587  0.00  0.00    +0.000 C 
ATOM      4  C   UNL     1       1.953   7.631  19.670  0.00  0.00    +0.000 A 
ATOM      5  N   UNL     1       1.201   8.655  20.120  0.00  0.00    +0.000 NA
ATOM      6  C   UNL     1       1.008   9.707  19.303  0.00  0.00    +0.000 A 
ATOM      7  N   UNL     1       0.294  10.794  19.759  0.00  0.00    +0.000 N 
ATOM      8  C   UNL     1      -0.540  11.473  18.766  0.00  0.00    +0.000 C 
ATOM      9  C   UNL     1      -0.894  12.884  19.284  0.00  0.00    +0.000 C 
ATOM     10  N   UNL     1      -1.526  12.875  20.627  0.00  0.00    +0.000 NA
ATOM     11  C   UNL     1      -1.708  14.247  21.100  0.00  0.00    +0.000 C 
ATOM     12  C   UNL     1      -0.674  12.116  21.575  0.00  0.00    +0.000 C 
ATOM     13  C   UNL     1      -0.326  10.693  21.080  0.00  0.00    +0.000 C 
ATOM     14  N   UNL     1       1.548   9.776  18.076  0.00  0.00    +0.000 NA
ATOM     15  C   UNL     1       2.318   8.752  17.672  0.00  0.00    +0.000 A 
ATOM     16  C   UNL     1       2.559   7.635  18.433  0.00  0.00    +0.000 A 
ATOM     17  C   UNL     1       3.341   6.474  17.907  0.00  0.00    +0.000 C 
ENDROOT
BRANCH   1  18
ATOM     18  C   UNL     1       4.068   4.176  18.272  0.00  0.00    +0.000 C 
BRANCH  18  19
ATOM     19  C   UNL     1       3.069   3.597  17.259  0.00  0.00    +0.000 C 
BRANCH  19  21
ATOM     20  C   UNL     1       3.504   1.534  18.629  0.00  0.00    +0.000 C 
ATOM     21  C   UNL     1       2.571   2.200  17.630  0.00  0.00    +0.000 C 
ENDBRANCH  19  21
ENDBRANCH  18  19
ENDBRANCH   1  18
TORSDOF 3
ENDMDL
MODEL 9
REMARK VINA RESULT:      -6.1      2.050      8.338
REMARK  Name = 
REMARK  5 active torsions:
REMARK  status: ('A' for Active; 'I' for Inactive)
REMARK    1  A    between atoms: C_1  and  C_2
REMARK    2  A    between atoms: C_2  and  C_3
REMARK    3  A    between atoms: C_3  and  C_4
REMARK    4  A    between atoms: C_4  and  N_5
REMARK    5  A    between atoms: N_14  and  C_15
REMARK                            x       y       z     vdW  Elec       q    Type
REMARK                         _______ _______ _______ _____ _____    ______ ____
ROOT
ATOM      1  N   UNL     1      -0.800  11.160  21.368  0.00  0.00    +0.000 NA
ATOM      2  C   UNL     1      -0.347  10.453  22.580  0.00  0.00    +0.000 C 
ATOM      3  C   UNL     1      -0.273   8.945  22.333  0.00  0.00    +0.000 C 
ATOM      4  C   UNL     1       0.571   8.644  21.127  0.00  0.00    +0.000 A 
ATOM      5  N   UNL     1       1.127   7.419  21.048  0.00  0.00    +0.000 NA
ATOM      6  C   UNL     1       1.899   7.141  19.981  0.00  0.00    +0.000 A 
ATOM      7  N   UNL     1       2.431   5.877  19.844  0.00  0.00    +0.000 N 
ATOM      8  C   UNL     1       3.766   5.808  19.246  0.00  0.00    +0.000 C 
ATOM      9  C   UNL     1       4.021   4.368  18.747  0.00  0.00    +0.000 C 
ATOM     10  N   UNL     1       3.830   3.340  19.799  0.00  0.00    +0.000 NA
ATOM     11  C   UNL     1       3.959   2.004  19.218  0.00  0.00    +0.000 C 
ATOM     12  C   UNL     1       2.490   3.500  20.417  0.00  0.00    +0.000 C 
ATOM     13  C   UNL     1       2.227   4.931  20.940  0.00  0.00    +0.000 C 
ATOM     14  N   UNL     1       2.115   8.028  18.996  0.00  0.00    +0.000 NA
ATOM     15  C   UNL     1       1.520   9.227  19.093  0.00  0.00    +0.000 A 
ATOM     16  C   UNL     1       0.727   9.601  20.150  0.00  0.00    +0.000 A 
ATOM     17  C   UNL     1       0.163  10.981  20.265  0.00  0.00    +0.000 C 
ENDROOT
BRANCH   1  18
ATOM     18  C   UNL     1      -1.021  12.586  21.668  0.00  0.00    +0.000 C 
BRANCH  18  19
ATOM     19  C   UNL     1      -1.648  12.872  23.040  0.00  0.00    +0.000 C 
BRANCH  19  21
ATOM     20  C   UNL     1      -3.835  12.379  24.180  0.00  0.00    +0.000 C 
ATOM     21  C   UNL     1      -3.166  13.046  22.988  0.00  0.00    +0.000 C 
ENDBRANCH  19  21
ENDBRANCH  18  19
ENDBRANCH   1  18
TORSDOF 3
ENDMDL
