MODEL 1
REMARK VINA RESULT:      -8.2      0.000      0.000
REMARK  Name = 
REMARK  7 active torsions:
REMARK  status: ('A' for Active; 'I' for Inactive)
REMARK    1  A    between atoms: C_1  and  C_2
REMARK    2  A    between atoms: C_2  and  C_3
REMARK    3  A    between atoms: C_13  and  C_14
REMARK    4  A    between atoms: N_16  and  C_17
REMARK    5  A    between atoms: C_17  and  C_18
REMARK    6  A    between atoms: C_21  and  C_22
REMARK    7  A    between atoms: C_22  and  C_23
REMARK                            x       y       z     vdW  Elec       q    Type
REMARK                         _______ _______ _______ _____ _____    ______ ____
ROOT
ATOM      1  C   UNL     1       2.300   3.931  17.605  0.00  0.00    +0.000 C 
ATOM      2  O   UNL     1       1.102   4.102  17.850  0.00  0.00    +0.000 OA
ATOM      3  N   UNL     1       3.174   5.000  17.588  0.00  0.00    +0.000 N 
ATOM      4  C   UNL     1       4.534   5.124  17.244  0.00  0.00    +0.000 A 
ATOM      5  C   UNL     1       5.468   4.171  16.870  0.00  0.00    +0.000 A 
ATOM      6  C   UNL     1       6.786   4.573  16.623  0.00  0.00    +0.000 A 
ATOM      7  C   UNL     1       7.163   5.917  16.743  0.00  0.00    +0.000 A 
ATOM      8  C   UNL     1       6.220   6.880  17.087  0.00  0.00    +0.000 A 
ATOM      9  C   UNL     1       4.916   6.468  17.329  0.00  0.00    +0.000 A 
ATOM     10  C   UNL     1       3.748   7.357  17.628  0.00  0.00    +0.000 C 
ATOM     11  C   UNL     1       2.669   6.335  18.006  0.00  0.00    +0.000 C 
ENDROOT
BRANCH  11  12
ATOM     12  C   UNL     1       2.426   6.403  19.530  0.00  0.00    +0.000 C 
ATOM     13  O   UNL     1       2.681   5.446  20.262  0.00  0.00    +0.000 OA
ATOM     14  N   UNL     1       1.754   7.523  19.981  0.00  0.00    +0.000 N 
ATOM     15  H   UNL     1       1.521   8.245  19.313  0.00  0.00    +0.000 HD
BRANCH  14  16
ATOM     16  C   UNL     1       1.501   7.774  21.378  0.00  0.00    +0.000 C 
BRANCH  16  17
ATOM     17  C   UNL     1       0.592   8.959  21.575  0.00  0.00    +0.000 A 
ATOM     18  C   UNL     1       0.050   9.237  22.836  0.00  0.00    +0.000 A 
ATOM     19  C   UNL     1      -0.766  10.354  23.034  0.00  0.00    +0.000 A 
ATOM     20  C   UNL     1      -1.060  11.217  21.971  0.00  0.00    +0.000 A 
ATOM     21  C   UNL     1      -0.504  10.954  20.714  0.00  0.00    +0.000 A 
ATOM     22  C   UNL     1       0.311   9.834  20.515  0.00  0.00    +0.000 A 
BRANCH  20  23
ATOM     23  C   UNL     1      -1.951  12.414  22.185  0.00  0.00    +0.000 C 
ATOM     24  C   UNL     1      -2.934  12.218  23.330  0.00  0.00    +0.000 C 
ENDBRANCH  20  23
ENDBRANCH  16  17
ENDBRANCH  14  16
ENDBRANCH  11  12
BRANCH   1  26
ATOM     25  C   UNL     1       3.186   1.825  18.677  0.00  0.00    +0.000 C 
ATOM     26  C   UNL     1       2.841   2.534  17.376  0.00  0.00    +0.000 C 
ENDBRANCH   1  26
TORSDOF 5
ENDMDL
MODEL 2
REMARK VINA RESULT:      -7.7      2.899      8.623
REMARK  Name = 
REMARK  7 active torsions:
REMARK  status: ('A' for Active; 'I' for Inactive)
REMARK    1  A    between atoms: C_1  and  C_2
REMARK    2  A    between atoms: C_2  and  C_3
REMARK    3  A    between atoms: C_13  and  C_14
REMARK    4  A    between atoms: N_16  and  C_17
REMARK    5  A    between atoms: C_17  and  C_18
REMARK    6  A    between atoms: C_21  and  C_22
REMARK    7  A    between atoms: C_22  and  C_23
REMARK                            x       y       z     vdW  Elec       q    Type
REMARK                         _______ _______ _______ _____ _____    ______ ____
ROOT
ATOM      1  C   UNL     1      -0.640  12.112  21.069  0.00  0.00    +0.000 C 
ATOM      2  O   UNL     1       0.425  12.119  21.693  0.00  0.00    +0.000 OA
ATOM      3  N   UNL     1      -0.779  11.353  19.923  0.00  0.00    +0.000 N 
ATOM      4  C   UNL     1      -1.807  11.233  18.968  0.00  0.00    +0.000 A 
ATOM      5  C   UNL     1      -3.069  11.805  18.914  0.00  0.00    +0.000 A 
ATOM      6  C   UNL     1      -3.919  11.471  17.853  0.00  0.00    +0.000 A 
ATOM      7  C   UNL     1      -3.508  10.580  16.854  0.00  0.00    +0.000 A 
ATOM      8  C   UNL     1      -2.230  10.031  16.889  0.00  0.00    +0.000 A 
ATOM      9  C   UNL     1      -1.397  10.370  17.947  0.00  0.00    +0.000 A 
ATOM     10  C   UNL     1       0.032   9.951  18.117  0.00  0.00    +0.000 C 
ATOM     11  C   UNL     1       0.331  10.442  19.538  0.00  0.00    +0.000 C 
ENDROOT
BRANCH  11  12
ATOM     12  C   UNL     1       0.422   9.221  20.481  0.00  0.00    +0.000 C 
ATOM     13  O   UNL     1      -0.372   9.070  21.411  0.00  0.00    +0.000 OA
ATOM     14  N   UNL     1       1.536   8.419  20.320  0.00  0.00    +0.000 N 
ATOM     15  H   UNL     1       2.181   8.637  19.571  0.00  0.00    +0.000 HD
BRANCH  14  16
ATOM     16  C   UNL     1       1.744   7.208  21.073  0.00  0.00    +0.000 C 
BRANCH  16  17
ATOM     17  C   UNL     1       1.951   6.020  20.170  0.00  0.00    +0.000 A 
ATOM     18  C   UNL     1       1.544   4.742  20.574  0.00  0.00    +0.000 A 
ATOM     19  C   UNL     1       1.701   3.640  19.728  0.00  0.00    +0.000 A 
ATOM     20  C   UNL     1       2.272   3.794  18.459  0.00  0.00    +0.000 A 
ATOM     21  C   UNL     1       2.661   5.073  18.044  0.00  0.00    +0.000 A 
ATOM     22  C   UNL     1       2.506   6.176  18.891  0.00  0.00    +0.000 A 
BRANCH  20  23
ATOM     23  C   UNL     1       2.451   2.602  17.554  0.00  0.00    +0.000 C 
ATOM     24  C   UNL     1       3.469   1.606  18.089  0.00  0.00    +0.000 C 
ENDBRANCH  20  23
ENDBRANCH  16  17
ENDBRANCH  14  16
ENDBRANCH  11  12
BRANCH   1  26
ATOM     25  C   UNL     1      -1.602  13.450  22.979  0.00  0.00    +0.000 C 
ATOM     26  C   UNL     1      -1.833  12.892  21.583  0.00  0.00    +0.000 C 
ENDBRANCH   1  26
TORSDOF 5
ENDMDL
MODEL 3
REMARK VINA RESULT:      -7.7      3.106      7.241
REMARK  Name = 
REMARK  7 active torsions:
REMARK  status: ('A' for Active; 'I' for Inactive)
REMARK    1  A    between atoms: C_1  and  C_2
REMARK    2  A    between atoms: C_2  and  C_3
REMARK    3  A    between atoms: C_13  and  C_14
REMARK    4  A    between atoms: N_16  and  C_17
REMARK    5  A    between atoms: C_17  and  C_18
REMARK    6  A    between atoms: C_21  and  C_22
REMARK    7  A    between atoms: C_22  and  C_23
REMARK                            x       y       z     vdW  Elec       q    Type
REMARK                         _______ _______ _______ _____ _____    ______ ____
ROOT
ATOM      1  C   UNL     1       2.792   6.590  18.105  0.00  0.00    +0.000 C 
ATOM      2  O   UNL     1       3.082   7.087  17.012  0.00  0.00    +0.000 OA
ATOM      3  N   UNL     1       2.670   5.221  18.244  0.00  0.00    +0.000 N 
ATOM      4  C   UNL     1       2.257   4.397  19.309  0.00  0.00    +0.000 A 
ATOM      5  C   UNL     1       1.897   4.706  20.611  0.00  0.00    +0.000 A 
ATOM      6  C   UNL     1       1.566   3.666  21.489  0.00  0.00    +0.000 A 
ATOM      7  C   UNL     1       1.587   2.332  21.063  0.00  0.00    +0.000 A 
ATOM      8  C   UNL     1       1.916   2.022  19.747  0.00  0.00    +0.000 A 
ATOM      9  C   UNL     1       2.243   3.063  18.888  0.00  0.00    +0.000 A 
ATOM     10  C   UNL     1       2.542   2.941  17.425  0.00  0.00    +0.000 C 
ATOM     11  C   UNL     1       3.030   4.356  17.090  0.00  0.00    +0.000 C 
ENDROOT
BRANCH  11  12
ATOM     12  C   UNL     1       4.557   4.318  16.858  0.00  0.00    +0.000 C 
ATOM     13  O   UNL     1       5.029   4.065  15.749  0.00  0.00    +0.000 OA
ATOM     14  N   UNL     1       5.338   4.413  17.993  0.00  0.00    +0.000 N 
ATOM     15  H   UNL     1       4.879   4.560  18.882  0.00  0.00    +0.000 HD
BRANCH  14  16
ATOM     16  C   UNL     1       6.779   4.457  17.950  0.00  0.00    +0.000 C 
BRANCH  16  17
ATOM     17  C   UNL     1       7.294   5.871  18.005  0.00  0.00    +0.000 A 
ATOM     18  C   UNL     1       6.884   6.815  17.054  0.00  0.00    +0.000 A 
ATOM     19  C   UNL     1       7.331   8.137  17.120  0.00  0.00    +0.000 A 
ATOM     20  C   UNL     1       8.202   8.545  18.137  0.00  0.00    +0.000 A 
ATOM     21  C   UNL     1       8.599   7.610  19.101  0.00  0.00    +0.000 A 
ATOM     22  C   UNL     1       8.153   6.285  19.035  0.00  0.00    +0.000 A 
BRANCH  20  23
ATOM     23  C   UNL     1       8.692   9.969  18.197  0.00  0.00    +0.000 C 
ATOM     24  C   UNL     1       9.334  10.313  19.533  0.00  0.00    +0.000 C 
ENDBRANCH  20  23
ENDBRANCH  16  17
ENDBRANCH  14  16
ENDBRANCH  11  12
BRANCH   1  26
ATOM     25  C   UNL     1       1.782   8.706  19.036  0.00  0.00    +0.000 C 
ATOM     26  C   UNL     1       2.623   7.472  19.325  0.00  0.00    +0.000 C 
ENDBRANCH   1  26
TORSDOF 5
ENDMDL
MODEL 4
REMARK VINA RESULT:      -7.6      1.644      3.509
REMARK  Name = 
REMARK  7 active torsions:
REMARK  status: ('A' for Active; 'I' for Inactive)
REMARK    1  A    between atoms: C_1  and  C_2
REMARK    2  A    between atoms: C_2  and  C_3
REMARK    3  A    between atoms: C_13  and  C_14
REMARK    4  A    between atoms: N_16  and  C_17
REMARK    5  A    between atoms: C_17  and  C_18
REMARK    6  A    between atoms: C_21  and  C_22
REMARK    7  A    between atoms: C_22  and  C_23
REMARK                            x       y       z     vdW  Elec       q    Type
REMARK                         _______ _______ _______ _____ _____    ______ ____
ROOT
ATOM      1  C   UNL     1       4.644   5.837  17.347  0.00  0.00    +0.000 C 
ATOM      2  O   UNL     1       5.277   6.889  17.483  0.00  0.00    +0.000 OA
ATOM      3  N   UNL     1       3.609   5.524  18.206  0.00  0.00    +0.000 N 
ATOM      4  C   UNL     1       2.801   4.380  18.360  0.00  0.00    +0.000 A 
ATOM      5  C   UNL     1       2.744   3.203  17.631  0.00  0.00    +0.000 A 
ATOM      6  C   UNL     1       1.797   2.233  17.982  0.00  0.00    +0.000 A 
ATOM      7  C   UNL     1       0.923   2.438  19.057  0.00  0.00    +0.000 A 
ATOM      8  C   UNL     1       1.000   3.605  19.810  0.00  0.00    +0.000 A 
ATOM      9  C   UNL     1       1.944   4.559  19.450  0.00  0.00    +0.000 A 
ATOM     10  C   UNL     1       2.235   5.833  20.181  0.00  0.00    +0.000 C 
ATOM     11  C   UNL     1       3.186   6.539  19.206  0.00  0.00    +0.000 C 
ENDROOT
BRANCH  11  12
ATOM     12  C   UNL     1       2.439   7.718  18.543  0.00  0.00    +0.000 C 
ATOM     13  O   UNL     1       2.625   8.010  17.361  0.00  0.00    +0.000 OA
ATOM     14  N   UNL     1       1.696   8.513  19.395  0.00  0.00    +0.000 N 
ATOM     15  H   UNL     1       1.636   8.248  20.369  0.00  0.00    +0.000 HD
BRANCH  14  16
ATOM     16  C   UNL     1       0.889   9.615  18.933  0.00  0.00    +0.000 C 
BRANCH  16  17
ATOM     17  C   UNL     1       0.182  10.302  20.071  0.00  0.00    +0.000 A 
ATOM     18  C   UNL     1      -0.542  11.481  19.849  0.00  0.00    +0.000 A 
ATOM     19  C   UNL     1      -1.229  12.105  20.894  0.00  0.00    +0.000 A 
ATOM     20  C   UNL     1      -1.206  11.564  22.185  0.00  0.00    +0.000 A 
ATOM     21  C   UNL     1      -0.501  10.375  22.406  0.00  0.00    +0.000 A 
ATOM     22  C   UNL     1       0.189   9.751  21.361  0.00  0.00    +0.000 A 
BRANCH  20  23
ATOM     23  C   UNL     1      -1.939  12.247  23.311  0.00  0.00    +0.000 C 
ATOM     24  C   UNL     1      -3.413  12.466  23.005  0.00  0.00    +0.000 C 
ENDBRANCH  20  23
ENDBRANCH  16  17
ENDBRANCH  14  16
ENDBRANCH  11  12
BRANCH   1  26
ATOM     25  C   UNL     1       6.379   4.365  16.256  0.00  0.00    +0.000 C 
ATOM     26  C   UNL     1       4.957   4.901  16.198  0.00  0.00    +0.000 C 
ENDBRANCH   1  26
TORSDOF 5
ENDMDL
MODEL 5
REMARK VINA RESULT:      -7.6      5.391      7.537
REMARK  Name = 
REMARK  7 active torsions:
REMARK  status: ('A' for Active; 'I' for Inactive)
REMARK    1  A    between atoms: C_1  and  C_2
REMARK    2  A    between atoms: C_2  and  C_3
REMARK    3  A    between atoms: C_13  and  C_14
REMARK    4  A    between atoms: N_16  and  C_17
REMARK    5  A    between atoms: C_17  and  C_18
REMARK    6  A    between atoms: C_21  and  C_22
REMARK    7  A    between atoms: C_22  and  C_23
REMARK                            x       y       z     vdW  Elec       q    Type
REMARK                         _______ _______ _______ _____ _____    ______ ____
ROOT
ATOM      1  C   UNL     1       6.707   4.420  15.756  0.00  0.00    +0.000 C 
ATOM      2  O   UNL     1       7.778   4.910  15.383  0.00  0.00    +0.000 OA
ATOM      3  N   UNL     1       6.216   4.685  17.019  0.00  0.00    +0.000 N 
ATOM      4  C   UNL     1       5.109   4.197  17.742  0.00  0.00    +0.000 A 
ATOM      5  C   UNL     1       4.098   3.323  17.375  0.00  0.00    +0.000 A 
ATOM      6  C   UNL     1       3.080   3.040  18.294  0.00  0.00    +0.000 A 
ATOM      7  C   UNL     1       3.079   3.621  19.568  0.00  0.00    +0.000 A 
ATOM      8  C   UNL     1       4.111   4.474  19.950  0.00  0.00    +0.000 A 
ATOM      9  C   UNL     1       5.114   4.746  19.029  0.00  0.00    +0.000 A 
ATOM     10  C   UNL     1       6.343   5.566  19.277  0.00  0.00    +0.000 C 
ATOM     11  C   UNL     1       6.930   5.679  17.864  0.00  0.00    +0.000 C 
ENDROOT
BRANCH  11  12
ATOM     12  C   UNL     1       6.723   7.121  17.350  0.00  0.00    +0.000 C 
ATOM     13  O   UNL     1       5.823   7.394  16.555  0.00  0.00    +0.000 OA
ATOM     14  N   UNL     1       7.704   8.029  17.699  0.00  0.00    +0.000 N 
ATOM     15  H   UNL     1       8.451   7.720  18.308  0.00  0.00    +0.000 HD
BRANCH  14  16
ATOM     16  C   UNL     1       7.634   9.428  17.356  0.00  0.00    +0.000 C 
BRANCH  16  17
ATOM     17  C   UNL     1       8.581  10.253  18.187  0.00  0.00    +0.000 A 
ATOM     18  C   UNL     1       8.980  11.525  17.757  0.00  0.00    +0.000 A 
ATOM     19  C   UNL     1       9.831  12.310  18.540  0.00  0.00    +0.000 A 
ATOM     20  C   UNL     1      10.304  11.838  19.770  0.00  0.00    +0.000 A 
ATOM     21  C   UNL     1       9.892  10.576  20.212  0.00  0.00    +0.000 A 
ATOM     22  C   UNL     1       9.041   9.788  19.428  0.00  0.00    +0.000 A 
BRANCH  20  23
ATOM     23  C   UNL     1      11.231  12.683  20.606  0.00  0.00    +0.000 C 
ATOM     24  C   UNL     1      10.809  14.144  20.657  0.00  0.00    +0.000 C 
ENDBRANCH  20  23
ENDBRANCH  16  17
ENDBRANCH  14  16
ENDBRANCH  11  12
BRANCH   1  26
ATOM     25  C   UNL     1       6.164   3.888  13.350  0.00  0.00    +0.000 C 
ATOM     26  C   UNL     1       5.887   3.567  14.811  0.00  0.00    +0.000 C 
ENDBRANCH   1  26
TORSDOF 5
ENDMDL
MODEL 6
REMARK VINA RESULT:      -7.6      1.710      3.513
REMARK  Name = 
REMARK  7 active torsions:
REMARK  status: ('A' for Active; 'I' for Inactive)
REMARK    1  A    between atoms: C_1  and  C_2
REMARK    2  A    between atoms: C_2  and  C_3
REMARK    3  A    between atoms: C_13  and  C_14
REMARK    4  A    between atoms: N_16  and  C_17
REMARK    5  A    between atoms: C_17  and  C_18
REMARK    6  A    between atoms: C_21  and  C_22
REMARK    7  A    between atoms: C_22  and  C_23
REMARK                            x       y       z     vdW  Elec       q    Type
REMARK                         _______ _______ _______ _____ _____    ______ ____
ROOT
ATOM      1  C   UNL     1       4.537   5.702  17.513  0.00  0.00    +0.000 C 
ATOM      2  O   UNL     1       5.199   6.738  17.631  0.00  0.00    +0.000 OA
ATOM      3  N   UNL     1       3.496   5.430  18.380  0.00  0.00    +0.000 N 
ATOM      4  C   UNL     1       2.658   4.312  18.553  0.00  0.00    +0.000 A 
ATOM      5  C   UNL     1       2.566   3.126  17.843  0.00  0.00    +0.000 A 
ATOM      6  C   UNL     1       1.594   2.187  18.212  0.00  0.00    +0.000 A 
ATOM      7  C   UNL     1       0.729   2.433  19.286  0.00  0.00    +0.000 A 
ATOM      8  C   UNL     1       0.841   3.609  20.021  0.00  0.00    +0.000 A 
ATOM      9  C   UNL     1       1.809   4.531  19.644  0.00  0.00    +0.000 A 
ATOM     10  C   UNL     1       2.138   5.808  20.354  0.00  0.00    +0.000 C 
ATOM     11  C   UNL     1       3.104   6.472  19.365  0.00  0.00    +0.000 C 
ENDROOT
BRANCH  11  12
ATOM     12  C   UNL     1       2.388   7.661  18.686  0.00  0.00    +0.000 C 
ATOM     13  O   UNL     1       2.547   7.905  17.490  0.00  0.00    +0.000 OA
ATOM     14  N   UNL     1       1.709   8.516  19.533  0.00  0.00    +0.000 N 
ATOM     15  H   UNL     1       1.669   8.286  20.518  0.00  0.00    +0.000 HD
BRANCH  14  16
ATOM     16  C   UNL     1       0.936   9.637  19.059  0.00  0.00    +0.000 C 
BRANCH  16  17
ATOM     17  C   UNL     1       0.125  10.261  20.165  0.00  0.00    +0.000 A 
ATOM     18  C   UNL     1       0.255   9.808  21.484  0.00  0.00    +0.000 A 
ATOM     19  C   UNL     1      -0.469  10.405  22.520  0.00  0.00    +0.000 A 
ATOM     20  C   UNL     1      -1.341  11.469  22.258  0.00  0.00    +0.000 A 
ATOM     21  C   UNL     1      -1.458  11.938  20.944  0.00  0.00    +0.000 A 
ATOM     22  C   UNL     1      -0.735  11.339  19.906  0.00  0.00    +0.000 A 
BRANCH  20  23
ATOM     23  C   UNL     1      -2.128  12.102  23.375  0.00  0.00    +0.000 C 
ATOM     24  C   UNL     1      -2.388  13.583  23.145  0.00  0.00    +0.000 C 
ENDBRANCH  20  23
ENDBRANCH  16  17
ENDBRANCH  14  16
ENDBRANCH  11  12
BRANCH   1  26
ATOM     25  C   UNL     1       5.494   5.420  15.196  0.00  0.00    +0.000 C 
ATOM     26  C   UNL     1       4.820   4.740  16.377  0.00  0.00    +0.000 C 
ENDBRANCH   1  26
TORSDOF 5
ENDMDL
MODEL 7
REMARK VINA RESULT:      -7.5      3.562      7.264
REMARK  Name = 
REMARK  7 active torsions:
REMARK  status: ('A' for Active; 'I' for Inactive)
REMARK    1  A    between atoms: C_1  and  C_2
REMARK    2  A    between atoms: C_2  and  C_3
REMARK    3  A    between atoms: C_13  and  C_14
REMARK    4  A    between atoms: N_16  and  C_17
REMARK    5  A    between atoms: C_17  and  C_18
REMARK    6  A    between atoms: C_21  and  C_22
REMARK    7  A    between atoms: C_22  and  C_23
REMARK                            x       y       z     vdW  Elec       q    Type
REMARK                         _______ _______ _______ _____ _____    ______ ____
ROOT
ATOM      1  C   UNL     1       3.494   7.023  17.758  0.00  0.00    +0.000 C 
ATOM      2  O   UNL     1       4.286   7.815  17.238  0.00  0.00    +0.000 OA
ATOM      3  N   UNL     1       3.697   5.660  17.661  0.00  0.00    +0.000 N 
ATOM      4  C   UNL     1       2.929   4.544  18.049  0.00  0.00    +0.000 A 
ATOM      5  C   UNL     1       1.725   4.462  18.730  0.00  0.00    +0.000 A 
ATOM      6  C   UNL     1       1.199   3.199  19.027  0.00  0.00    +0.000 A 
ATOM      7  C   UNL     1       1.869   2.032  18.639  0.00  0.00    +0.000 A 
ATOM      8  C   UNL     1       3.061   2.112  17.926  0.00  0.00    +0.000 A 
ATOM      9  C   UNL     1       3.571   3.371  17.638  0.00  0.00    +0.000 A 
ATOM     10  C   UNL     1       4.789   3.665  16.817  0.00  0.00    +0.000 C 
ATOM     11  C   UNL     1       4.957   5.173  17.040  0.00  0.00    +0.000 C 
ENDROOT
BRANCH  11  12
ATOM     12  C   UNL     1       6.177   5.412  17.957  0.00  0.00    +0.000 C 
ATOM     13  O   UNL     1       6.454   4.631  18.869  0.00  0.00    +0.000 OA
ATOM     14  N   UNL     1       6.818   6.625  17.799  0.00  0.00    +0.000 N 
ATOM     15  H   UNL     1       6.498   7.246  17.068  0.00  0.00    +0.000 HD
BRANCH  14  16
ATOM     16  C   UNL     1       8.009   6.982  18.530  0.00  0.00    +0.000 C 
BRANCH  16  17
ATOM     17  C   UNL     1       8.316   8.451  18.410  0.00  0.00    +0.000 A 
ATOM     18  C   UNL     1       7.673   9.235  17.442  0.00  0.00    +0.000 A 
ATOM     19  C   UNL     1       7.928  10.606  17.348  0.00  0.00    +0.000 A 
ATOM     20  C   UNL     1       8.834  11.224  18.218  0.00  0.00    +0.000 A 
ATOM     21  C   UNL     1       9.464  10.448  19.199  0.00  0.00    +0.000 A 
ATOM     22  C   UNL     1       9.211   9.075  19.293  0.00  0.00    +0.000 A 
BRANCH  20  23
ATOM     23  C   UNL     1       9.115  12.700  18.105  0.00  0.00    +0.000 C 
ATOM     24  C   UNL     1      10.540  12.994  17.660  0.00  0.00    +0.000 C 
ENDBRANCH  20  23
ENDBRANCH  16  17
ENDBRANCH  14  16
ENDBRANCH  11  12
BRANCH   1  26
ATOM     25  C   UNL     1       1.716   8.801  17.968  0.00  0.00    +0.000 C 
ATOM     26  C   UNL     1       2.317   7.537  18.562  0.00  0.00    +0.000 C 
ENDBRANCH   1  26
TORSDOF 5
ENDMDL
MODEL 8
REMARK VINA RESULT:      -7.5      2.488      3.041
REMARK  Name = 
REMARK  7 active torsions:
REMARK  status: ('A' for Active; 'I' for Inactive)
REMARK    1  A    between atoms: C_1  and  C_2
REMARK    2  A    between atoms: C_2  and  C_3
REMARK    3  A    between atoms: C_13  and  C_14
REMARK    4  A    between atoms: N_16  and  C_17
REMARK    5  A    between atoms: C_17  and  C_18
REMARK    6  A    between atoms: C_21  and  C_22
REMARK    7  A    between atoms: C_22  and  C_23
REMARK                            x       y       z     vdW  Elec       q    Type
REMARK                         _______ _______ _______ _____ _____    ______ ____
ROOT
ATOM      1  C   UNL     1       2.688   4.547  19.242  0.00  0.00    +0.000 C 
ATOM      2  O   UNL     1       1.457   4.599  19.154  0.00  0.00    +0.000 OA
ATOM      3  N   UNL     1       3.479   5.482  18.604  0.00  0.00    +0.000 N 
ATOM      4  C   UNL     1       4.872   5.610  18.439  0.00  0.00    +0.000 A 
ATOM      5  C   UNL     1       5.919   4.853  18.938  0.00  0.00    +0.000 A 
ATOM      6  C   UNL     1       7.234   5.239  18.647  0.00  0.00    +0.000 A 
ATOM      7  C   UNL     1       7.494   6.367  17.858  0.00  0.00    +0.000 A 
ATOM      8  C   UNL     1       6.443   7.109  17.329  0.00  0.00    +0.000 A 
ATOM      9  C   UNL     1       5.145   6.715  17.626  0.00  0.00    +0.000 A 
ATOM     10  C   UNL     1       3.889   7.331  17.088  0.00  0.00    +0.000 C 
ATOM     11  C   UNL     1       2.816   6.628  17.928  0.00  0.00    +0.000 C 
ENDROOT
BRANCH  11  12
ATOM     12  C   UNL     1       2.235   7.635  18.946  0.00  0.00    +0.000 C 
ATOM     13  O   UNL     1       2.210   7.384  20.151  0.00  0.00    +0.000 OA
ATOM     14  N   UNL     1       1.603   8.738  18.404  0.00  0.00    +0.000 N 
ATOM     15  H   UNL     1       1.610   8.851  17.399  0.00  0.00    +0.000 HD
BRANCH  14  16
ATOM     16  C   UNL     1       1.063   9.805  19.210  0.00  0.00    +0.000 C 
BRANCH  16  17
ATOM     17  C   UNL     1      -0.276  10.266  18.698  0.00  0.00    +0.000 A 
ATOM     18  C   UNL     1      -0.838   9.684  17.555  0.00  0.00    +0.000 A 
ATOM     19  C   UNL     1      -2.095  10.083  17.093  0.00  0.00    +0.000 A 
ATOM     20  C   UNL     1      -2.817  11.078  17.764  0.00  0.00    +0.000 A 
ATOM     21  C   UNL     1      -2.267  11.648  18.918  0.00  0.00    +0.000 A 
ATOM     22  C   UNL     1      -1.008  11.250  19.380  0.00  0.00    +0.000 A 
BRANCH  20  23
ATOM     23  C   UNL     1      -4.167  11.514  17.257  0.00  0.00    +0.000 C 
ATOM     24  C   UNL     1      -5.316  10.942  18.074  0.00  0.00    +0.000 C 
ENDBRANCH  20  23
ENDBRANCH  16  17
ENDBRANCH  14  16
ENDBRANCH  11  12
BRANCH   1  26
ATOM     25  C   UNL     1       2.487   3.085  21.289  0.00  0.00    +0.000 C 
ATOM     26  C   UNL     1       3.348   3.488  20.102  0.00  0.00    +0.000 C 
ENDBRANCH   1  26
TORSDOF 5
ENDMDL
MODEL 9
REMARK VINA RESULT:      -7.5      1.917      3.617
REMARK  Name = 
REMARK  7 active torsions:
REMARK  status: ('A' for Active; 'I' for Inactive)
REMARK    1  A    between atoms: C_1  and  C_2
REMARK    2  A    between atoms: C_2  and  C_3
REMARK    3  A    between atoms: C_13  and  C_14
REMARK    4  A    between atoms: N_16  and  C_17
REMARK    5  A    between atoms: C_17  and  C_18
REMARK    6  A    between atoms: C_21  and  C_22
REMARK    7  A    between atoms: C_22  and  C_23
REMARK                            x       y       z     vdW  Elec       q    Type
REMARK                         _______ _______ _______ _____ _____    ______ ____
ROOT
ATOM      1  C   UNL     1       4.910   4.889  17.309  0.00  0.00    +0.000 C 
ATOM      2  O   UNL     1       5.730   5.812  17.271  0.00  0.00    +0.000 OA
ATOM      3  N   UNL     1       3.851   4.926  18.195  0.00  0.00    +0.000 N 
ATOM      4  C   UNL     1       2.847   3.997  18.532  0.00  0.00    +0.000 A 
ATOM      5  C   UNL     1       2.558   2.744  18.016  0.00  0.00    +0.000 A 
ATOM      6  C   UNL     1       1.454   2.042  18.517  0.00  0.00    +0.000 A 
ATOM      7  C   UNL     1       0.654   2.588  19.528  0.00  0.00    +0.000 A 
ATOM      8  C   UNL     1       0.962   3.832  20.070  0.00  0.00    +0.000 A 
ATOM      9  C   UNL     1       2.059   4.517  19.565  0.00  0.00    +0.000 A 
ATOM     10  C   UNL     1       2.597   5.821  20.069  0.00  0.00    +0.000 C 
ATOM     11  C   UNL     1       3.643   6.159  19.000  0.00  0.00    +0.000 C 
ENDROOT
BRANCH  11  12
ATOM     12  C   UNL     1       3.116   7.325  18.134  0.00  0.00    +0.000 C 
ATOM     13  O   UNL     1       3.727   7.706  17.135  0.00  0.00    +0.000 OA
ATOM     14  N   UNL     1       2.030   8.008  18.645  0.00  0.00    +0.000 N 
ATOM     15  H   UNL     1       1.614   7.676  19.505  0.00  0.00    +0.000 HD
BRANCH  14  16
ATOM     16  C   UNL     1       1.376   9.081  17.937  0.00  0.00    +0.000 C 
BRANCH  16  17
ATOM     17  C   UNL     1       0.494   9.893  18.848  0.00  0.00    +0.000 A 
ATOM     18  C   UNL     1       0.846  10.088  20.190  0.00  0.00    +0.000 A 
ATOM     19  C   UNL     1       0.050  10.869  21.032  0.00  0.00    +0.000 A 
ATOM     20  C   UNL     1      -1.119  11.471  20.551  0.00  0.00    +0.000 A 
ATOM     21  C   UNL     1      -1.464  11.295  19.205  0.00  0.00    +0.000 A 
ATOM     22  C   UNL     1      -0.669  10.511  18.362  0.00  0.00    +0.000 A 
BRANCH  20  23
ATOM     23  C   UNL     1      -1.981  12.302  21.465  0.00  0.00    +0.000 C 
ATOM     24  C   UNL     1      -1.842  11.903  22.927  0.00  0.00    +0.000 C 
ENDBRANCH  20  23
ENDBRANCH  16  17
ENDBRANCH  14  16
ENDBRANCH  11  12
BRANCH   1  26
ATOM     25  C   UNL     1       5.755   4.105  15.065  0.00  0.00    +0.000 C 
ATOM     26  C   UNL     1       5.020   3.728  16.342  0.00  0.00    +0.000 C 
ENDBRANCH   1  26
TORSDOF 5
ENDMDL
