MODEL 1
REMARK VINA RESULT:      -7.9      0.000      0.000
REMARK  Name = 
REMARK  3 active torsions:
REMARK  status: ('A' for Active; 'I' for Inactive)
REMARK    1  A    between atoms: C_2  and  C_3
REMARK    2  A    between atoms: N_16  and  C_17
REMARK    3  A    between atoms: C_21  and  C_22
REMARK                            x       y       z     vdW  Elec       q    Type
REMARK                         _______ _______ _______ _____ _____    ______ ____
ROOT
ATOM      1  O   UNL     1       1.675   5.830  20.856  0.00  0.00    +0.000 OA
ATOM      2  C   UNL     1       2.198   6.451  19.928  0.00  0.00    +0.000 C 
ATOM      3  N   UNL     1       2.012   7.822  19.739  0.00  0.00    +0.000 N 
ATOM      4  C   UNL     1       2.438   8.630  18.580  0.00  0.00    +0.000 C 
ATOM      5  C   UNL     1       1.261   9.360  17.929  0.00  0.00    +0.000 C 
ATOM      6  N   UNL     1       0.534  10.150  18.922  0.00  0.00    +0.000 N 
ATOM      7  C   UNL     1       0.073   9.388  20.101  0.00  0.00    +0.000 C 
ATOM      8  C   UNL     1       1.240   8.590  20.735  0.00  0.00    +0.000 C 
ENDROOT
BRANCH   2   9
ATOM      9  C   UNL     1       3.017   5.664  18.962  0.00  0.00    +0.000 A 
ATOM     10  C   UNL     1       2.372   4.863  18.018  0.00  0.00    +0.000 A 
ATOM     11  C   UNL     1       3.123   4.197  17.042  0.00  0.00    +0.000 A 
ATOM     12  C   UNL     1       4.500   4.349  16.966  0.00  0.00    +0.000 A 
ATOM     13  N   UNL     1       5.199   3.776  15.965  0.00  0.00    +0.000 NA
ATOM     14  C   UNL     1       6.528   4.023  15.939  0.00  0.00    +0.000 A 
ATOM     15  C   UNL     1       7.151   4.816  16.882  0.00  0.00    +0.000 A 
ATOM     16  N   UNL     1       6.476   5.368  17.911  0.00  0.00    +0.000 NA
ATOM     17  C   UNL     1       5.152   5.129  17.953  0.00  0.00    +0.000 A 
ATOM     18  C   UNL     1       4.412   5.702  18.971  0.00  0.00    +0.000 A 
ENDBRANCH   2   9
BRANCH   6  19
ATOM     19  C   UNL     1       0.590  11.530  18.920  0.00  0.00    +0.000 A 
ATOM     20  C   UNL     1      -0.579  12.287  19.060  0.00  0.00    +0.000 A 
ATOM     21  C   UNL     1      -0.568  13.682  18.964  0.00  0.00    +0.000 A 
ATOM     22  C   UNL     1       0.626  14.358  18.737  0.00  0.00    +0.000 A 
ATOM     23  C   UNL     1       1.819  13.642  18.609  0.00  0.00    +0.000 A 
ATOM     24  C   UNL     1       1.784  12.237  18.708  0.00  0.00    +0.000 A 
BRANCH  23  25
ATOM     25  C   UNL     1       3.132  14.338  18.355  0.00  0.00    +0.000 C 
ATOM     26  F   UNL     1       3.667  14.922  19.463  0.00  0.00    +0.000 F 
ATOM     27  F   UNL     1       4.090  13.495  17.880  0.00  0.00    +0.000 F 
ATOM     28  F   UNL     1       3.023  15.333  17.429  0.00  0.00    +0.000 F 
ENDBRANCH  23  25
ENDBRANCH   6  19
TORSDOF 3
ENDMDL
MODEL 2
REMARK VINA RESULT:      -7.8      4.824      9.096
REMARK  Name = 
REMARK  3 active torsions:
REMARK  status: ('A' for Active; 'I' for Inactive)
REMARK    1  A    between atoms: C_2  and  C_3
REMARK    2  A    between atoms: N_16  and  C_17
REMARK    3  A    between atoms: C_21  and  C_22
REMARK                            x       y       z     vdW  Elec       q    Type
REMARK                         _______ _______ _______ _____ _____    ______ ____
ROOT
ATOM      1  O   UNL     1       2.728   4.832  19.821  0.00  0.00    +0.000 OA
ATOM      2  C   UNL     1       2.872   5.702  18.958  0.00  0.00    +0.000 C 
ATOM      3  N   UNL     1       3.537   5.466  17.753  0.00  0.00    +0.000 N 
ATOM      4  C   UNL     1       3.920   6.463  16.734  0.00  0.00    +0.000 C 
ATOM      5  C   UNL     1       5.424   6.443  16.453  0.00  0.00    +0.000 C 
ATOM      6  N   UNL     1       5.863   5.092  16.104  0.00  0.00    +0.000 N 
ATOM      7  C   UNL     1       5.516   4.054  17.097  0.00  0.00    +0.000 C 
ATOM      8  C   UNL     1       4.006   4.101  17.443  0.00  0.00    +0.000 C 
ENDROOT
BRANCH   2   9
ATOM      9  C   UNL     1       2.344   7.061  19.271  0.00  0.00    +0.000 A 
ATOM     10  C   UNL     1       2.260   8.010  18.250  0.00  0.00    +0.000 A 
ATOM     11  C   UNL     1       1.674   9.256  18.505  0.00  0.00    +0.000 A 
ATOM     12  C   UNL     1       1.136   9.556  19.747  0.00  0.00    +0.000 A 
ATOM     13  N   UNL     1       0.493  10.724  19.952  0.00  0.00    +0.000 NA
ATOM     14  C   UNL     1      -0.047  10.908  21.178  0.00  0.00    +0.000 A 
ATOM     15  C   UNL     1       0.048   9.961  22.177  0.00  0.00    +0.000 A 
ATOM     16  N   UNL     1       0.717   8.803  22.004  0.00  0.00    +0.000 NA
ATOM     17  C   UNL     1       1.264   8.605  20.791  0.00  0.00    +0.000 A 
ATOM     18  C   UNL     1       1.931   7.417  20.555  0.00  0.00    +0.000 A 
ENDBRANCH   2   9
BRANCH   6  19
ATOM     19  C   UNL     1       6.245   4.773  14.817  0.00  0.00    +0.000 A 
ATOM     20  C   UNL     1       7.486   5.190  14.321  0.00  0.00    +0.000 A 
ATOM     21  C   UNL     1       7.860   4.968  12.992  0.00  0.00    +0.000 A 
ATOM     22  C   UNL     1       6.998   4.304  12.125  0.00  0.00    +0.000 A 
ATOM     23  C   UNL     1       5.757   3.855  12.583  0.00  0.00    +0.000 A 
ATOM     24  C   UNL     1       5.401   4.091  13.925  0.00  0.00    +0.000 A 
BRANCH  23  25
ATOM     25  C   UNL     1       4.793   3.139  11.671  0.00  0.00    +0.000 C 
ATOM     26  F   UNL     1       4.532   3.809  10.515  0.00  0.00    +0.000 F 
ATOM     27  F   UNL     1       5.242   1.909  11.295  0.00  0.00    +0.000 F 
ATOM     28  F   UNL     1       3.581   2.927  12.258  0.00  0.00    +0.000 F 
ENDBRANCH  23  25
ENDBRANCH   6  19
TORSDOF 3
ENDMDL
MODEL 3
REMARK VINA RESULT:      -7.7      4.617      8.943
REMARK  Name = 
REMARK  3 active torsions:
REMARK  status: ('A' for Active; 'I' for Inactive)
REMARK    1  A    between atoms: C_2  and  C_3
REMARK    2  A    between atoms: N_16  and  C_17
REMARK    3  A    between atoms: C_21  and  C_22
REMARK                            x       y       z     vdW  Elec       q    Type
REMARK                         _______ _______ _______ _____ _____    ______ ____
ROOT
ATOM      1  O   UNL     1       3.212   4.542  20.074  0.00  0.00    +0.000 OA
ATOM      2  C   UNL     1       3.146   5.377  19.169  0.00  0.00    +0.000 C 
ATOM      3  N   UNL     1       3.753   5.193  17.925  0.00  0.00    +0.000 N 
ATOM      4  C   UNL     1       3.889   6.184  16.840  0.00  0.00    +0.000 C 
ATOM      5  C   UNL     1       5.350   6.399  16.444  0.00  0.00    +0.000 C 
ATOM      6  N   UNL     1       5.986   5.124  16.114  0.00  0.00    +0.000 N 
ATOM      7  C   UNL     1       5.891   4.096  17.171  0.00  0.00    +0.000 C 
ATOM      8  C   UNL     1       4.424   3.910  17.633  0.00  0.00    +0.000 C 
ENDROOT
BRANCH   2   9
ATOM      9  C   UNL     1       2.418   6.645  19.468  0.00  0.00    +0.000 A 
ATOM     10  C   UNL     1       1.822   6.807  20.720  0.00  0.00    +0.000 A 
ATOM     11  C   UNL     1       1.222   8.028  21.051  0.00  0.00    +0.000 A 
ATOM     12  C   UNL     1       1.243   9.101  20.172  0.00  0.00    +0.000 A 
ATOM     13  N   UNL     1       0.744  10.299  20.540  0.00  0.00    +0.000 NA
ATOM     14  C   UNL     1       0.856  11.301  19.640  0.00  0.00    +0.000 A 
ATOM     15  C   UNL     1       1.446  11.123  18.405  0.00  0.00    +0.000 A 
ATOM     16  N   UNL     1       1.919   9.925  18.004  0.00  0.00    +0.000 NA
ATOM     17  C   UNL     1       1.812   8.916  18.887  0.00  0.00    +0.000 A 
ATOM     18  C   UNL     1       2.313   7.676  18.534  0.00  0.00    +0.000 A 
ENDBRANCH   2   9
BRANCH   6  19
ATOM     19  C   UNL     1       6.324   4.806  14.814  0.00  0.00    +0.000 A 
ATOM     20  C   UNL     1       7.548   5.224  14.277  0.00  0.00    +0.000 A 
ATOM     21  C   UNL     1       7.876   5.003  12.936  0.00  0.00    +0.000 A 
ATOM     22  C   UNL     1       6.986   4.340  12.098  0.00  0.00    +0.000 A 
ATOM     23  C   UNL     1       5.761   3.889  12.598  0.00  0.00    +0.000 A 
ATOM     24  C   UNL     1       5.450   4.125  13.951  0.00  0.00    +0.000 A 
BRANCH  23  25
ATOM     25  C   UNL     1       4.767   3.174  11.719  0.00  0.00    +0.000 C 
ATOM     26  F   UNL     1       5.194   1.955  11.288  0.00  0.00    +0.000 F 
ATOM     27  F   UNL     1       3.578   2.952  12.345  0.00  0.00    +0.000 F 
ATOM     28  F   UNL     1       4.465   3.880  10.592  0.00  0.00    +0.000 F 
ENDBRANCH  23  25
ENDBRANCH   6  19
TORSDOF 3
ENDMDL
MODEL 4
REMARK VINA RESULT:      -7.4      3.273      4.744
REMARK  Name = 
REMARK  3 active torsions:
REMARK  status: ('A' for Active; 'I' for Inactive)
REMARK    1  A    between atoms: C_2  and  C_3
REMARK    2  A    between atoms: N_16  and  C_17
REMARK    3  A    between atoms: C_21  and  C_22
REMARK                            x       y       z     vdW  Elec       q    Type
REMARK                         _______ _______ _______ _____ _____    ______ ____
ROOT
ATOM      1  O   UNL     1       5.091   3.769  18.631  0.00  0.00    +0.000 OA
ATOM      2  C   UNL     1       4.975   4.810  17.980  0.00  0.00    +0.000 C 
ATOM      3  N   UNL     1       4.244   5.909  18.438  0.00  0.00    +0.000 N 
ATOM      4  C   UNL     1       3.893   7.127  17.682  0.00  0.00    +0.000 C 
ATOM      5  C   UNL     1       2.382   7.359  17.645  0.00  0.00    +0.000 C 
ATOM      6  N   UNL     1       1.830   7.366  19.000  0.00  0.00    +0.000 N 
ATOM      7  C   UNL     1       2.141   6.163  19.799  0.00  0.00    +0.000 C 
ATOM      8  C   UNL     1       3.663   5.873  19.795  0.00  0.00    +0.000 C 
ENDROOT
BRANCH   2   9
ATOM      9  C   UNL     1       5.614   4.843  16.633  0.00  0.00    +0.000 A 
ATOM     10  C   UNL     1       6.904   5.361  16.504  0.00  0.00    +0.000 A 
ATOM     11  C   UNL     1       7.555   5.307  15.267  0.00  0.00    +0.000 A 
ATOM     12  C   UNL     1       6.958   4.710  14.166  0.00  0.00    +0.000 A 
ATOM     13  N   UNL     1       7.633   4.582  13.004  0.00  0.00    +0.000 NA
ATOM     14  C   UNL     1       6.993   3.939  12.003  0.00  0.00    +0.000 A 
ATOM     15  C   UNL     1       5.716   3.434  12.146  0.00  0.00    +0.000 A 
ATOM     16  N   UNL     1       5.011   3.583  13.286  0.00  0.00    +0.000 NA
ATOM     17  C   UNL     1       5.633   4.225  14.292  0.00  0.00    +0.000 A 
ATOM     18  C   UNL     1       4.963   4.372  15.493  0.00  0.00    +0.000 A 
ENDBRANCH   2   9
BRANCH   6  19
ATOM     19  C   UNL     1       1.371   8.531  19.582  0.00  0.00    +0.000 A 
ATOM     20  C   UNL     1       1.502   9.755  18.915  0.00  0.00    +0.000 A 
ATOM     21  C   UNL     1       1.138  10.963  19.518  0.00  0.00    +0.000 A 
ATOM     22  C   UNL     1       0.617  10.972  20.808  0.00  0.00    +0.000 A 
ATOM     23  C   UNL     1       0.453   9.771  21.502  0.00  0.00    +0.000 A 
ATOM     24  C   UNL     1       0.828   8.566  20.876  0.00  0.00    +0.000 A 
BRANCH  23  25
ATOM     25  C   UNL     1      -0.101   9.741  22.904  0.00  0.00    +0.000 C 
ATOM     26  F   UNL     1      -0.658  10.919  23.298  0.00  0.00    +0.000 F 
ATOM     27  F   UNL     1      -1.071   8.798  23.065  0.00  0.00    +0.000 F 
ATOM     28  F   UNL     1       0.853   9.453  23.834  0.00  0.00    +0.000 F 
ENDBRANCH  23  25
ENDBRANCH   6  19
TORSDOF 3
ENDMDL
MODEL 5
REMARK VINA RESULT:      -7.3      1.917      2.424
REMARK  Name = 
REMARK  3 active torsions:
REMARK  status: ('A' for Active; 'I' for Inactive)
REMARK    1  A    between atoms: C_2  and  C_3
REMARK    2  A    between atoms: N_16  and  C_17
REMARK    3  A    between atoms: C_21  and  C_22
REMARK                            x       y       z     vdW  Elec       q    Type
REMARK                         _______ _______ _______ _____ _____    ______ ____
ROOT
ATOM      1  O   UNL     1       1.709   5.711  20.926  0.00  0.00    +0.000 OA
ATOM      2  C   UNL     1       2.217   6.343  19.996  0.00  0.00    +0.000 C 
ATOM      3  N   UNL     1       2.027   7.715  19.823  0.00  0.00    +0.000 N 
ATOM      4  C   UNL     1       2.434   8.535  18.666  0.00  0.00    +0.000 C 
ATOM      5  C   UNL     1       1.247   9.269  18.040  0.00  0.00    +0.000 C 
ATOM      6  N   UNL     1       0.534  10.050  19.052  0.00  0.00    +0.000 N 
ATOM      7  C   UNL     1       0.092   9.274  20.230  0.00  0.00    +0.000 C 
ATOM      8  C   UNL     1       1.269   8.472  20.839  0.00  0.00    +0.000 C 
ENDROOT
BRANCH   2   9
ATOM      9  C   UNL     1       3.022   5.566  19.009  0.00  0.00    +0.000 A 
ATOM     10  C   UNL     1       2.364   4.777  18.064  0.00  0.00    +0.000 A 
ATOM     11  C   UNL     1       3.100   4.123  17.070  0.00  0.00    +0.000 A 
ATOM     12  C   UNL     1       4.476   4.274  16.978  0.00  0.00    +0.000 A 
ATOM     13  N   UNL     1       5.162   3.712  15.961  0.00  0.00    +0.000 NA
ATOM     14  C   UNL     1       6.491   3.957  15.921  0.00  0.00    +0.000 A 
ATOM     15  C   UNL     1       7.127   4.737  16.866  0.00  0.00    +0.000 A 
ATOM     16  N   UNL     1       6.466   5.277  17.910  0.00  0.00    +0.000 NA
ATOM     17  C   UNL     1       5.143   5.040  17.966  0.00  0.00    +0.000 A 
ATOM     18  C   UNL     1       4.417   5.601  19.001  0.00  0.00    +0.000 A 
ENDBRANCH   2   9
BRANCH   6  19
ATOM     19  C   UNL     1       0.588  11.429  19.063  0.00  0.00    +0.000 A 
ATOM     20  C   UNL     1       1.701  12.099  18.542  0.00  0.00    +0.000 A 
ATOM     21  C   UNL     1       1.829  13.489  18.628  0.00  0.00    +0.000 A 
ATOM     22  C   UNL     1       0.831  14.248  19.230  0.00  0.00    +0.000 A 
ATOM     23  C   UNL     1      -0.306  13.620  19.747  0.00  0.00    +0.000 A 
ATOM     24  C   UNL     1      -0.413  12.219  19.651  0.00  0.00    +0.000 A 
BRANCH  23  25
ATOM     25  C   UNL     1      -1.405  14.407  20.413  0.00  0.00    +0.000 C 
ATOM     26  F   UNL     1      -1.545  15.672  19.928  0.00  0.00    +0.000 F 
ATOM     27  F   UNL     1      -2.627  13.820  20.279  0.00  0.00    +0.000 F 
ATOM     28  F   UNL     1      -1.207  14.546  21.755  0.00  0.00    +0.000 F 
ENDBRANCH  23  25
ENDBRANCH   6  19
TORSDOF 3
ENDMDL
MODEL 6
REMARK VINA RESULT:      -7.3      2.456      4.079
REMARK  Name = 
REMARK  3 active torsions:
REMARK  status: ('A' for Active; 'I' for Inactive)
REMARK    1  A    between atoms: C_2  and  C_3
REMARK    2  A    between atoms: N_16  and  C_17
REMARK    3  A    between atoms: C_21  and  C_22
REMARK                            x       y       z     vdW  Elec       q    Type
REMARK                         _______ _______ _______ _____ _____    ______ ____
ROOT
ATOM      1  O   UNL     1       4.876   3.438  18.531  0.00  0.00    +0.000 OA
ATOM      2  C   UNL     1       4.855   4.552  18.000  0.00  0.00    +0.000 C 
ATOM      3  N   UNL     1       4.199   5.646  18.567  0.00  0.00    +0.000 N 
ATOM      4  C   UNL     1       3.960   6.964  17.948  0.00  0.00    +0.000 C 
ATOM      5  C   UNL     1       2.472   7.316  17.912  0.00  0.00    +0.000 C 
ATOM      6  N   UNL     1       1.888   7.216  19.249  0.00  0.00    +0.000 N 
ATOM      7  C   UNL     1       2.087   5.911  19.913  0.00  0.00    +0.000 C 
ATOM      8  C   UNL     1       3.582   5.506  19.901  0.00  0.00    +0.000 C 
ENDROOT
BRANCH   2   9
ATOM      9  C   UNL     1       5.529   4.684  16.676  0.00  0.00    +0.000 A 
ATOM     10  C   UNL     1       6.801   5.257  16.614  0.00  0.00    +0.000 A 
ATOM     11  C   UNL     1       7.487   5.297  15.395  0.00  0.00    +0.000 A 
ATOM     12  C   UNL     1       6.944   4.740  14.246  0.00  0.00    +0.000 A 
ATOM     13  N   UNL     1       7.655   4.703  13.100  0.00  0.00    +0.000 NA
ATOM     14  C   UNL     1       7.068   4.093  12.046  0.00  0.00    +0.000 A 
ATOM     15  C   UNL     1       5.808   3.534  12.123  0.00  0.00    +0.000 A 
ATOM     16  N   UNL     1       5.067   3.592  13.249  0.00  0.00    +0.000 NA
ATOM     17  C   UNL     1       5.636   4.199  14.306  0.00  0.00    +0.000 A 
ATOM     18  C   UNL     1       4.928   4.254  15.493  0.00  0.00    +0.000 A 
ENDBRANCH   2   9
BRANCH   6  19
ATOM     19  C   UNL     1       1.504   8.341  19.951  0.00  0.00    +0.000 A 
ATOM     20  C   UNL     1       1.396   8.305  21.346  0.00  0.00    +0.000 A 
ATOM     21  C   UNL     1       0.916   9.397  22.075  0.00  0.00    +0.000 A 
ATOM     22  C   UNL     1       0.544  10.566  21.420  0.00  0.00    +0.000 A 
ATOM     23  C   UNL     1       0.653  10.652  20.029  0.00  0.00    +0.000 A 
ATOM     24  C   UNL     1       1.137   9.539  19.315  0.00  0.00    +0.000 A 
BRANCH  23  25
ATOM     25  C   UNL     1       0.252  11.899  19.283  0.00  0.00    +0.000 C 
ATOM     26  F   UNL     1      -0.471  12.777  20.032  0.00  0.00    +0.000 F 
ATOM     27  F   UNL     1       1.324  12.600  18.819  0.00  0.00    +0.000 F 
ATOM     28  F   UNL     1      -0.514  11.627  18.189  0.00  0.00    +0.000 F 
ENDBRANCH  23  25
ENDBRANCH   6  19
TORSDOF 3
ENDMDL
MODEL 7
REMARK VINA RESULT:      -7.3      2.048      2.527
REMARK  Name = 
REMARK  3 active torsions:
REMARK  status: ('A' for Active; 'I' for Inactive)
REMARK    1  A    between atoms: C_2  and  C_3
REMARK    2  A    between atoms: N_16  and  C_17
REMARK    3  A    between atoms: C_21  and  C_22
REMARK                            x       y       z     vdW  Elec       q    Type
REMARK                         _______ _______ _______ _____ _____    ______ ____
ROOT
ATOM      1  O   UNL     1       1.675   5.360  20.978  0.00  0.00    +0.000 OA
ATOM      2  C   UNL     1       2.200   6.080  20.124  0.00  0.00    +0.000 C 
ATOM      3  N   UNL     1       2.009   7.463  20.083  0.00  0.00    +0.000 N 
ATOM      4  C   UNL     1       2.437   8.393  19.020  0.00  0.00    +0.000 C 
ATOM      5  C   UNL     1       1.260   9.184  18.447  0.00  0.00    +0.000 C 
ATOM      6  N   UNL     1       0.527   9.861  19.517  0.00  0.00    +0.000 N 
ATOM      7  C   UNL     1       0.064   8.974  20.604  0.00  0.00    +0.000 C 
ATOM      8  C   UNL     1       1.230   8.116  21.154  0.00  0.00    +0.000 C 
ENDROOT
BRANCH   2   9
ATOM      9  C   UNL     1       3.025   5.404  19.082  0.00  0.00    +0.000 A 
ATOM     10  C   UNL     1       2.387   4.762  18.019  0.00  0.00    +0.000 A 
ATOM     11  C   UNL     1       3.148   4.210  16.982  0.00  0.00    +0.000 A 
ATOM     12  C   UNL     1       4.531   4.324  16.967  0.00  0.00    +0.000 A 
ATOM     13  N   UNL     1       5.245   3.868  15.916  0.00  0.00    +0.000 NA
ATOM     14  C   UNL     1       6.581   4.070  15.962  0.00  0.00    +0.000 A 
ATOM     15  C   UNL     1       7.196   4.705  17.022  0.00  0.00    +0.000 A 
ATOM     16  N   UNL     1       6.505   5.135  18.098  0.00  0.00    +0.000 NA
ATOM     17  C   UNL     1       5.175   4.938  18.069  0.00  0.00    +0.000 A 
ATOM     18  C   UNL     1       4.419   5.392  19.135  0.00  0.00    +0.000 A 
ENDBRANCH   2   9
BRANCH   6  19
ATOM     19  C   UNL     1       0.577  11.232  19.664  0.00  0.00    +0.000 A 
ATOM     20  C   UNL     1       1.290  12.018  18.750  0.00  0.00    +0.000 A 
ATOM     21  C   UNL     1       1.442  13.397  18.927  0.00  0.00    +0.000 A 
ATOM     22  C   UNL     1       0.867  14.029  20.024  0.00  0.00    +0.000 A 
ATOM     23  C   UNL     1       0.131  13.285  20.951  0.00  0.00    +0.000 A 
ATOM     24  C   UNL     1      -0.007  11.897  20.754  0.00  0.00    +0.000 A 
BRANCH  23  25
ATOM     25  C   UNL     1      -0.501  13.933  22.157  0.00  0.00    +0.000 C 
ATOM     26  F   UNL     1      -1.671  14.574  21.885  0.00  0.00    +0.000 F 
ATOM     27  F   UNL     1      -0.788  13.038  23.143  0.00  0.00    +0.000 F 
ATOM     28  F   UNL     1       0.309  14.868  22.730  0.00  0.00    +0.000 F 
ENDBRANCH  23  25
ENDBRANCH   6  19
TORSDOF 3
ENDMDL
MODEL 8
REMARK VINA RESULT:      -7.2      3.663      4.675
REMARK  Name = 
REMARK  3 active torsions:
REMARK  status: ('A' for Active; 'I' for Inactive)
REMARK    1  A    between atoms: C_2  and  C_3
REMARK    2  A    between atoms: N_16  and  C_17
REMARK    3  A    between atoms: C_21  and  C_22
REMARK                            x       y       z     vdW  Elec       q    Type
REMARK                         _______ _______ _______ _____ _____    ______ ____
ROOT
ATOM      1  O   UNL     1       2.806   8.703  17.078  0.00  0.00    +0.000 OA
ATOM      2  C   UNL     1       2.246   8.180  18.045  0.00  0.00    +0.000 C 
ATOM      3  N   UNL     1       1.323   8.860  18.841  0.00  0.00    +0.000 N 
ATOM      4  C   UNL     1       0.728   8.401  20.111  0.00  0.00    +0.000 C 
ATOM      5  C   UNL     1       0.986   9.387  21.251  0.00  0.00    +0.000 C 
ATOM      6  N   UNL     1       0.538  10.730  20.880  0.00  0.00    +0.000 N 
ATOM      7  C   UNL     1       1.113  11.245  19.621  0.00  0.00    +0.000 C 
ATOM      8  C   UNL     1       0.919  10.230  18.467  0.00  0.00    +0.000 C 
ENDROOT
BRANCH   2   9
ATOM      9  C   UNL     1       2.631   6.777  18.374  0.00  0.00    +0.000 A 
ATOM     10  C   UNL     1       3.765   6.548  19.155  0.00  0.00    +0.000 A 
ATOM     11  C   UNL     1       4.083   5.245  19.555  0.00  0.00    +0.000 A 
ATOM     12  C   UNL     1       3.267   4.173  19.224  0.00  0.00    +0.000 A 
ATOM     13  N   UNL     1       3.535   2.936  19.693  0.00  0.00    +0.000 NA
ATOM     14  C   UNL     1       2.656   1.963  19.365  0.00  0.00    +0.000 A 
ATOM     15  C   UNL     1       1.541   2.205  18.589  0.00  0.00    +0.000 A 
ATOM     16  N   UNL     1       1.275   3.426  18.080  0.00  0.00    +0.000 NA
ATOM     17  C   UNL     1       2.142   4.405  18.395  0.00  0.00    +0.000 A 
ATOM     18  C   UNL     1       1.893   5.682  17.924  0.00  0.00    +0.000 A 
ENDBRANCH   2   9
BRANCH   6  19
ATOM     19  C   UNL     1      -0.575  11.301  21.464  0.00  0.00    +0.000 A 
ATOM     20  C   UNL     1      -0.776  11.212  22.846  0.00  0.00    +0.000 A 
ATOM     21  C   UNL     1      -1.940  11.694  23.453  0.00  0.00    +0.000 A 
ATOM     22  C   UNL     1      -2.932  12.294  22.685  0.00  0.00    +0.000 A 
ATOM     23  C   UNL     1      -2.764  12.420  21.303  0.00  0.00    +0.000 A 
ATOM     24  C   UNL     1      -1.584  11.926  20.713  0.00  0.00    +0.000 A 
BRANCH  23  25
ATOM     25  C   UNL     1      -3.820  13.057  20.437  0.00  0.00    +0.000 C 
ATOM     26  F   UNL     1      -3.721  14.413  20.358  0.00  0.00    +0.000 F 
ATOM     27  F   UNL     1      -3.786  12.607  19.152  0.00  0.00    +0.000 F 
ATOM     28  F   UNL     1      -5.083  12.804  20.884  0.00  0.00    +0.000 F 
ENDBRANCH  23  25
ENDBRANCH   6  19
TORSDOF 3
ENDMDL
MODEL 9
REMARK VINA RESULT:      -7.2      4.001      4.975
REMARK  Name = 
REMARK  3 active torsions:
REMARK  status: ('A' for Active; 'I' for Inactive)
REMARK    1  A    between atoms: C_2  and  C_3
REMARK    2  A    between atoms: N_16  and  C_17
REMARK    3  A    between atoms: C_21  and  C_22
REMARK                            x       y       z     vdW  Elec       q    Type
REMARK                         _______ _______ _______ _____ _____    ______ ____
ROOT
ATOM      1  O   UNL     1       2.203   9.696  17.434  0.00  0.00    +0.000 OA
ATOM      2  C   UNL     1       1.692   9.151  18.417  0.00  0.00    +0.000 C 
ATOM      3  N   UNL     1       0.671   9.744  19.162  0.00  0.00    +0.000 N 
ATOM      4  C   UNL     1       0.111   9.272  20.444  0.00  0.00    +0.000 C 
ATOM      5  C   UNL     1       0.213  10.337  21.537  0.00  0.00    +0.000 C 
ATOM      6  N   UNL     1      -0.395  11.591  21.091  0.00  0.00    +0.000 N 
ATOM      7  C   UNL     1       0.137  12.116  19.817  0.00  0.00    +0.000 C 
ATOM      8  C   UNL     1       0.103  11.030  18.713  0.00  0.00    +0.000 C 
ENDROOT
BRANCH   2   9
ATOM      9  C   UNL     1       2.248   7.828  18.822  0.00  0.00    +0.000 A 
ATOM     10  C   UNL     1       1.896   7.294  20.064  0.00  0.00    +0.000 A 
ATOM     11  C   UNL     1       2.328   6.011  20.417  0.00  0.00    +0.000 A 
ATOM     12  C   UNL     1       3.070   5.235  19.537  0.00  0.00    +0.000 A 
ATOM     13  N   UNL     1       3.401   3.966  19.854  0.00  0.00    +0.000 NA
ATOM     14  C   UNL     1       4.077   3.267  18.914  0.00  0.00    +0.000 A 
ATOM     15  C   UNL     1       4.419   3.811  17.693  0.00  0.00    +0.000 A 
ATOM     16  N   UNL     1       4.129   5.089  17.371  0.00  0.00    +0.000 NA
ATOM     17  C   UNL     1       3.460   5.799  18.297  0.00  0.00    +0.000 A 
ATOM     18  C   UNL     1       3.111   7.104  18.000  0.00  0.00    +0.000 A 
ENDBRANCH   2   9
BRANCH   6  19
ATOM     19  C   UNL     1      -1.586  12.040  21.627  0.00  0.00    +0.000 A 
ATOM     20  C   UNL     1      -1.794  12.018  23.011  0.00  0.00    +0.000 A 
ATOM     21  C   UNL     1      -3.023  12.373  23.575  0.00  0.00    +0.000 A 
ATOM     22  C   UNL     1      -4.077  12.775  22.761  0.00  0.00    +0.000 A 
ATOM     23  C   UNL     1      -3.906  12.829  21.375  0.00  0.00    +0.000 A 
ATOM     24  C   UNL     1      -2.660  12.465  20.828  0.00  0.00    +0.000 A 
BRANCH  23  25
ATOM     25  C   UNL     1      -5.026  13.252  20.459  0.00  0.00    +0.000 C 
ATOM     26  F   UNL     1      -5.145  14.602  20.326  0.00  0.00    +0.000 F 
ATOM     27  F   UNL     1      -4.883  12.765  19.195  0.00  0.00    +0.000 F 
ATOM     28  F   UNL     1      -6.244  12.814  20.889  0.00  0.00    +0.000 F 
ENDBRANCH  23  25
ENDBRANCH   6  19
TORSDOF 3
ENDMDL
