MODEL 1
REMARK VINA RESULT:      -7.0      0.000      0.000
REMARK  Name = 
REMARK  12 active torsions:
REMARK  status: ('A' for Active; 'I' for Inactive)
REMARK    1  A    between atoms: C_1  and  O_2
REMARK    2  A    between atoms: O_2  and  C_3
REMARK    3  A    between atoms: C_6  and  C_7
REMARK    4  A    between atoms: C_11  and  C_12
REMARK    5  A    between atoms: C_12  and  O_14
REMARK    6  A    between atoms: O_14  and  C_15
REMARK    7  A    between atoms: C_15  and  C_16
REMARK    8  A    between atoms: C_16  and  N_17
REMARK    9  A    between atoms: N_17  and  C_18
REMARK   10  A    between atoms: N_17  and  C_19
REMARK   11  A    between atoms: C_23  and  O_24
REMARK   12  A    between atoms: O_24  and  C_25
REMARK                            x       y       z     vdW  Elec       q    Type
REMARK                         _______ _______ _______ _____ _____    ______ ____
ROOT
ATOM      1  C   UNL     1       3.727   6.063  17.798  0.00  0.00    +0.000 A 
ATOM      2  C   UNL     1       3.270   4.759  17.677  0.00  0.00    +0.000 A 
ATOM      3 BR   UNL     1       1.562   4.053  17.977  0.00  0.00    +0.000 Br
ATOM      4  N   UNL     1       4.284   3.969  17.231  0.00  0.00    +0.000 N 
ATOM      5  C   UNL     1       5.404   4.719  16.952  0.00  0.00    +0.000 A 
ATOM      6  C   UNL     1       5.089   6.010  17.339  0.00  0.00    +0.000 A 
ATOM      7 BR   UNL     1       6.273   7.482  17.257  0.00  0.00    +0.000 Br
ATOM      8  H   UNL     1       4.207   2.977  17.046  0.00  0.00    +0.000 HD
ENDROOT
BRANCH   1  12
ATOM      9  C   UNL     1       1.226   9.284  19.161  0.00  0.00    +0.000 A 
ATOM     10  C   UNL     1       1.822   9.321  17.894  0.00  0.00    +0.000 A 
ATOM     11  C   UNL     1       2.619   8.268  17.441  0.00  0.00    +0.000 A 
ATOM     12  C   UNL     1       2.938   7.199  18.280  0.00  0.00    +0.000 A 
ATOM     13  C   UNL     1       2.436   7.230  19.587  0.00  0.00    +0.000 A 
ATOM     14  C   UNL     1       1.562   8.239  20.032  0.00  0.00    +0.000 A 
BRANCH   9  16
ATOM     15  C   UNL     1      -0.773  10.474  18.697  0.00  0.00    +0.000 C 
ATOM     16  O   UNL     1       0.344  10.252  19.559  0.00  0.00    +0.000 OA
ENDBRANCH   9  16
BRANCH  14  17
ATOM     17  O   UNL     1       1.125   8.002  21.309  0.00  0.00    +0.000 OA
ATOM     18  C   UNL     1       1.407   8.943  22.331  0.00  0.00    +0.000 C 
ENDBRANCH  14  17
ENDBRANCH   1  12
BRANCH   5  19
ATOM     19  C   UNL     1       6.577   4.178  16.306  0.00  0.00    +0.000 C 
ATOM     20  O   UNL     1       7.741   4.417  16.568  0.00  0.00    +0.000 OA
BRANCH  19  21
ATOM     21  O   UNL     1       6.168   3.459  15.215  0.00  0.00    +0.000 OA
BRANCH  21  22
ATOM     22  C   UNL     1       5.868   4.289  14.084  0.00  0.00    +0.000 C 
BRANCH  22  23
ATOM     23  C   UNL     1       6.429   3.747  12.764  0.00  0.00    +0.000 C 
BRANCH  23  24
ATOM     24  N   UNL     1       5.559   2.699  12.188  0.00  0.00    +0.000 NA
ATOM     25  C   UNL     1       4.418   3.268  11.463  0.00  0.00    +0.000 C 
ATOM     26  C   UNL     1       6.322   1.829  11.290  0.00  0.00    +0.000 C 
ENDBRANCH  23  24
ENDBRANCH  22  23
ENDBRANCH  21  22
ENDBRANCH  19  21
ENDBRANCH   5  19
TORSDOF 8
ENDMDL
MODEL 2
REMARK VINA RESULT:      -6.8      0.855      1.933
REMARK  Name = 
REMARK  12 active torsions:
REMARK  status: ('A' for Active; 'I' for Inactive)
REMARK    1  A    between atoms: C_1  and  O_2
REMARK    2  A    between atoms: O_2  and  C_3
REMARK    3  A    between atoms: C_6  and  C_7
REMARK    4  A    between atoms: C_11  and  C_12
REMARK    5  A    between atoms: C_12  and  O_14
REMARK    6  A    between atoms: O_14  and  C_15
REMARK    7  A    between atoms: C_15  and  C_16
REMARK    8  A    between atoms: C_16  and  N_17
REMARK    9  A    between atoms: N_17  and  C_18
REMARK   10  A    between atoms: N_17  and  C_19
REMARK   11  A    between atoms: C_23  and  O_24
REMARK   12  A    between atoms: O_24  and  C_25
REMARK                            x       y       z     vdW  Elec       q    Type
REMARK                         _______ _______ _______ _____ _____    ______ ____
ROOT
ATOM      1  C   UNL     1       3.843   5.373  17.917  0.00  0.00    +0.000 A 
ATOM      2  C   UNL     1       3.526   4.060  17.603  0.00  0.00    +0.000 A 
ATOM      3 BR   UNL     1       1.947   3.101  17.908  0.00  0.00    +0.000 Br
ATOM      4  N   UNL     1       4.572   3.492  16.945  0.00  0.00    +0.000 N 
ATOM      5  C   UNL     1       5.567   4.415  16.715  0.00  0.00    +0.000 A 
ATOM      6  C   UNL     1       5.150   5.572  17.349  0.00  0.00    +0.000 A 
ATOM      7 BR   UNL     1       6.147   7.177  17.435  0.00  0.00    +0.000 Br
ATOM      8  H   UNL     1       4.589   2.542  16.593  0.00  0.00    +0.000 HD
ENDROOT
BRANCH   1  12
ATOM      9  C   UNL     1       1.504   8.221  20.130  0.00  0.00    +0.000 A 
ATOM     10  C   UNL     1       1.883   7.000  20.703  0.00  0.00    +0.000 A 
ATOM     11  C   UNL     1       2.658   6.081  19.993  0.00  0.00    +0.000 A 
ATOM     12  C   UNL     1       2.984   6.303  18.654  0.00  0.00    +0.000 A 
ATOM     13  C   UNL     1       2.499   7.471  18.054  0.00  0.00    +0.000 A 
ATOM     14  C   UNL     1       1.789   8.448  18.777  0.00  0.00    +0.000 A 
BRANCH   9  16
ATOM     15  C   UNL     1       1.035   9.112  22.278  0.00  0.00    +0.000 C 
ATOM     16  O   UNL     1       0.853   9.177  20.863  0.00  0.00    +0.000 OA
ENDBRANCH   9  16
BRANCH  14  17
ATOM     17  O   UNL     1       1.508   9.544  18.004  0.00  0.00    +0.000 OA
ATOM     18  C   UNL     1       0.168   9.992  17.886  0.00  0.00    +0.000 C 
ENDBRANCH  14  17
ENDBRANCH   1  12
BRANCH   5  19
ATOM     19  C   UNL     1       6.723   4.144  15.892  0.00  0.00    +0.000 C 
ATOM     20  O   UNL     1       7.850   4.579  16.034  0.00  0.00    +0.000 OA
BRANCH  19  21
ATOM     21  O   UNL     1       6.308   3.430  14.800  0.00  0.00    +0.000 OA
BRANCH  21  22
ATOM     22  C   UNL     1       6.113   4.251  13.640  0.00  0.00    +0.000 C 
BRANCH  22  23
ATOM     23  C   UNL     1       6.397   3.522  12.321  0.00  0.00    +0.000 C 
BRANCH  23  24
ATOM     24  N   UNL     1       5.332   2.551  11.992  0.00  0.00    +0.000 NA
ATOM     25  C   UNL     1       4.230   3.173  11.251  0.00  0.00    +0.000 C 
ATOM     26  C   UNL     1       5.873   1.434  11.214  0.00  0.00    +0.000 C 
ENDBRANCH  23  24
ENDBRANCH  22  23
ENDBRANCH  21  22
ENDBRANCH  19  21
ENDBRANCH   5  19
TORSDOF 8
ENDMDL
MODEL 3
REMARK VINA RESULT:      -6.6      3.176      8.913
REMARK  Name = 
REMARK  12 active torsions:
REMARK  status: ('A' for Active; 'I' for Inactive)
REMARK    1  A    between atoms: C_1  and  O_2
REMARK    2  A    between atoms: O_2  and  C_3
REMARK    3  A    between atoms: C_6  and  C_7
REMARK    4  A    between atoms: C_11  and  C_12
REMARK    5  A    between atoms: C_12  and  O_14
REMARK    6  A    between atoms: O_14  and  C_15
REMARK    7  A    between atoms: C_15  and  C_16
REMARK    8  A    between atoms: C_16  and  N_17
REMARK    9  A    between atoms: N_17  and  C_18
REMARK   10  A    between atoms: N_17  and  C_19
REMARK   11  A    between atoms: C_23  and  O_24
REMARK   12  A    between atoms: O_24  and  C_25
REMARK                            x       y       z     vdW  Elec       q    Type
REMARK                         _______ _______ _______ _____ _____    ______ ____
ROOT
ATOM      1  C   UNL     1       2.814   6.077  19.282  0.00  0.00    +0.000 A 
ATOM      2  C   UNL     1       2.253   5.588  20.453  0.00  0.00    +0.000 A 
ATOM      3 BR   UNL     1       2.496   3.937  21.303  0.00  0.00    +0.000 Br
ATOM      4  N   UNL     1       1.457   6.546  21.001  0.00  0.00    +0.000 N 
ATOM      5  C   UNL     1       1.532   7.717  20.282  0.00  0.00    +0.000 A 
ATOM      6  C   UNL     1       2.333   7.429  19.191  0.00  0.00    +0.000 A 
ATOM      7 BR   UNL     1       2.746   8.645  17.803  0.00  0.00    +0.000 Br
ATOM      8  H   UNL     1       0.941   6.445  21.866  0.00  0.00    +0.000 HD
ENDROOT
BRANCH   1  12
ATOM      9  C   UNL     1       5.414   4.056  16.519  0.00  0.00    +0.000 A 
ATOM     10  C   UNL     1       4.054   3.733  16.594  0.00  0.00    +0.000 A 
ATOM     11  C   UNL     1       3.203   4.400  17.478  0.00  0.00    +0.000 A 
ATOM     12  C   UNL     1       3.704   5.331  18.390  0.00  0.00    +0.000 A 
ATOM     13  C   UNL     1       5.086   5.559  18.389  0.00  0.00    +0.000 A 
ATOM     14  C   UNL     1       5.945   4.959  17.449  0.00  0.00    +0.000 A 
BRANCH   9  16
ATOM     15  C   UNL     1       6.082   4.006  14.243  0.00  0.00    +0.000 C 
ATOM     16  O   UNL     1       6.225   3.495  15.569  0.00  0.00    +0.000 OA
ENDBRANCH   9  16
BRANCH  14  17
ATOM     17  O   UNL     1       7.232   5.412  17.580  0.00  0.00    +0.000 OA
ATOM     18  C   UNL     1       7.737   5.720  18.869  0.00  0.00    +0.000 C 
ENDBRANCH  14  17
ENDBRANCH   1  12
BRANCH   5  19
ATOM     19  C   UNL     1       0.928   8.954  20.720  0.00  0.00    +0.000 C 
ATOM     20  O   UNL     1       0.704   9.945  20.051  0.00  0.00    +0.000 OA
BRANCH  19  21
ATOM     21  O   UNL     1       0.791   8.901  22.081  0.00  0.00    +0.000 OA
BRANCH  21  22
ATOM     22  C   UNL     1      -0.556   9.138  22.514  0.00  0.00    +0.000 C 
BRANCH  22  23
ATOM     23  C   UNL     1      -0.726  10.449  23.291  0.00  0.00    +0.000 C 
BRANCH  23  24
ATOM     24  N   UNL     1      -1.407  11.481  22.480  0.00  0.00    +0.000 NA
ATOM     25  C   UNL     1      -2.570  12.047  23.173  0.00  0.00    +0.000 C 
ATOM     26  C   UNL     1      -0.479  12.558  22.127  0.00  0.00    +0.000 C 
ENDBRANCH  23  24
ENDBRANCH  22  23
ENDBRANCH  21  22
ENDBRANCH  19  21
ENDBRANCH   5  19
TORSDOF 8
ENDMDL
MODEL 4
REMARK VINA RESULT:      -6.6      3.070      8.166
REMARK  Name = 
REMARK  12 active torsions:
REMARK  status: ('A' for Active; 'I' for Inactive)
REMARK    1  A    between atoms: C_1  and  O_2
REMARK    2  A    between atoms: O_2  and  C_3
REMARK    3  A    between atoms: C_6  and  C_7
REMARK    4  A    between atoms: C_11  and  C_12
REMARK    5  A    between atoms: C_12  and  O_14
REMARK    6  A    between atoms: O_14  and  C_15
REMARK    7  A    between atoms: C_15  and  C_16
REMARK    8  A    between atoms: C_16  and  N_17
REMARK    9  A    between atoms: N_17  and  C_18
REMARK   10  A    between atoms: N_17  and  C_19
REMARK   11  A    between atoms: C_23  and  O_24
REMARK   12  A    between atoms: O_24  and  C_25
REMARK                            x       y       z     vdW  Elec       q    Type
REMARK                         _______ _______ _______ _____ _____    ______ ____
ROOT
ATOM      1  C   UNL     1       2.664   6.110  19.453  0.00  0.00    +0.000 A 
ATOM      2  C   UNL     1       2.114   5.612  20.625  0.00  0.00    +0.000 A 
ATOM      3 BR   UNL     1       2.319   3.933  21.428  0.00  0.00    +0.000 Br
ATOM      4  N   UNL     1       1.366   6.583  21.215  0.00  0.00    +0.000 N 
ATOM      5  C   UNL     1       1.465   7.769  20.524  0.00  0.00    +0.000 A 
ATOM      6  C   UNL     1       2.229   7.481  19.407  0.00  0.00    +0.000 A 
ATOM      7 BR   UNL     1       2.651   8.716  18.038  0.00  0.00    +0.000 Br
ATOM      8  H   UNL     1       0.869   6.478  22.091  0.00  0.00    +0.000 HD
ENDROOT
BRANCH   1  12
ATOM      9  C   UNL     1       5.114   4.066  16.571  0.00  0.00    +0.000 A 
ATOM     10  C   UNL     1       3.756   3.751  16.714  0.00  0.00    +0.000 A 
ATOM     11  C   UNL     1       2.954   4.426  17.636  0.00  0.00    +0.000 A 
ATOM     12  C   UNL     1       3.505   5.356  18.520  0.00  0.00    +0.000 A 
ATOM     13  C   UNL     1       4.886   5.575  18.451  0.00  0.00    +0.000 A 
ATOM     14  C   UNL     1       5.695   4.968  17.472  0.00  0.00    +0.000 A 
BRANCH   9  16
ATOM     15  C   UNL     1       5.937   4.215  14.352  0.00  0.00    +0.000 C 
ATOM     16  O   UNL     1       5.873   3.497  15.585  0.00  0.00    +0.000 OA
ENDBRANCH   9  16
BRANCH  14  17
ATOM     17  O   UNL     1       6.989   5.413  17.539  0.00  0.00    +0.000 OA
ATOM     18  C   UNL     1       7.261   6.797  17.396  0.00  0.00    +0.000 C 
ENDBRANCH  14  17
ENDBRANCH   1  12
BRANCH   5  19
ATOM     19  C   UNL     1       0.917   9.014  21.007  0.00  0.00    +0.000 C 
ATOM     20  O   UNL     1       1.397   9.761  21.839  0.00  0.00    +0.000 OA
BRANCH  19  21
ATOM     21  O   UNL     1      -0.344   9.152  20.489  0.00  0.00    +0.000 OA
BRANCH  21  22
ATOM     22  C   UNL     1      -0.585  10.461  19.954  0.00  0.00    +0.000 C 
BRANCH  22  23
ATOM     23  C   UNL     1      -0.737  10.478  18.428  0.00  0.00    +0.000 C 
BRANCH  23  24
ATOM     24  N   UNL     1      -1.500  11.658  17.968  0.00  0.00    +0.000 NA
ATOM     25  C   UNL     1      -2.849  11.700  18.543  0.00  0.00    +0.000 C 
ATOM     26  C   UNL     1      -0.790  12.895  18.299  0.00  0.00    +0.000 C 
ENDBRANCH  23  24
ENDBRANCH  22  23
ENDBRANCH  21  22
ENDBRANCH  19  21
ENDBRANCH   5  19
TORSDOF 8
ENDMDL
MODEL 5
REMARK VINA RESULT:      -6.5      3.149      8.635
REMARK  Name = 
REMARK  12 active torsions:
REMARK  status: ('A' for Active; 'I' for Inactive)
REMARK    1  A    between atoms: C_1  and  O_2
REMARK    2  A    between atoms: O_2  and  C_3
REMARK    3  A    between atoms: C_6  and  C_7
REMARK    4  A    between atoms: C_11  and  C_12
REMARK    5  A    between atoms: C_12  and  O_14
REMARK    6  A    between atoms: O_14  and  C_15
REMARK    7  A    between atoms: C_15  and  C_16
REMARK    8  A    between atoms: C_16  and  N_17
REMARK    9  A    between atoms: N_17  and  C_18
REMARK   10  A    between atoms: N_17  and  C_19
REMARK   11  A    between atoms: C_23  and  O_24
REMARK   12  A    between atoms: O_24  and  C_25
REMARK                            x       y       z     vdW  Elec       q    Type
REMARK                         _______ _______ _______ _____ _____    ______ ____
ROOT
ATOM      1  C   UNL     1       2.679   6.034  19.521  0.00  0.00    +0.000 A 
ATOM      2  C   UNL     1       2.115   5.561  20.696  0.00  0.00    +0.000 A 
ATOM      3 BR   UNL     1       2.278   3.886  21.518  0.00  0.00    +0.000 Br
ATOM      4  N   UNL     1       1.388   6.554  21.275  0.00  0.00    +0.000 N 
ATOM      5  C   UNL     1       1.516   7.731  20.571  0.00  0.00    +0.000 A 
ATOM      6  C   UNL     1       2.277   7.413  19.459  0.00  0.00    +0.000 A 
ATOM      7 BR   UNL     1       2.731   8.624  18.079  0.00  0.00    +0.000 Br
ATOM      8  H   UNL     1       0.886   6.471  22.150  0.00  0.00    +0.000 HD
ENDROOT
BRANCH   1  12
ATOM      9  C   UNL     1       5.156   3.924  16.710  0.00  0.00    +0.000 A 
ATOM     10  C   UNL     1       3.765   3.963  16.556  0.00  0.00    +0.000 A 
ATOM     11  C   UNL     1       2.959   4.663  17.457  0.00  0.00    +0.000 A 
ATOM     12  C   UNL     1       3.505   5.250  18.599  0.00  0.00    +0.000 A 
ATOM     13  C   UNL     1       4.882   5.103  18.808  0.00  0.00    +0.000 A 
ATOM     14  C   UNL     1       5.721   4.475  17.868  0.00  0.00    +0.000 A 
BRANCH   9  16
ATOM     15  C   UNL     1       6.387   4.202  14.701  0.00  0.00    +0.000 C 
ATOM     16  O   UNL     1       5.959   3.348  15.763  0.00  0.00    +0.000 OA
ENDBRANCH   9  16
BRANCH  14  17
ATOM     17  O   UNL     1       7.038   4.542  18.242  0.00  0.00    +0.000 OA
ATOM     18  C   UNL     1       7.624   5.803  18.517  0.00  0.00    +0.000 C 
ENDBRANCH  14  17
ENDBRANCH   1  12
BRANCH   5  19
ATOM     19  C   UNL     1       0.995   8.993  21.039  0.00  0.00    +0.000 C 
ATOM     20  O   UNL     1       1.313   9.598  22.046  0.00  0.00    +0.000 OA
BRANCH  19  21
ATOM     21  O   UNL     1      -0.060   9.340  20.238  0.00  0.00    +0.000 OA
BRANCH  21  22
ATOM     22  C   UNL     1      -0.030  10.719  19.845  0.00  0.00    +0.000 C 
BRANCH  22  23
ATOM     23  C   UNL     1      -1.260  11.512  20.304  0.00  0.00    +0.000 C 
BRANCH  23  24
ATOM     24  N   UNL     1      -0.911  12.518  21.329  0.00  0.00    +0.000 NA
ATOM     25  C   UNL     1      -1.116  12.012  22.690  0.00  0.00    +0.000 C 
ATOM     26  C   UNL     1       0.480  12.952  21.176  0.00  0.00    +0.000 C 
ENDBRANCH  23  24
ENDBRANCH  22  23
ENDBRANCH  21  22
ENDBRANCH  19  21
ENDBRANCH   5  19
TORSDOF 8
ENDMDL
MODEL 6
REMARK VINA RESULT:      -6.5      3.063      8.159
REMARK  Name = 
REMARK  12 active torsions:
REMARK  status: ('A' for Active; 'I' for Inactive)
REMARK    1  A    between atoms: C_1  and  O_2
REMARK    2  A    between atoms: O_2  and  C_3
REMARK    3  A    between atoms: C_6  and  C_7
REMARK    4  A    between atoms: C_11  and  C_12
REMARK    5  A    between atoms: C_12  and  O_14
REMARK    6  A    between atoms: O_14  and  C_15
REMARK    7  A    between atoms: C_15  and  C_16
REMARK    8  A    between atoms: C_16  and  N_17
REMARK    9  A    between atoms: N_17  and  C_18
REMARK   10  A    between atoms: N_17  and  C_19
REMARK   11  A    between atoms: C_23  and  O_24
REMARK   12  A    between atoms: O_24  and  C_25
REMARK                            x       y       z     vdW  Elec       q    Type
REMARK                         _______ _______ _______ _____ _____    ______ ____
ROOT
ATOM      1  C   UNL     1       2.682   6.152  19.426  0.00  0.00    +0.000 A 
ATOM      2  C   UNL     1       2.126   5.673  20.603  0.00  0.00    +0.000 A 
ATOM      3 BR   UNL     1       2.318   4.003  21.428  0.00  0.00    +0.000 Br
ATOM      4  N   UNL     1       1.383   6.656  21.180  0.00  0.00    +0.000 N 
ATOM      5  C   UNL     1       1.492   7.833  20.473  0.00  0.00    +0.000 A 
ATOM      6  C   UNL     1       2.257   7.525  19.362  0.00  0.00    +0.000 A 
ATOM      7 BR   UNL     1       2.690   8.739  17.978  0.00  0.00    +0.000 Br
ATOM      8  H   UNL     1       0.883   6.567  22.055  0.00  0.00    +0.000 HD
ENDROOT
BRANCH   1  12
ATOM      9  C   UNL     1       5.128   4.056  16.579  0.00  0.00    +0.000 A 
ATOM     10  C   UNL     1       3.764   3.763  16.710  0.00  0.00    +0.000 A 
ATOM     11  C   UNL     1       2.963   4.455  17.621  0.00  0.00    +0.000 A 
ATOM     12  C   UNL     1       3.520   5.380  18.506  0.00  0.00    +0.000 A 
ATOM     13  C   UNL     1       4.905   5.578  18.449  0.00  0.00    +0.000 A 
ATOM     14  C   UNL     1       5.714   4.953  17.481  0.00  0.00    +0.000 A 
BRANCH   9  16
ATOM     15  C   UNL     1       6.021   4.207  14.386  0.00  0.00    +0.000 C 
ATOM     16  O   UNL     1       5.888   3.470  15.602  0.00  0.00    +0.000 OA
ENDBRANCH   9  16
BRANCH  14  17
ATOM     17  O   UNL     1       7.014   5.378  17.559  0.00  0.00    +0.000 OA
ATOM     18  C   UNL     1       7.461   6.055  18.721  0.00  0.00    +0.000 C 
ENDBRANCH  14  17
ENDBRANCH   1  12
BRANCH   5  19
ATOM     19  C   UNL     1       0.951   9.088  20.938  0.00  0.00    +0.000 C 
ATOM     20  O   UNL     1       1.302   9.730  21.911  0.00  0.00    +0.000 OA
BRANCH  19  21
ATOM     21  O   UNL     1      -0.159   9.375  20.190  0.00  0.00    +0.000 OA
BRANCH  21  22
ATOM     22  C   UNL     1      -0.391  10.784  20.057  0.00  0.00    +0.000 C 
BRANCH  22  23
ATOM     23  C   UNL     1      -0.200  11.301  18.626  0.00  0.00    +0.000 C 
BRANCH  23  24
ATOM     24  N   UNL     1       0.598  12.546  18.596  0.00  0.00    +0.000 NA
ATOM     25  C   UNL     1      -0.238  13.740  18.761  0.00  0.00    +0.000 C 
ATOM     26  C   UNL     1       1.629  12.525  19.636  0.00  0.00    +0.000 C 
ENDBRANCH  23  24
ENDBRANCH  22  23
ENDBRANCH  21  22
ENDBRANCH  19  21
ENDBRANCH   5  19
TORSDOF 8
ENDMDL
MODEL 7
REMARK VINA RESULT:      -6.3      2.782      8.181
REMARK  Name = 
REMARK  12 active torsions:
REMARK  status: ('A' for Active; 'I' for Inactive)
REMARK    1  A    between atoms: C_1  and  O_2
REMARK    2  A    between atoms: O_2  and  C_3
REMARK    3  A    between atoms: C_6  and  C_7
REMARK    4  A    between atoms: C_11  and  C_12
REMARK    5  A    between atoms: C_12  and  O_14
REMARK    6  A    between atoms: O_14  and  C_15
REMARK    7  A    between atoms: C_15  and  C_16
REMARK    8  A    between atoms: C_16  and  N_17
REMARK    9  A    between atoms: N_17  and  C_18
REMARK   10  A    between atoms: N_17  and  C_19
REMARK   11  A    between atoms: C_23  and  O_24
REMARK   12  A    between atoms: O_24  and  C_25
REMARK                            x       y       z     vdW  Elec       q    Type
REMARK                         _______ _______ _______ _____ _____    ______ ____
ROOT
ATOM      1  C   UNL     1       3.222   6.038  18.939  0.00  0.00    +0.000 A 
ATOM      2  C   UNL     1       2.745   5.365  20.054  0.00  0.00    +0.000 A 
ATOM      3 BR   UNL     1       3.169   3.659  20.699  0.00  0.00    +0.000 Br
ATOM      4  N   UNL     1       1.877   6.170  20.725  0.00  0.00    +0.000 N 
ATOM      5  C   UNL     1       1.819   7.418  20.149  0.00  0.00    +0.000 A 
ATOM      6  C   UNL     1       2.612   7.338  19.017  0.00  0.00    +0.000 A 
ATOM      7 BR   UNL     1       2.865   8.740  17.773  0.00  0.00    +0.000 Br
ATOM      8  H   UNL     1       1.400   5.920  21.583  0.00  0.00    +0.000 HD
ENDROOT
BRANCH   1  12
ATOM      9  C   UNL     1       5.876   4.581  15.887  0.00  0.00    +0.000 A 
ATOM     10  C   UNL     1       4.675   3.919  16.173  0.00  0.00    +0.000 A 
ATOM     11  C   UNL     1       3.803   4.400  17.151  0.00  0.00    +0.000 A 
ATOM     12  C   UNL     1       4.152   5.490  17.949  0.00  0.00    +0.000 A 
ATOM     13  C   UNL     1       5.408   6.072  17.737  0.00  0.00    +0.000 A 
ATOM     14  C   UNL     1       6.264   5.654  16.700  0.00  0.00    +0.000 A 
BRANCH   9  16
ATOM     15  C   UNL     1       5.999   3.864  13.629  0.00  0.00    +0.000 C 
ATOM     16  O   UNL     1       6.673   4.187  14.846  0.00  0.00    +0.000 OA
ENDBRANCH   9  16
BRANCH  14  17
ATOM     17  O   UNL     1       7.387   6.436  16.626  0.00  0.00    +0.000 OA
ATOM     18  C   UNL     1       7.558   7.503  17.544  0.00  0.00    +0.000 C 
ENDBRANCH  14  17
ENDBRANCH   1  12
BRANCH   5  19
ATOM     19  C   UNL     1       1.113   8.530  20.740  0.00  0.00    +0.000 C 
ATOM     20  O   UNL     1       1.118   8.874  21.907  0.00  0.00    +0.000 OA
BRANCH  19  21
ATOM     21  O   UNL     1       0.282   9.060  19.788  0.00  0.00    +0.000 OA
BRANCH  21  22
ATOM     22  C   UNL     1      -0.264  10.329  20.171  0.00  0.00    +0.000 C 
BRANCH  22  23
ATOM     23  C   UNL     1      -0.013  11.438  19.141  0.00  0.00    +0.000 C 
BRANCH  23  24
ATOM     24  N   UNL     1      -1.278  11.970  18.591  0.00  0.00    +0.000 NA
ATOM     25  C   UNL     1      -1.973  10.983  17.757  0.00  0.00    +0.000 C 
ATOM     26  C   UNL     1      -2.167  12.410  19.668  0.00  0.00    +0.000 C 
ENDBRANCH  23  24
ENDBRANCH  22  23
ENDBRANCH  21  22
ENDBRANCH  19  21
ENDBRANCH   5  19
TORSDOF 8
ENDMDL
MODEL 8
REMARK VINA RESULT:      -6.3      3.107      8.429
REMARK  Name = 
REMARK  12 active torsions:
REMARK  status: ('A' for Active; 'I' for Inactive)
REMARK    1  A    between atoms: C_1  and  O_2
REMARK    2  A    between atoms: O_2  and  C_3
REMARK    3  A    between atoms: C_6  and  C_7
REMARK    4  A    between atoms: C_11  and  C_12
REMARK    5  A    between atoms: C_12  and  O_14
REMARK    6  A    between atoms: O_14  and  C_15
REMARK    7  A    between atoms: C_15  and  C_16
REMARK    8  A    between atoms: C_16  and  N_17
REMARK    9  A    between atoms: N_17  and  C_18
REMARK   10  A    between atoms: N_17  and  C_19
REMARK   11  A    between atoms: C_23  and  O_24
REMARK   12  A    between atoms: O_24  and  C_25
REMARK                            x       y       z     vdW  Elec       q    Type
REMARK                         _______ _______ _______ _____ _____    ______ ____
ROOT
ATOM      1  C   UNL     1       2.511   6.521  19.264  0.00  0.00    +0.000 A 
ATOM      2  C   UNL     1       2.087   5.994  20.474  0.00  0.00    +0.000 A 
ATOM      3 BR   UNL     1       2.409   4.311  21.230  0.00  0.00    +0.000 Br
ATOM      4  N   UNL     1       1.372   6.937  21.147  0.00  0.00    +0.000 N 
ATOM      5  C   UNL     1       1.376   8.134  20.467  0.00  0.00    +0.000 A 
ATOM      6  C   UNL     1       2.039   7.880  19.279  0.00  0.00    +0.000 A 
ATOM      7 BR   UNL     1       2.298   9.143  17.895  0.00  0.00    +0.000 Br
ATOM      8  H   UNL     1       0.962   6.808  22.064  0.00  0.00    +0.000 HD
ENDROOT
BRANCH   1  12
ATOM      9  C   UNL     1       4.918   4.359  16.434  0.00  0.00    +0.000 A 
ATOM     10  C   UNL     1       4.981   5.756  16.513  0.00  0.00    +0.000 A 
ATOM     11  C   UNL     1       4.214   6.460  17.444  0.00  0.00    +0.000 A 
ATOM     12  C   UNL     1       3.280   5.802  18.246  0.00  0.00    +0.000 A 
ATOM     13  C   UNL     1       3.139   4.420  18.074  0.00  0.00    +0.000 A 
ATOM     14  C   UNL     1       3.962   3.683  17.203  0.00  0.00    +0.000 A 
BRANCH   9  16
ATOM     15  C   UNL     1       5.914   4.171  14.289  0.00  0.00    +0.000 C 
ATOM     16  O   UNL     1       5.759   3.656  15.612  0.00  0.00    +0.000 OA
ENDBRANCH   9  16
BRANCH  14  17
ATOM     17  O   UNL     1       3.706   2.339  17.281  0.00  0.00    +0.000 OA
ATOM     18  C   UNL     1       3.217   1.789  18.493  0.00  0.00    +0.000 C 
ENDBRANCH  14  17
ENDBRANCH   1  12
BRANCH   5  19
ATOM     19  C   UNL     1       0.843   9.358  21.017  0.00  0.00    +0.000 C 
ATOM     20  O   UNL     1       1.273   9.993  21.962  0.00  0.00    +0.000 OA
BRANCH  19  21
ATOM     21  O   UNL     1      -0.351   9.617  20.399  0.00  0.00    +0.000 OA
BRANCH  21  22
ATOM     22  C   UNL     1      -0.668  11.015  20.364  0.00  0.00    +0.000 C 
BRANCH  22  23
ATOM     23  C   UNL     1      -0.126  11.733  19.122  0.00  0.00    +0.000 C 
BRANCH  23  24
ATOM     24  N   UNL     1       0.479  13.038  19.465  0.00  0.00    +0.000 NA
ATOM     25  C   UNL     1      -0.184  14.150  18.775  0.00  0.00    +0.000 C 
ATOM     26  C   UNL     1       0.434  13.265  20.911  0.00  0.00    +0.000 C 
ENDBRANCH  23  24
ENDBRANCH  22  23
ENDBRANCH  21  22
ENDBRANCH  19  21
ENDBRANCH   5  19
TORSDOF 8
ENDMDL
MODEL 9
REMARK VINA RESULT:      -6.3      3.331      8.312
REMARK  Name = 
REMARK  12 active torsions:
REMARK  status: ('A' for Active; 'I' for Inactive)
REMARK    1  A    between atoms: C_1  and  O_2
REMARK    2  A    between atoms: O_2  and  C_3
REMARK    3  A    between atoms: C_6  and  C_7
REMARK    4  A    between atoms: C_11  and  C_12
REMARK    5  A    between atoms: C_12  and  O_14
REMARK    6  A    between atoms: O_14  and  C_15
REMARK    7  A    between atoms: C_15  and  C_16
REMARK    8  A    between atoms: C_16  and  N_17
REMARK    9  A    between atoms: N_17  and  C_18
REMARK   10  A    between atoms: N_17  and  C_19
REMARK   11  A    between atoms: C_23  and  O_24
REMARK   12  A    between atoms: O_24  and  C_25
REMARK                            x       y       z     vdW  Elec       q    Type
REMARK                         _______ _______ _______ _____ _____    ______ ____
ROOT
ATOM      1  C   UNL     1       2.409   6.807  19.232  0.00  0.00    +0.000 A 
ATOM      2  C   UNL     1       2.000   6.276  20.446  0.00  0.00    +0.000 A 
ATOM      3 BR   UNL     1       2.337   4.593  21.195  0.00  0.00    +0.000 Br
ATOM      4  N   UNL     1       1.290   7.215  21.128  0.00  0.00    +0.000 N 
ATOM      5  C   UNL     1       1.281   8.413  20.451  0.00  0.00    +0.000 A 
ATOM      6  C   UNL     1       1.932   8.164  19.255  0.00  0.00    +0.000 A 
ATOM      7 BR   UNL     1       2.172   9.430  17.871  0.00  0.00    +0.000 Br
ATOM      8  H   UNL     1       0.890   7.083  22.050  0.00  0.00    +0.000 HD
ENDROOT
BRANCH   1  12
ATOM      9  C   UNL     1       4.780   4.640  16.375  0.00  0.00    +0.000 A 
ATOM     10  C   UNL     1       4.932   6.023  16.535  0.00  0.00    +0.000 A 
ATOM     11  C   UNL     1       4.176   6.727  17.475  0.00  0.00    +0.000 A 
ATOM     12  C   UNL     1       3.169   6.092  18.204  0.00  0.00    +0.000 A 
ATOM     13  C   UNL     1       2.944   4.734  17.950  0.00  0.00    +0.000 A 
ATOM     14  C   UNL     1       3.752   3.990  17.070  0.00  0.00    +0.000 A 
BRANCH   9  16
ATOM     15  C   UNL     1       6.979   4.319  15.543  0.00  0.00    +0.000 C 
ATOM     16  O   UNL     1       5.605   3.927  15.547  0.00  0.00    +0.000 OA
ENDBRANCH   9  16
BRANCH  14  17
ATOM     17  O   UNL     1       3.404   2.665  17.063  0.00  0.00    +0.000 OA
ATOM     18  C   UNL     1       3.393   1.938  18.280  0.00  0.00    +0.000 C 
ENDBRANCH  14  17
ENDBRANCH   1  12
BRANCH   5  19
ATOM     19  C   UNL     1       0.750   9.634  21.009  0.00  0.00    +0.000 C 
ATOM     20  O   UNL     1       1.219  10.298  21.915  0.00  0.00    +0.000 OA
BRANCH  19  21
ATOM     21  O   UNL     1      -0.485   9.851  20.458  0.00  0.00    +0.000 OA
BRANCH  21  22
ATOM     22  C   UNL     1      -0.542  11.054  19.679  0.00  0.00    +0.000 C 
BRANCH  22  23
ATOM     23  C   UNL     1      -1.948  11.660  19.597  0.00  0.00    +0.000 C 
BRANCH  23  24
ATOM     24  N   UNL     1      -2.476  11.633  18.216  0.00  0.00    +0.000 NA
ATOM     25  C   UNL     1      -1.936  10.509  17.443  0.00  0.00    +0.000 C 
ATOM     26  C   UNL     1      -3.939  11.561  18.223  0.00  0.00    +0.000 C 
ENDBRANCH  23  24
ENDBRANCH  22  23
ENDBRANCH  21  22
ENDBRANCH  19  21
ENDBRANCH   5  19
TORSDOF 8
ENDMDL
