MODEL 1
REMARK VINA RESULT:      -7.9      0.000      0.000
REMARK  Name = 
REMARK  5 active torsions:
REMARK  status: ('A' for Active; 'I' for Inactive)
REMARK    1  A    between atoms: C_1  and  N_2
REMARK    2  A    between atoms: N_2  and  C_3
REMARK    3  A    between atoms: N_2  and  C_4
REMARK    4  A    between atoms: C_7  and  C_8
REMARK    5  A    between atoms: N_10  and  N_11
REMARK                            x       y       z     vdW  Elec       q    Type
REMARK                         _______ _______ _______ _____ _____    ______ ____
ROOT
ATOM      1  N   UNL     1       5.701   5.851  17.746  0.00  0.00    +0.000 N 
ATOM      2  C   UNL     1       5.693   4.713  18.513  0.00  0.00    +0.000 C 
ATOM      3  O   UNL     1       6.474   4.440  19.416  0.00  0.00    +0.000 OA
ATOM      4  C   UNL     1       4.442   3.936  18.211  0.00  0.00    +0.000 C 
ATOM      5  C   UNL     1       3.576   3.761  19.498  0.00  0.00    +0.000 C 
ATOM      6  C   UNL     1       2.272   3.140  19.006  0.00  0.00    +0.000 C 
ATOM      7  C   UNL     1       1.602   3.899  18.114  0.00  0.00    +0.000 C 
ATOM      8  C   UNL     1       2.285   5.223  17.783  0.00  0.00    +0.000 C 
ATOM      9  C   UNL     1       2.565   6.027  19.071  0.00  0.00    +0.000 C 
ATOM     10  C   UNL     1       1.970   5.738  20.430  0.00  0.00    +0.000 C 
ATOM     11  C   UNL     1       3.325   5.174  20.071  0.00  0.00    +0.000 C 
ATOM     12  C   UNL     1       3.675   4.826  17.189  0.00  0.00    +0.000 C 
ATOM     13  C   UNL     1       4.538   6.052  17.031  0.00  0.00    +0.000 C 
ATOM     14  O   UNL     1       4.153   7.075  16.480  0.00  0.00    +0.000 OA
ENDROOT
BRANCH   1  17
ATOM     15  C   UNL     1       7.442   7.490  17.459  0.00  0.00    +0.000 C 
ATOM     16  O   UNL     1       7.879   6.945  16.450  0.00  0.00    +0.000 OA
ATOM     17  N   UNL     1       6.431   6.952  18.222  0.00  0.00    +0.000 N 
ATOM     18  H   UNL     1       6.137   7.318  19.117  0.00  0.00    +0.000 HD
BRANCH  15  22
ATOM     19  C   UNL     1       9.224  11.213  18.904  0.00  0.00    +0.000 A 
ATOM     20  C   UNL     1       9.445   9.959  19.497  0.00  0.00    +0.000 A 
ATOM     21  C   UNL     1       8.849   8.785  19.019  0.00  0.00    +0.000 A 
ATOM     22  C   UNL     1       8.005   8.805  17.909  0.00  0.00    +0.000 A 
ATOM     23  C   UNL     1       7.775  10.036  17.288  0.00  0.00    +0.000 A 
ATOM     24  C   UNL     1       8.371  11.213  17.788  0.00  0.00    +0.000 A 
BRANCH  19  26
ATOM     25  C   UNL     1      10.793  12.299  20.477  0.00  0.00    +0.000 C 
ATOM     26  N   UNL     1       9.839  12.370  19.375  0.00  0.00    +0.000 N 
ATOM     27  C   UNL     1       9.262  13.678  19.085  0.00  0.00    +0.000 C 
ENDBRANCH  19  26
ENDBRANCH  15  22
ENDBRANCH   1  17
TORSDOF 3
ENDMDL
MODEL 2
REMARK VINA RESULT:      -7.8      0.294      1.153
REMARK  Name = 
REMARK  5 active torsions:
REMARK  status: ('A' for Active; 'I' for Inactive)
REMARK    1  A    between atoms: C_1  and  N_2
REMARK    2  A    between atoms: N_2  and  C_3
REMARK    3  A    between atoms: N_2  and  C_4
REMARK    4  A    between atoms: C_7  and  C_8
REMARK    5  A    between atoms: N_10  and  N_11
REMARK                            x       y       z     vdW  Elec       q    Type
REMARK                         _______ _______ _______ _____ _____    ______ ____
ROOT
ATOM      1  N   UNL     1       5.640   5.786  17.749  0.00  0.00    +0.000 N 
ATOM      2  C   UNL     1       5.613   4.619  18.470  0.00  0.00    +0.000 C 
ATOM      3  O   UNL     1       6.405   4.285  19.342  0.00  0.00    +0.000 OA
ATOM      4  C   UNL     1       4.332   3.893  18.166  0.00  0.00    +0.000 C 
ATOM      5  C   UNL     1       3.490   3.693  19.465  0.00  0.00    +0.000 C 
ATOM      6  C   UNL     1       2.155   3.133  18.979  0.00  0.00    +0.000 C 
ATOM      7  C   UNL     1       1.491   3.948  18.134  0.00  0.00    +0.000 C 
ATOM      8  C   UNL     1       2.207   5.263  17.841  0.00  0.00    +0.000 C 
ATOM      9  C   UNL     1       2.541   6.005  19.153  0.00  0.00    +0.000 C 
ATOM     10  C   UNL     1       1.968   5.679  20.513  0.00  0.00    +0.000 C 
ATOM     11  C   UNL     1       3.296   5.089  20.100  0.00  0.00    +0.000 C 
ATOM     12  C   UNL     1       3.571   4.848  17.199  0.00  0.00    +0.000 C 
ATOM     13  C   UNL     1       4.469   6.052  17.070  0.00  0.00    +0.000 C 
ATOM     14  O   UNL     1       4.104   7.108  16.570  0.00  0.00    +0.000 OA
ENDROOT
BRANCH   1  17
ATOM     15  C   UNL     1       7.428   7.378  17.489  0.00  0.00    +0.000 C 
ATOM     16  O   UNL     1       7.828   6.859  16.451  0.00  0.00    +0.000 OA
ATOM     17  N   UNL     1       6.415   6.844  18.251  0.00  0.00    +0.000 N 
ATOM     18  H   UNL     1       6.151   7.184  19.166  0.00  0.00    +0.000 HD
BRANCH  15  22
ATOM     19  C   UNL     1       9.081  11.215  18.782  0.00  0.00    +0.000 A 
ATOM     20  C   UNL     1       8.209  11.068  17.691  0.00  0.00    +0.000 A 
ATOM     21  C   UNL     1       7.705   9.822  17.293  0.00  0.00    +0.000 A 
ATOM     22  C   UNL     1       8.043   8.656  17.978  0.00  0.00    +0.000 A 
ATOM     23  C   UNL     1       8.901   8.770  19.076  0.00  0.00    +0.000 A 
ATOM     24  C   UNL     1       9.411  10.029  19.458  0.00  0.00    +0.000 A 
BRANCH  19  26
ATOM     25  C   UNL     1       9.853  13.488  18.188  0.00  0.00    +0.000 C 
ATOM     26  N   UNL     1       9.558  12.461  19.182  0.00  0.00    +0.000 N 
ATOM     27  C   UNL     1      10.155  12.629  20.502  0.00  0.00    +0.000 C 
ENDBRANCH  19  26
ENDBRANCH  15  22
ENDBRANCH   1  17
TORSDOF 3
ENDMDL
MODEL 3
REMARK VINA RESULT:      -7.8      1.522      2.250
REMARK  Name = 
REMARK  5 active torsions:
REMARK  status: ('A' for Active; 'I' for Inactive)
REMARK    1  A    between atoms: C_1  and  N_2
REMARK    2  A    between atoms: N_2  and  C_3
REMARK    3  A    between atoms: N_2  and  C_4
REMARK    4  A    between atoms: C_7  and  C_8
REMARK    5  A    between atoms: N_10  and  N_11
REMARK                            x       y       z     vdW  Elec       q    Type
REMARK                         _______ _______ _______ _____ _____    ______ ____
ROOT
ATOM      1  N   UNL     1       4.013   5.370  17.483  0.00  0.00    +0.000 N 
ATOM      2  C   UNL     1       4.157   4.037  17.193  0.00  0.00    +0.000 C 
ATOM      3  O   UNL     1       5.211   3.445  17.000  0.00  0.00    +0.000 OA
ATOM      4  C   UNL     1       2.823   3.361  17.353  0.00  0.00    +0.000 C 
ATOM      5  C   UNL     1       2.899   2.240  18.436  0.00  0.00    +0.000 C 
ATOM      6  C   UNL     1       1.453   1.788  18.627  0.00  0.00    +0.000 C 
ATOM      7  C   UNL     1       0.622   2.764  19.048  0.00  0.00    +0.000 C 
ATOM      8  C   UNL     1       1.297   4.117  19.249  0.00  0.00    +0.000 C 
ATOM      9  C   UNL     1       2.502   3.986  20.207  0.00  0.00    +0.000 C 
ATOM     10  C   UNL     1       2.793   2.794  21.089  0.00  0.00    +0.000 C 
ATOM     11  C   UNL     1       3.441   2.893  19.728  0.00  0.00    +0.000 C 
ATOM     12  C   UNL     1       1.876   4.495  17.848  0.00  0.00    +0.000 C 
ATOM     13  C   UNL     1       2.765   5.707  17.965  0.00  0.00    +0.000 C 
ATOM     14  O   UNL     1       2.424   6.733  18.539  0.00  0.00    +0.000 OA
ENDROOT
BRANCH   1  17
ATOM     15  C   UNL     1       5.933   6.751  17.030  0.00  0.00    +0.000 C 
ATOM     16  O   UNL     1       5.809   6.640  15.814  0.00  0.00    +0.000 OA
ATOM     17  N   UNL     1       5.148   6.066  17.928  0.00  0.00    +0.000 N 
ATOM     18  H   UNL     1       5.309   6.048  18.926  0.00  0.00    +0.000 HD
BRANCH  15  22
ATOM     19  C   UNL     1       8.845   9.602  18.617  0.00  0.00    +0.000 A 
ATOM     20  C   UNL     1       7.803   9.954  17.744  0.00  0.00    +0.000 A 
ATOM     21  C   UNL     1       6.892   9.015  17.241  0.00  0.00    +0.000 A 
ATOM     22  C   UNL     1       6.973   7.670  17.599  0.00  0.00    +0.000 A 
ATOM     23  C   UNL     1       7.992   7.289  18.478  0.00  0.00    +0.000 A 
ATOM     24  C   UNL     1       8.910   8.243  18.965  0.00  0.00    +0.000 A 
BRANCH  19  26
ATOM     25  C   UNL     1       9.603  11.004  20.507  0.00  0.00    +0.000 C 
ATOM     26  N   UNL     1       9.731  10.548  19.127  0.00  0.00    +0.000 N 
ATOM     27  C   UNL     1      10.509  11.387  18.224  0.00  0.00    +0.000 C 
ENDBRANCH  19  26
ENDBRANCH  15  22
ENDBRANCH   1  17
TORSDOF 3
ENDMDL
MODEL 4
REMARK VINA RESULT:      -7.6      4.801      6.029
REMARK  Name = 
REMARK  5 active torsions:
REMARK  status: ('A' for Active; 'I' for Inactive)
REMARK    1  A    between atoms: C_1  and  N_2
REMARK    2  A    between atoms: N_2  and  C_3
REMARK    3  A    between atoms: N_2  and  C_4
REMARK    4  A    between atoms: C_7  and  C_8
REMARK    5  A    between atoms: N_10  and  N_11
REMARK                            x       y       z     vdW  Elec       q    Type
REMARK                         _______ _______ _______ _____ _____    ______ ____
ROOT
ATOM      1  N   UNL     1       3.054   5.899  18.417  0.00  0.00    +0.000 N 
ATOM      2  C   UNL     1       4.187   5.321  18.932  0.00  0.00    +0.000 C 
ATOM      3  O   UNL     1       4.950   5.821  19.750  0.00  0.00    +0.000 OA
ATOM      4  C   UNL     1       4.240   3.885  18.492  0.00  0.00    +0.000 C 
ATOM      5  C   UNL     1       4.244   2.929  19.726  0.00  0.00    +0.000 C 
ATOM      6  C   UNL     1       4.100   1.530  19.131  0.00  0.00    +0.000 C 
ATOM      7  C   UNL     1       2.967   1.345  18.424  0.00  0.00    +0.000 C 
ATOM      8  C   UNL     1       2.060   2.571  18.365  0.00  0.00    +0.000 C 
ATOM      9  C   UNL     1       1.731   3.072  19.789  0.00  0.00    +0.000 C 
ATOM     10  C   UNL     1       1.971   2.301  21.065  0.00  0.00    +0.000 C 
ATOM     11  C   UNL     1       3.008   3.287  20.581  0.00  0.00    +0.000 C 
ATOM     12  C   UNL     1       2.923   3.683  17.685  0.00  0.00    +0.000 C 
ATOM     13  C   UNL     1       2.216   5.012  17.773  0.00  0.00    +0.000 C 
ATOM     14  O   UNL     1       1.047   5.170  17.451  0.00  0.00    +0.000 OA
ENDROOT
BRANCH   1  17
ATOM     15  C   UNL     1       2.234   8.163  18.422  0.00  0.00    +0.000 C 
ATOM     16  O   UNL     1       2.601   8.368  17.268  0.00  0.00    +0.000 OA
ATOM     17  N   UNL     1       2.516   7.001  19.101  0.00  0.00    +0.000 N 
ATOM     18  H   UNL     1       2.331   6.858  20.084  0.00  0.00    +0.000 HD
BRANCH  15  22
ATOM     19  C   UNL     1      -0.061  11.075  20.741  0.00  0.00    +0.000 A 
ATOM     20  C   UNL     1       0.333   9.820  21.233  0.00  0.00    +0.000 A 
ATOM     21  C   UNL     1       1.057   8.902  20.461  0.00  0.00    +0.000 A 
ATOM     22  C   UNL     1       1.436   9.201  19.153  0.00  0.00    +0.000 A 
ATOM     23  C   UNL     1       1.070  10.448  18.637  0.00  0.00    +0.000 A 
ATOM     24  C   UNL     1       0.328  11.357  19.422  0.00  0.00    +0.000 A 
BRANCH  19  26
ATOM     25  C   UNL     1      -1.214  11.613  22.861  0.00  0.00    +0.000 C 
ATOM     26  N   UNL     1      -0.762  11.987  21.525  0.00  0.00    +0.000 N 
ATOM     27  C   UNL     1      -1.407  13.141  20.909  0.00  0.00    +0.000 C 
ENDBRANCH  19  26
ENDBRANCH  15  22
ENDBRANCH   1  17
TORSDOF 3
ENDMDL
MODEL 5
REMARK VINA RESULT:      -7.6      4.841      6.220
REMARK  Name = 
REMARK  5 active torsions:
REMARK  status: ('A' for Active; 'I' for Inactive)
REMARK    1  A    between atoms: C_1  and  N_2
REMARK    2  A    between atoms: N_2  and  C_3
REMARK    3  A    between atoms: N_2  and  C_4
REMARK    4  A    between atoms: C_7  and  C_8
REMARK    5  A    between atoms: N_10  and  N_11
REMARK                            x       y       z     vdW  Elec       q    Type
REMARK                         _______ _______ _______ _____ _____    ______ ____
ROOT
ATOM      1  N   UNL     1       3.025   5.837  18.405  0.00  0.00    +0.000 N 
ATOM      2  C   UNL     1       4.178   5.310  18.931  0.00  0.00    +0.000 C 
ATOM      3  O   UNL     1       4.915   5.848  19.748  0.00  0.00    +0.000 OA
ATOM      4  C   UNL     1       4.292   3.874  18.503  0.00  0.00    +0.000 C 
ATOM      5  C   UNL     1       4.328   2.929  19.745  0.00  0.00    +0.000 C 
ATOM      6  C   UNL     1       4.245   1.520  19.162  0.00  0.00    +0.000 C 
ATOM      7  C   UNL     1       3.124   1.283  18.450  0.00  0.00    +0.000 C 
ATOM      8  C   UNL     1       2.168   2.470  18.376  0.00  0.00    +0.000 C 
ATOM      9  C   UNL     1       1.811   2.969  19.794  0.00  0.00    +0.000 C 
ATOM     10  C   UNL     1       2.076   2.219  21.078  0.00  0.00    +0.000 C 
ATOM     11  C   UNL     1       3.074   3.243  20.591  0.00  0.00    +0.000 C 
ATOM     12  C   UNL     1       2.989   3.611  17.691  0.00  0.00    +0.000 C 
ATOM     13  C   UNL     1       2.228   4.910  17.764  0.00  0.00    +0.000 C 
ATOM     14  O   UNL     1       1.054   5.018  17.434  0.00  0.00    +0.000 OA
ENDROOT
BRANCH   1  17
ATOM     15  C   UNL     1       2.201   8.099  18.408  0.00  0.00    +0.000 C 
ATOM     16  O   UNL     1       2.646   8.332  17.287  0.00  0.00    +0.000 OA
ATOM     17  N   UNL     1       2.439   6.921  19.077  0.00  0.00    +0.000 N 
ATOM     18  H   UNL     1       2.187   6.754  20.041  0.00  0.00    +0.000 HD
BRANCH  15  22
ATOM     19  C   UNL     1      -0.343  11.143  20.248  0.00  0.00    +0.000 A 
ATOM     20  C   UNL     1      -0.039  11.103  18.878  0.00  0.00    +0.000 A 
ATOM     21  C   UNL     1       0.791  10.122  18.319  0.00  0.00    +0.000 A 
ATOM     22  C   UNL     1       1.352   9.119  19.107  0.00  0.00    +0.000 A 
ATOM     23  C   UNL     1       1.059   9.123  20.474  0.00  0.00    +0.000 A 
ATOM     24  C   UNL     1       0.233  10.125  21.026  0.00  0.00    +0.000 A 
BRANCH  19  26
ATOM     25  C   UNL     1      -1.199  12.351  22.229  0.00  0.00    +0.000 C 
ATOM     26  N   UNL     1      -1.186  12.110  20.789  0.00  0.00    +0.000 N 
ATOM     27  C   UNL     1      -2.333  12.594  20.029  0.00  0.00    +0.000 C 
ENDBRANCH  19  26
ENDBRANCH  15  22
ENDBRANCH   1  17
TORSDOF 3
ENDMDL
MODEL 6
REMARK VINA RESULT:      -7.5      1.595      2.332
REMARK  Name = 
REMARK  5 active torsions:
REMARK  status: ('A' for Active; 'I' for Inactive)
REMARK    1  A    between atoms: C_1  and  N_2
REMARK    2  A    between atoms: N_2  and  C_3
REMARK    3  A    between atoms: N_2  and  C_4
REMARK    4  A    between atoms: C_7  and  C_8
REMARK    5  A    between atoms: N_10  and  N_11
REMARK                            x       y       z     vdW  Elec       q    Type
REMARK                         _______ _______ _______ _____ _____    ______ ____
ROOT
ATOM      1  N   UNL     1       4.890   3.794  18.295  0.00  0.00    +0.000 N 
ATOM      2  C   UNL     1       4.652   2.864  19.276  0.00  0.00    +0.000 C 
ATOM      3  O   UNL     1       5.303   2.706  20.301  0.00  0.00    +0.000 OA
ATOM      4  C   UNL     1       3.334   2.196  18.998  0.00  0.00    +0.000 C 
ATOM      5  C   UNL     1       2.342   2.417  20.183  0.00  0.00    +0.000 C 
ATOM      6  C   UNL     1       1.010   1.865  19.681  0.00  0.00    +0.000 C 
ATOM      7  C   UNL     1       0.538   2.482  18.579  0.00  0.00    +0.000 C 
ATOM      8  C   UNL     1       1.429   3.607  18.062  0.00  0.00    +0.000 C 
ATOM      9  C   UNL     1       1.707   4.638  19.179  0.00  0.00    +0.000 C 
ATOM     10  C   UNL     1       0.960   4.731  20.489  0.00  0.00    +0.000 C 
ATOM     11  C   UNL     1       2.247   3.942  20.416  0.00  0.00    +0.000 C 
ATOM     12  C   UNL     1       2.795   2.924  17.731  0.00  0.00    +0.000 C 
ATOM     13  C   UNL     1       3.836   3.970  17.423  0.00  0.00    +0.000 C 
ATOM     14  O   UNL     1       3.651   4.885  16.631  0.00  0.00    +0.000 OA
ENDROOT
BRANCH   1  17
ATOM     15  C   UNL     1       6.699   5.279  17.729  0.00  0.00    +0.000 C 
ATOM     16  O   UNL     1       7.014   4.624  16.740  0.00  0.00    +0.000 OA
ATOM     17  N   UNL     1       5.726   4.876  18.614  0.00  0.00    +0.000 N 
ATOM     18  H   UNL     1       5.533   5.334  19.495  0.00  0.00    +0.000 HD
BRANCH  15  22
ATOM     19  C   UNL     1       8.543   9.182  18.430  0.00  0.00    +0.000 A 
ATOM     20  C   UNL     1       7.609   8.930  17.411  0.00  0.00    +0.000 A 
ATOM     21  C   UNL     1       7.045   7.665  17.203  0.00  0.00    +0.000 A 
ATOM     22  C   UNL     1       7.381   6.583  18.017  0.00  0.00    +0.000 A 
ATOM     23  C   UNL     1       8.298   6.804  19.049  0.00  0.00    +0.000 A 
ATOM     24  C   UNL     1       8.869   8.081  19.238  0.00  0.00    +0.000 A 
BRANCH  19  26
ATOM     25  C   UNL     1       9.674  10.789  19.930  0.00  0.00    +0.000 C 
ATOM     26  N   UNL     1       9.081  10.449  18.641  0.00  0.00    +0.000 N 
ATOM     27  C   UNL     1       8.707  11.560  17.773  0.00  0.00    +0.000 C 
ENDBRANCH  19  26
ENDBRANCH  15  22
ENDBRANCH   1  17
TORSDOF 3
ENDMDL
MODEL 7
REMARK VINA RESULT:      -7.2      1.434      1.948
REMARK  Name = 
REMARK  5 active torsions:
REMARK  status: ('A' for Active; 'I' for Inactive)
REMARK    1  A    between atoms: C_1  and  N_2
REMARK    2  A    between atoms: N_2  and  C_3
REMARK    3  A    between atoms: N_2  and  C_4
REMARK    4  A    between atoms: C_7  and  C_8
REMARK    5  A    between atoms: N_10  and  N_11
REMARK                            x       y       z     vdW  Elec       q    Type
REMARK                         _______ _______ _______ _____ _____    ______ ____
ROOT
ATOM      1  N   UNL     1       7.677   5.715  17.900  0.00  0.00    +0.000 N 
ATOM      2  C   UNL     1       7.039   5.198  19.000  0.00  0.00    +0.000 C 
ATOM      3  O   UNL     1       7.195   5.550  20.162  0.00  0.00    +0.000 OA
ATOM      4  C   UNL     1       5.956   4.264  18.536  0.00  0.00    +0.000 C 
ATOM      5  C   UNL     1       4.559   4.747  19.036  0.00  0.00    +0.000 C 
ATOM      6  C   UNL     1       3.559   3.832  18.334  0.00  0.00    +0.000 C 
ATOM      7  C   UNL     1       3.601   3.898  16.988  0.00  0.00    +0.000 C 
ATOM      8  C   UNL     1       4.637   4.877  16.443  0.00  0.00    +0.000 C 
ATOM      9  C   UNL     1       4.426   6.284  17.046  0.00  0.00    +0.000 C 
ATOM     10  C   UNL     1       3.196   6.738  17.797  0.00  0.00    +0.000 C 
ATOM     11  C   UNL     1       4.387   6.208  18.562  0.00  0.00    +0.000 C 
ATOM     12  C   UNL     1       6.009   4.358  16.982  0.00  0.00    +0.000 C 
ATOM     13  C   UNL     1       7.091   5.369  16.699  0.00  0.00    +0.000 C 
ATOM     14  O   UNL     1       7.266   5.872  15.597  0.00  0.00    +0.000 OA
ENDROOT
BRANCH   1  17
ATOM     15  C   UNL     1       7.639   8.114  17.704  0.00  0.00    +0.000 C 
ATOM     16  O   UNL     1       6.568   8.114  17.104  0.00  0.00    +0.000 OA
ATOM     17  N   UNL     1       8.309   6.960  18.039  0.00  0.00    +0.000 N 
ATOM     18  H   UNL     1       9.244   6.936  18.423  0.00  0.00    +0.000 HD
BRANCH  15  22
ATOM     19  C   UNL     1       9.617  11.781  19.032  0.00  0.00    +0.000 A 
ATOM     20  C   UNL     1       9.734  10.547  19.692  0.00  0.00    +0.000 A 
ATOM     21  C   UNL     1       9.078   9.391  19.249  0.00  0.00    +0.000 A 
ATOM     22  C   UNL     1       8.274   9.411  18.110  0.00  0.00    +0.000 A 
ATOM     23  C   UNL     1       8.146  10.622  17.423  0.00  0.00    +0.000 A 
ATOM     24  C   UNL     1       8.802  11.781  17.888  0.00  0.00    +0.000 A 
BRANCH  19  26
ATOM     25  C   UNL     1       9.616  14.212  19.484  0.00  0.00    +0.000 C 
ATOM     26  N   UNL     1      10.291  12.919  19.469  0.00  0.00    +0.000 N 
ATOM     27  C   UNL     1      11.749  12.934  19.520  0.00  0.00    +0.000 C 
ENDBRANCH  19  26
ENDBRANCH  15  22
ENDBRANCH   1  17
TORSDOF 3
ENDMDL
MODEL 8
REMARK VINA RESULT:      -7.2      1.449      2.191
REMARK  Name = 
REMARK  5 active torsions:
REMARK  status: ('A' for Active; 'I' for Inactive)
REMARK    1  A    between atoms: C_1  and  N_2
REMARK    2  A    between atoms: N_2  and  C_3
REMARK    3  A    between atoms: N_2  and  C_4
REMARK    4  A    between atoms: C_7  and  C_8
REMARK    5  A    between atoms: N_10  and  N_11
REMARK                            x       y       z     vdW  Elec       q    Type
REMARK                         _______ _______ _______ _____ _____    ______ ____
ROOT
ATOM      1  N   UNL     1       7.684   5.748  17.943  0.00  0.00    +0.000 N 
ATOM      2  C   UNL     1       7.023   5.239  19.032  0.00  0.00    +0.000 C 
ATOM      3  O   UNL     1       7.174   5.580  20.199  0.00  0.00    +0.000 OA
ATOM      4  C   UNL     1       5.926   4.331  18.551  0.00  0.00    +0.000 C 
ATOM      5  C   UNL     1       4.534   4.839  19.039  0.00  0.00    +0.000 C 
ATOM      6  C   UNL     1       3.523   3.949  18.320  0.00  0.00    +0.000 C 
ATOM      7  C   UNL     1       3.582   4.023  16.975  0.00  0.00    +0.000 C 
ATOM      8  C   UNL     1       4.644   4.984  16.447  0.00  0.00    +0.000 C 
ATOM      9  C   UNL     1       4.456   6.390  17.056  0.00  0.00    +0.000 C 
ATOM     10  C   UNL     1       3.227   6.866  17.797  0.00  0.00    +0.000 C 
ATOM     11  C   UNL     1       4.398   6.306  18.572  0.00  0.00    +0.000 C 
ATOM     12  C   UNL     1       5.999   4.433  16.998  0.00  0.00    +0.000 C 
ATOM     13  C   UNL     1       7.105   5.423  16.734  0.00  0.00    +0.000 C 
ATOM     14  O   UNL     1       7.303   5.928  15.637  0.00  0.00    +0.000 OA
ENDROOT
BRANCH   1  17
ATOM     15  C   UNL     1       7.701   8.149  17.756  0.00  0.00    +0.000 C 
ATOM     16  O   UNL     1       6.639   8.174  17.140  0.00  0.00    +0.000 OA
ATOM     17  N   UNL     1       8.340   6.980  18.097  0.00  0.00    +0.000 N 
ATOM     18  H   UNL     1       9.269   6.934  18.495  0.00  0.00    +0.000 HD
BRANCH  15  22
ATOM     19  C   UNL     1       9.475  11.994  18.850  0.00  0.00    +0.000 A 
ATOM     20  C   UNL     1       8.588  11.820  17.776  0.00  0.00    +0.000 A 
ATOM     21  C   UNL     1       8.045  10.572  17.441  0.00  0.00    +0.000 A 
ATOM     22  C   UNL     1       8.357   9.430  18.178  0.00  0.00    +0.000 A 
ATOM     23  C   UNL     1       9.228   9.571  19.262  0.00  0.00    +0.000 A 
ATOM     24  C   UNL     1       9.778  10.832  19.579  0.00  0.00    +0.000 A 
BRANCH  19  26
ATOM     25  C   UNL     1       9.959  14.335  18.219  0.00  0.00    +0.000 C 
ATOM     26  N   UNL     1       9.991  13.242  19.187  0.00  0.00    +0.000 N 
ATOM     27  C   UNL     1      10.918  13.377  20.304  0.00  0.00    +0.000 C 
ENDBRANCH  19  26
ENDBRANCH  15  22
ENDBRANCH   1  17
TORSDOF 3
ENDMDL
MODEL 9
REMARK VINA RESULT:      -7.2      5.306      7.887
REMARK  Name = 
REMARK  5 active torsions:
REMARK  status: ('A' for Active; 'I' for Inactive)
REMARK    1  A    between atoms: C_1  and  N_2
REMARK    2  A    between atoms: N_2  and  C_3
REMARK    3  A    between atoms: N_2  and  C_4
REMARK    4  A    between atoms: C_7  and  C_8
REMARK    5  A    between atoms: N_10  and  N_11
REMARK                            x       y       z     vdW  Elec       q    Type
REMARK                         _______ _______ _______ _____ _____    ______ ____
ROOT
ATOM      1  N   UNL     1       0.529   9.521  19.984  0.00  0.00    +0.000 N 
ATOM      2  C   UNL     1       0.650  10.190  21.176  0.00  0.00    +0.000 C 
ATOM      3  O   UNL     1       1.540  10.044  22.005  0.00  0.00    +0.000 OA
ATOM      4  C   UNL     1      -0.375  11.289  21.218  0.00  0.00    +0.000 C 
ATOM      5  C   UNL     1       0.314  12.682  21.367  0.00  0.00    +0.000 C 
ATOM      6  C   UNL     1      -0.817  13.693  21.197  0.00  0.00    +0.000 C 
ATOM      7  C   UNL     1      -1.442  13.626  20.004  0.00  0.00    +0.000 C 
ATOM      8  C   UNL     1      -0.888  12.556  19.068  0.00  0.00    +0.000 C 
ATOM      9  C   UNL     1       0.632  12.741  18.870  0.00  0.00    +0.000 C 
ATOM     10  C   UNL     1       1.422  13.971  19.254  0.00  0.00    +0.000 C 
ATOM     11  C   UNL     1       1.336  12.808  20.214  0.00  0.00    +0.000 C 
ATOM     12  C   UNL     1      -1.082  11.207  19.833  0.00  0.00    +0.000 C 
ATOM     13  C   UNL     1      -0.368  10.095  19.108  0.00  0.00    +0.000 C 
ATOM     14  O   UNL     1      -0.496   9.888  17.908  0.00  0.00    +0.000 OA
ENDROOT
BRANCH   1  17
ATOM     15  C   UNL     1       1.906   7.550  19.841  0.00  0.00    +0.000 C 
ATOM     16  O   UNL     1       1.279   6.968  20.721  0.00  0.00    +0.000 OA
ATOM     17  N   UNL     1       1.665   8.859  19.491  0.00  0.00    +0.000 N 
ATOM     18  H   UNL     1       2.244   9.395  18.859  0.00  0.00    +0.000 HD
BRANCH  15  22
ATOM     19  C   UNL     1       5.036   5.292  17.784  0.00  0.00    +0.000 A 
ATOM     20  C   UNL     1       4.508   4.934  19.035  0.00  0.00    +0.000 A 
ATOM     21  C   UNL     1       3.514   5.685  19.676  0.00  0.00    +0.000 A 
ATOM     22  C   UNL     1       2.987   6.834  19.087  0.00  0.00    +0.000 A 
ATOM     23  C   UNL     1       3.483   7.211  17.835  0.00  0.00    +0.000 A 
ATOM     24  C   UNL     1       4.494   6.453  17.208  0.00  0.00    +0.000 A 
BRANCH  19  26
ATOM     25  C   UNL     1       7.409   4.643  17.539  0.00  0.00    +0.000 C 
ATOM     26  N   UNL     1       6.008   4.525  17.147  0.00  0.00    +0.000 N 
ATOM     27  C   UNL     1       5.736   3.926  15.845  0.00  0.00    +0.000 C 
ENDBRANCH  19  26
ENDBRANCH  15  22
ENDBRANCH   1  17
TORSDOF 3
ENDMDL
