MODEL 1
REMARK VINA RESULT:      -7.6      0.000      0.000
REMARK  Name = 
REMARK  12 active torsions:
REMARK  status: ('A' for Active; 'I' for Inactive)
REMARK    1  A    between atoms: C_2  and  C_3
REMARK    2  A    between atoms: N_5  and  C_6
REMARK    3  A    between atoms: C_6  and  C_7
REMARK    4  A    between atoms: C_7  and  C_8
REMARK    5  A    between atoms: C_8  and  C_9
REMARK    6  A    between atoms: C_9  and  C_10
REMARK    7  A    between atoms: C_10  and  N_11
REMARK    8  A    between atoms: C_10  and  C_22
REMARK    9  A    between atoms: C_12  and  O_14
REMARK   10  A    between atoms: O_14  and  C_15
REMARK   11  A    between atoms: C_15  and  C_16
REMARK   12  A    between atoms: C_28  and  C_29
REMARK                            x       y       z     vdW  Elec       q    Type
REMARK                         _______ _______ _______ _____ _____    ______ ____
ROOT
ATOM      1  C   UNL     1       2.795   6.932  18.919  0.00  0.00    +0.000 C 
ENDROOT
BRANCH   1   2
ATOM      2  C   UNL     1       2.170   8.295  18.521  0.00  0.00    +0.000 C 
ATOM      3  O   UNL     1       2.232   8.678  17.347  0.00  0.00    +0.000 OA
ATOM      4  N   UNL     1       1.416   8.992  19.463  0.00  0.00    +0.000 N 
ATOM      5  C   UNL     1       0.712  10.213  19.047  0.00  0.00    +0.000 C 
ATOM      6  C   UNL     1      -0.647  10.358  19.759  0.00  0.00    +0.000 C 
ATOM      7  N   UNL     1      -0.500  10.230  21.215  0.00  0.00    +0.000 N 
ATOM      8  C   UNL     1      -0.957  11.091  22.194  0.00  0.00    +0.000 C 
ATOM      9  C   UNL     1      -1.682  12.358  21.813  0.00  0.00    +0.000 C 
ATOM     10  O   UNL     1      -0.783  10.863  23.394  0.00  0.00    +0.000 OA
ATOM     11  C   UNL     1       0.174   8.993  21.626  0.00  0.00    +0.000 C 
ATOM     12  C   UNL     1       1.531   8.842  20.925  0.00  0.00    +0.000 C 
ENDBRANCH   1   2
BRANCH   1  13
ATOM     13  N   UNL     1       1.705   6.029  19.295  0.00  0.00    +0.000 N 
ATOM     14  C   UNL     1       1.649   5.370  20.483  0.00  0.00    +0.000 C 
ATOM     15  O   UNL     1       2.462   5.492  21.389  0.00  0.00    +0.000 OA
ATOM     16  H   UNL     1       0.933   5.884  18.660  0.00  0.00    +0.000 HD
BRANCH  14  17
ATOM     17  O   UNL     1       0.616   4.494  20.468  0.00  0.00    +0.000 OA
BRANCH  17  18
ATOM     18  C   UNL     1       0.986   3.120  20.657  0.00  0.00    +0.000 C 
BRANCH  18  19
ATOM     19  C   UNL     1       2.047   2.665  19.687  0.00  0.00    +0.000 A 
ATOM     20  C   UNL     1       3.322   2.296  20.138  0.00  0.00    +0.000 A 
ATOM     21  C   UNL     1       4.280   1.812  19.242  0.00  0.00    +0.000 A 
ATOM     22  C   UNL     1       3.974   1.701  17.887  0.00  0.00    +0.000 A 
ATOM     23  C   UNL     1       2.714   2.076  17.426  0.00  0.00    +0.000 A 
ATOM     24  C   UNL     1       1.755   2.561  18.320  0.00  0.00    +0.000 A 
ENDBRANCH  18  19
ENDBRANCH  17  18
ENDBRANCH  14  17
ENDBRANCH   1  13
BRANCH   1  25
ATOM     25  C   UNL     1       3.600   6.294  17.770  0.00  0.00    +0.000 C 
BRANCH  25  26
ATOM     26  C   UNL     1       5.119   6.387  17.968  0.00  0.00    +0.000 C 
BRANCH  26  27
ATOM     27  C   UNL     1       5.696   5.068  18.495  0.00  0.00    +0.000 C 
BRANCH  27  28
ATOM     28  C   UNL     1       6.812   4.540  17.592  0.00  0.00    +0.000 C 
BRANCH  28  31
ATOM     29  C   UNL     1       6.722   4.443  15.131  0.00  0.00    +0.000 C 
ATOM     30  O   UNL     1       7.573   5.314  14.977  0.00  0.00    +0.000 OA
ATOM     31  N   UNL     1       6.291   3.991  16.354  0.00  0.00    +0.000 N 
ATOM     32  H   UNL     1       5.614   3.244  16.406  0.00  0.00    +0.000 HD
BRANCH  29  34
ATOM     33  C   UNL     1       6.524   3.919  12.743  0.00  0.00    +0.000 C 
ATOM     34  C   UNL     1       6.049   3.773  13.989  0.00  0.00    +0.000 C 
ENDBRANCH  29  34
ENDBRANCH  28  31
ENDBRANCH  27  28
ENDBRANCH  26  27
ENDBRANCH  25  26
ENDBRANCH   1  25
TORSDOF 11
ENDMDL
MODEL 2
REMARK VINA RESULT:      -7.5      0.628      1.074
REMARK  Name = 
REMARK  12 active torsions:
REMARK  status: ('A' for Active; 'I' for Inactive)
REMARK    1  A    between atoms: C_2  and  C_3
REMARK    2  A    between atoms: N_5  and  C_6
REMARK    3  A    between atoms: C_6  and  C_7
REMARK    4  A    between atoms: C_7  and  C_8
REMARK    5  A    between atoms: C_8  and  C_9
REMARK    6  A    between atoms: C_9  and  C_10
REMARK    7  A    between atoms: C_10  and  N_11
REMARK    8  A    between atoms: C_10  and  C_22
REMARK    9  A    between atoms: C_12  and  O_14
REMARK   10  A    between atoms: O_14  and  C_15
REMARK   11  A    between atoms: C_15  and  C_16
REMARK   12  A    between atoms: C_28  and  C_29
REMARK                            x       y       z     vdW  Elec       q    Type
REMARK                         _______ _______ _______ _____ _____    ______ ____
ROOT
ATOM      1  C   UNL     1       2.956   6.830  19.078  0.00  0.00    +0.000 C 
ENDROOT
BRANCH   1   2
ATOM      2  C   UNL     1       2.396   8.128  18.438  0.00  0.00    +0.000 C 
ATOM      3  O   UNL     1       2.590   8.353  17.238  0.00  0.00    +0.000 OA
ATOM      4  N   UNL     1       1.553   8.942  19.192  0.00  0.00    +0.000 N 
ATOM      5  C   UNL     1       0.915  10.096  18.545  0.00  0.00    +0.000 C 
ATOM      6  C   UNL     1      -0.512  10.332  19.079  0.00  0.00    +0.000 C 
ATOM      7  N   UNL     1      -0.525  10.397  20.546  0.00  0.00    +0.000 N 
ATOM      8  C   UNL     1      -1.075  11.379  21.348  0.00  0.00    +0.000 C 
ATOM      9  C   UNL     1      -1.737  12.584  20.728  0.00  0.00    +0.000 C 
ATOM     10  O   UNL     1      -1.035  11.311  22.580  0.00  0.00    +0.000 OA
ATOM     11  C   UNL     1       0.084   9.226  21.188  0.00  0.00    +0.000 C 
ATOM     12  C   UNL     1       1.506   8.985  20.665  0.00  0.00    +0.000 C 
ENDBRANCH   1   2
BRANCH   1  13
ATOM     13  N   UNL     1       1.824   5.951  19.379  0.00  0.00    +0.000 N 
ATOM     14  C   UNL     1       1.659   5.318  20.571  0.00  0.00    +0.000 C 
ATOM     15  O   UNL     1       2.397   5.446  21.538  0.00  0.00    +0.000 OA
ATOM     16  H   UNL     1       1.104   5.806  18.686  0.00  0.00    +0.000 HD
BRANCH  14  17
ATOM     17  O   UNL     1       0.616   4.457  20.488  0.00  0.00    +0.000 OA
BRANCH  17  18
ATOM     18  C   UNL     1       0.955   3.077  20.682  0.00  0.00    +0.000 C 
BRANCH  18  19
ATOM     19  C   UNL     1       1.992   2.589  19.701  0.00  0.00    +0.000 A 
ATOM     20  C   UNL     1       1.703   2.506  18.331  0.00  0.00    +0.000 A 
ATOM     21  C   UNL     1       2.687   2.116  17.420  0.00  0.00    +0.000 A 
ATOM     22  C   UNL     1       3.968   1.799  17.869  0.00  0.00    +0.000 A 
ATOM     23  C   UNL     1       4.264   1.867  19.229  0.00  0.00    +0.000 A 
ATOM     24  C   UNL     1       3.280   2.255  20.142  0.00  0.00    +0.000 A 
ENDBRANCH  18  19
ENDBRANCH  17  18
ENDBRANCH  14  17
ENDBRANCH   1  13
BRANCH   1  25
ATOM     25  C   UNL     1       3.932   6.087  18.145  0.00  0.00    +0.000 C 
BRANCH  25  26
ATOM     26  C   UNL     1       5.045   5.345  18.896  0.00  0.00    +0.000 C 
BRANCH  26  27
ATOM     27  C   UNL     1       6.426   5.922  18.563  0.00  0.00    +0.000 C 
BRANCH  27  28
ATOM     28  C   UNL     1       7.377   4.843  18.043  0.00  0.00    +0.000 C 
BRANCH  28  31
ATOM     29  C   UNL     1       6.962   4.639  15.623  0.00  0.00    +0.000 C 
ATOM     30  O   UNL     1       7.553   5.678  15.343  0.00  0.00    +0.000 OA
ATOM     31  N   UNL     1       6.829   4.144  16.896  0.00  0.00    +0.000 N 
ATOM     32  H   UNL     1       6.361   3.262  17.049  0.00  0.00    +0.000 HD
BRANCH  29  34
ATOM     33  C   UNL     1       5.341   4.294  13.814  0.00  0.00    +0.000 C 
ATOM     34  C   UNL     1       6.309   3.790  14.593  0.00  0.00    +0.000 C 
ENDBRANCH  29  34
ENDBRANCH  28  31
ENDBRANCH  27  28
ENDBRANCH  26  27
ENDBRANCH  25  26
ENDBRANCH   1  25
TORSDOF 11
ENDMDL
MODEL 3
REMARK VINA RESULT:      -7.3      0.846      1.289
REMARK  Name = 
REMARK  12 active torsions:
REMARK  status: ('A' for Active; 'I' for Inactive)
REMARK    1  A    between atoms: C_2  and  C_3
REMARK    2  A    between atoms: N_5  and  C_6
REMARK    3  A    between atoms: C_6  and  C_7
REMARK    4  A    between atoms: C_7  and  C_8
REMARK    5  A    between atoms: C_8  and  C_9
REMARK    6  A    between atoms: C_9  and  C_10
REMARK    7  A    between atoms: C_10  and  N_11
REMARK    8  A    between atoms: C_10  and  C_22
REMARK    9  A    between atoms: C_12  and  O_14
REMARK   10  A    between atoms: O_14  and  C_15
REMARK   11  A    between atoms: C_15  and  C_16
REMARK   12  A    between atoms: C_28  and  C_29
REMARK                            x       y       z     vdW  Elec       q    Type
REMARK                         _______ _______ _______ _____ _____    ______ ____
ROOT
ATOM      1  C   UNL     1       2.955   6.939  18.936  0.00  0.00    +0.000 C 
ENDROOT
BRANCH   1   2
ATOM      2  C   UNL     1       2.281   8.260  18.480  0.00  0.00    +0.000 C 
ATOM      3  O   UNL     1       2.333   8.596  17.292  0.00  0.00    +0.000 OA
ATOM      4  N   UNL     1       1.498   8.967  19.391  0.00  0.00    +0.000 N 
ATOM      5  C   UNL     1       0.750  10.142  18.923  0.00  0.00    +0.000 C 
ATOM      6  C   UNL     1      -0.616  10.265  19.624  0.00  0.00    +0.000 C 
ATOM      7  N   UNL     1      -0.470  10.203  21.085  0.00  0.00    +0.000 N 
ATOM      8  C   UNL     1      -0.963  11.086  22.026  0.00  0.00    +0.000 C 
ATOM      9  C   UNL     1      -1.733  12.308  21.592  0.00  0.00    +0.000 C 
ATOM     10  O   UNL     1      -0.785  10.914  23.235  0.00  0.00    +0.000 OA
ATOM     11  C   UNL     1       0.248   9.010  21.549  0.00  0.00    +0.000 C 
ATOM     12  C   UNL     1       1.612   8.881  20.858  0.00  0.00    +0.000 C 
ENDBRANCH   1   2
BRANCH   1  13
ATOM     13  N   UNL     1       1.897   5.961  19.198  0.00  0.00    +0.000 N 
ATOM     14  C   UNL     1       1.662   5.416  20.422  0.00  0.00    +0.000 C 
ATOM     15  O   UNL     1       2.262   5.713  21.446  0.00  0.00    +0.000 OA
ATOM     16  H   UNL     1       1.285   5.672  18.449  0.00  0.00    +0.000 HD
BRANCH  14  17
ATOM     17  O   UNL     1       0.736   4.434  20.312  0.00  0.00    +0.000 OA
BRANCH  17  18
ATOM     18  C   UNL     1       1.096   3.191  20.933  0.00  0.00    +0.000 C 
BRANCH  18  19
ATOM     19  C   UNL     1       2.239   2.501  20.232  0.00  0.00    +0.000 A 
ATOM     20  C   UNL     1       2.083   1.988  18.936  0.00  0.00    +0.000 A 
ATOM     21  C   UNL     1       3.164   1.408  18.266  0.00  0.00    +0.000 A 
ATOM     22  C   UNL     1       4.408   1.328  18.889  0.00  0.00    +0.000 A 
ATOM     23  C   UNL     1       4.572   1.823  20.181  0.00  0.00    +0.000 A 
ATOM     24  C   UNL     1       3.492   2.402  20.852  0.00  0.00    +0.000 A 
ENDBRANCH  18  19
ENDBRANCH  17  18
ENDBRANCH  14  17
ENDBRANCH   1  13
BRANCH   1  25
ATOM     25  C   UNL     1       3.913   6.368  17.872  0.00  0.00    +0.000 C 
BRANCH  25  26
ATOM     26  C   UNL     1       3.633   4.898  17.530  0.00  0.00    +0.000 C 
BRANCH  26  27
ATOM     27  C   UNL     1       4.849   4.235  16.873  0.00  0.00    +0.000 C 
BRANCH  27  28
ATOM     28  C   UNL     1       5.456   5.122  15.785  0.00  0.00    +0.000 C 
BRANCH  28  31
ATOM     29  C   UNL     1       6.808   4.619  13.787  0.00  0.00    +0.000 C 
ATOM     30  O   UNL     1       7.683   5.434  14.064  0.00  0.00    +0.000 OA
ATOM     31  N   UNL     1       5.696   4.386  14.558  0.00  0.00    +0.000 N 
ATOM     32  H   UNL     1       5.035   3.672  14.289  0.00  0.00    +0.000 HD
BRANCH  29  34
ATOM     33  C   UNL     1       5.735   3.232  12.073  0.00  0.00    +0.000 C 
ATOM     34  C   UNL     1       6.856   3.782  12.561  0.00  0.00    +0.000 C 
ENDBRANCH  29  34
ENDBRANCH  28  31
ENDBRANCH  27  28
ENDBRANCH  26  27
ENDBRANCH  25  26
ENDBRANCH   1  25
TORSDOF 11
ENDMDL
MODEL 4
REMARK VINA RESULT:      -7.2      4.200      7.754
REMARK  Name = 
REMARK  12 active torsions:
REMARK  status: ('A' for Active; 'I' for Inactive)
REMARK    1  A    between atoms: C_2  and  C_3
REMARK    2  A    between atoms: N_5  and  C_6
REMARK    3  A    between atoms: C_6  and  C_7
REMARK    4  A    between atoms: C_7  and  C_8
REMARK    5  A    between atoms: C_8  and  C_9
REMARK    6  A    between atoms: C_9  and  C_10
REMARK    7  A    between atoms: C_10  and  N_11
REMARK    8  A    between atoms: C_10  and  C_22
REMARK    9  A    between atoms: C_12  and  O_14
REMARK   10  A    between atoms: O_14  and  C_15
REMARK   11  A    between atoms: C_15  and  C_16
REMARK   12  A    between atoms: C_28  and  C_29
REMARK                            x       y       z     vdW  Elec       q    Type
REMARK                         _______ _______ _______ _____ _____    ______ ____
ROOT
ATOM      1  C   UNL     1       6.664   6.747  17.318  0.00  0.00    +0.000 C 
ENDROOT
BRANCH   1   2
ATOM      2  C   UNL     1       5.114   6.698  17.375  0.00  0.00    +0.000 C 
ATOM      3  O   UNL     1       4.450   7.381  16.587  0.00  0.00    +0.000 OA
ATOM      4  N   UNL     1       4.499   5.769  18.212  0.00  0.00    +0.000 N 
ATOM      5  C   UNL     1       3.037   5.629  18.165  0.00  0.00    +0.000 C 
ATOM      6  C   UNL     1       2.597   4.166  18.364  0.00  0.00    +0.000 C 
ATOM      7  N   UNL     1       3.206   3.588  19.570  0.00  0.00    +0.000 N 
ATOM      8  C   UNL     1       2.575   2.933  20.610  0.00  0.00    +0.000 C 
ATOM      9  C   UNL     1       1.076   2.769  20.605  0.00  0.00    +0.000 C 
ATOM     10  O   UNL     1       3.204   2.475  21.567  0.00  0.00    +0.000 OA
ATOM     11  C   UNL     1       4.669   3.701  19.595  0.00  0.00    +0.000 C 
ATOM     12  C   UNL     1       5.116   5.156  19.402  0.00  0.00    +0.000 C 
ENDBRANCH   1   2
BRANCH   1  13
ATOM     13  N   UNL     1       7.084   6.229  16.014  0.00  0.00    +0.000 N 
ATOM     14  C   UNL     1       7.166   4.903  15.722  0.00  0.00    +0.000 C 
ATOM     15  O   UNL     1       6.854   3.999  16.485  0.00  0.00    +0.000 OA
ATOM     16  H   UNL     1       7.312   6.872  15.270  0.00  0.00    +0.000 HD
BRANCH  14  17
ATOM     17  O   UNL     1       7.734   4.742  14.503  0.00  0.00    +0.000 OA
BRANCH  17  18
ATOM     18  C   UNL     1       6.880   5.049  13.392  0.00  0.00    +0.000 C 
BRANCH  18  19
ATOM     19  C   UNL     1       6.516   3.830  12.583  0.00  0.00    +0.000 A 
ATOM     20  C   UNL     1       5.175   3.500  12.343  0.00  0.00    +0.000 A 
ATOM     21  C   UNL     1       4.845   2.407  11.538  0.00  0.00    +0.000 A 
ATOM     22  C   UNL     1       5.853   1.628  10.972  0.00  0.00    +0.000 A 
ATOM     23  C   UNL     1       7.190   1.939  11.212  0.00  0.00    +0.000 A 
ATOM     24  C   UNL     1       7.521   3.032  12.019  0.00  0.00    +0.000 A 
ENDBRANCH  18  19
ENDBRANCH  17  18
ENDBRANCH  14  17
ENDBRANCH   1  13
BRANCH   1  25
ATOM     25  C   UNL     1       7.215   8.176  17.490  0.00  0.00    +0.000 C 
BRANCH  25  26
ATOM     26  C   UNL     1       8.549   8.226  18.247  0.00  0.00    +0.000 C 
BRANCH  26  27
ATOM     27  C   UNL     1       8.699   9.534  19.032  0.00  0.00    +0.000 C 
BRANCH  27  28
ATOM     28  C   UNL     1       9.323  10.637  18.175  0.00  0.00    +0.000 C 
BRANCH  28  31
ATOM     29  C   UNL     1      11.016  12.000  19.336  0.00  0.00    +0.000 C 
ATOM     30  O   UNL     1      11.950  11.271  19.018  0.00  0.00    +0.000 OA
ATOM     31  N   UNL     1       9.710  11.786  18.971  0.00  0.00    +0.000 N 
ATOM     32  H   UNL     1       8.996  12.450  19.236  0.00  0.00    +0.000 HD
BRANCH  29  34
ATOM     33  C   UNL     1      10.144  13.970  20.508  0.00  0.00    +0.000 C 
ATOM     34  C   UNL     1      11.199  13.216  20.170  0.00  0.00    +0.000 C 
ENDBRANCH  29  34
ENDBRANCH  28  31
ENDBRANCH  27  28
ENDBRANCH  26  27
ENDBRANCH  25  26
ENDBRANCH   1  25
TORSDOF 11
ENDMDL
MODEL 5
REMARK VINA RESULT:      -7.1      1.316      2.194
REMARK  Name = 
REMARK  12 active torsions:
REMARK  status: ('A' for Active; 'I' for Inactive)
REMARK    1  A    between atoms: C_2  and  C_3
REMARK    2  A    between atoms: N_5  and  C_6
REMARK    3  A    between atoms: C_6  and  C_7
REMARK    4  A    between atoms: C_7  and  C_8
REMARK    5  A    between atoms: C_8  and  C_9
REMARK    6  A    between atoms: C_9  and  C_10
REMARK    7  A    between atoms: C_10  and  N_11
REMARK    8  A    between atoms: C_10  and  C_22
REMARK    9  A    between atoms: C_12  and  O_14
REMARK   10  A    between atoms: O_14  and  C_15
REMARK   11  A    between atoms: C_15  and  C_16
REMARK   12  A    between atoms: C_28  and  C_29
REMARK                            x       y       z     vdW  Elec       q    Type
REMARK                         _______ _______ _______ _____ _____    ______ ____
ROOT
ATOM      1  C   UNL     1       2.763   7.161  18.791  0.00  0.00    +0.000 C 
ENDROOT
BRANCH   1   2
ATOM      2  C   UNL     1       2.057   8.492  18.420  0.00  0.00    +0.000 C 
ATOM      3  O   UNL     1       2.027   8.860  17.240  0.00  0.00    +0.000 OA
ATOM      4  N   UNL     1       1.339   9.171  19.401  0.00  0.00    +0.000 N 
ATOM      5  C   UNL     1       0.559  10.357  19.018  0.00  0.00    +0.000 C 
ATOM      6  C   UNL     1      -0.755  10.457  19.816  0.00  0.00    +0.000 C 
ATOM      7  N   UNL     1      -0.508  10.355  21.261  0.00  0.00    +0.000 N 
ATOM      8  C   UNL     1      -0.936  11.211  22.258  0.00  0.00    +0.000 C 
ATOM      9  C   UNL     1      -1.735  12.442  21.911  0.00  0.00    +0.000 C 
ATOM     10  O   UNL     1      -0.674  11.006  23.446  0.00  0.00    +0.000 OA
ATOM     11  C   UNL     1       0.241   9.152  21.641  0.00  0.00    +0.000 C 
ATOM     12  C   UNL     1       1.554   9.046  20.853  0.00  0.00    +0.000 C 
ENDBRANCH   1   2
BRANCH   1  13
ATOM     13  N   UNL     1       1.729   6.188  19.152  0.00  0.00    +0.000 N 
ATOM     14  C   UNL     1       1.648   5.592  20.372  0.00  0.00    +0.000 C 
ATOM     15  O   UNL     1       2.387   5.832  21.317  0.00  0.00    +0.000 OA
ATOM     16  H   UNL     1       1.014   5.944  18.481  0.00  0.00    +0.000 HD
BRANCH  14  17
ATOM     17  O   UNL     1       0.694   4.630  20.345  0.00  0.00    +0.000 OA
BRANCH  17  18
ATOM     18  C   UNL     1       1.097   3.364  20.887  0.00  0.00    +0.000 C 
BRANCH  18  19
ATOM     19  C   UNL     1       2.111   2.658  20.022  0.00  0.00    +0.000 A 
ATOM     20  C   UNL     1       1.764   2.186  18.748  0.00  0.00    +0.000 A 
ATOM     21  C   UNL     1       2.724   1.591  17.925  0.00  0.00    +0.000 A 
ATOM     22  C   UNL     1       4.038   1.455  18.372  0.00  0.00    +0.000 A 
ATOM     23  C   UNL     1       4.391   1.910  19.640  0.00  0.00    +0.000 A 
ATOM     24  C   UNL     1       3.432   2.504  20.465  0.00  0.00    +0.000 A 
ENDBRANCH  18  19
ENDBRANCH  17  18
ENDBRANCH  14  17
ENDBRANCH   1  13
BRANCH   1  25
ATOM     25  C   UNL     1       3.600   6.593  17.629  0.00  0.00    +0.000 C 
BRANCH  25  26
ATOM     26  C   UNL     1       3.592   5.059  17.567  0.00  0.00    +0.000 C 
BRANCH  26  27
ATOM     27  C   UNL     1       4.531   4.538  16.473  0.00  0.00    +0.000 C 
BRANCH  27  28
ATOM     28  C   UNL     1       5.668   5.522  16.190  0.00  0.00    +0.000 C 
BRANCH  28  31
ATOM     29  C   UNL     1       7.247   6.775  17.606  0.00  0.00    +0.000 C 
ATOM     30  O   UNL     1       7.086   7.833  17.005  0.00  0.00    +0.000 OA
ATOM     31  N   UNL     1       6.602   5.603  17.296  0.00  0.00    +0.000 N 
ATOM     32  H   UNL     1       6.754   4.778  17.859  0.00  0.00    +0.000 HD
BRANCH  29  34
ATOM     33  C   UNL     1       8.007   5.668  19.659  0.00  0.00    +0.000 C 
ATOM     34  C   UNL     1       8.180   6.643  18.755  0.00  0.00    +0.000 C 
ENDBRANCH  29  34
ENDBRANCH  28  31
ENDBRANCH  27  28
ENDBRANCH  26  27
ENDBRANCH  25  26
ENDBRANCH   1  25
TORSDOF 11
ENDMDL
MODEL 6
REMARK VINA RESULT:      -7.0      3.950      7.502
REMARK  Name = 
REMARK  12 active torsions:
REMARK  status: ('A' for Active; 'I' for Inactive)
REMARK    1  A    between atoms: C_2  and  C_3
REMARK    2  A    between atoms: N_5  and  C_6
REMARK    3  A    between atoms: C_6  and  C_7
REMARK    4  A    between atoms: C_7  and  C_8
REMARK    5  A    between atoms: C_8  and  C_9
REMARK    6  A    between atoms: C_9  and  C_10
REMARK    7  A    between atoms: C_10  and  N_11
REMARK    8  A    between atoms: C_10  and  C_22
REMARK    9  A    between atoms: C_12  and  O_14
REMARK   10  A    between atoms: O_14  and  C_15
REMARK   11  A    between atoms: C_15  and  C_16
REMARK   12  A    between atoms: C_28  and  C_29
REMARK                            x       y       z     vdW  Elec       q    Type
REMARK                         _______ _______ _______ _____ _____    ______ ____
ROOT
ATOM      1  C   UNL     1       5.652   6.642  16.594  0.00  0.00    +0.000 C 
ENDROOT
BRANCH   1   2
ATOM      2  C   UNL     1       4.428   6.810  17.533  0.00  0.00    +0.000 C 
ATOM      3  O   UNL     1       3.679   7.784  17.395  0.00  0.00    +0.000 OA
ATOM      4  N   UNL     1       4.109   5.780  18.416  0.00  0.00    +0.000 N 
ATOM      5  C   UNL     1       2.875   5.880  19.206  0.00  0.00    +0.000 C 
ATOM      6  C   UNL     1       2.205   4.504  19.394  0.00  0.00    +0.000 C 
ATOM      7  N   UNL     1       3.160   3.516  19.914  0.00  0.00    +0.000 N 
ATOM      8  C   UNL     1       3.014   2.688  21.011  0.00  0.00    +0.000 C 
ATOM      9  C   UNL     1       1.766   2.758  21.854  0.00  0.00    +0.000 C 
ATOM     10  O   UNL     1       3.889   1.882  21.339  0.00  0.00    +0.000 OA
ATOM     11  C   UNL     1       4.377   3.397  19.101  0.00  0.00    +0.000 C 
ATOM     12  C   UNL     1       5.052   4.762  18.912  0.00  0.00    +0.000 C 
ENDBRANCH   1   2
BRANCH   1  13
ATOM     13  N   UNL     1       6.770   7.390  17.173  0.00  0.00    +0.000 N 
ATOM     14  C   UNL     1       7.633   6.868  18.086  0.00  0.00    +0.000 C 
ATOM     15  O   UNL     1       7.611   5.712  18.487  0.00  0.00    +0.000 OA
ATOM     16  H   UNL     1       6.942   8.342  16.881  0.00  0.00    +0.000 HD
BRANCH  14  17
ATOM     17  O   UNL     1       8.450   7.844  18.548  0.00  0.00    +0.000 OA
BRANCH  17  18
ATOM     18  C   UNL     1       8.226   9.141  17.976  0.00  0.00    +0.000 C 
BRANCH  18  19
ATOM     19  C   UNL     1       9.123  10.199  18.566  0.00  0.00    +0.000 A 
ATOM     20  C   UNL     1       9.147  10.432  19.949  0.00  0.00    +0.000 A 
ATOM     21  C   UNL     1      10.028  11.368  20.497  0.00  0.00    +0.000 A 
ATOM     22  C   UNL     1      10.887  12.087  19.667  0.00  0.00    +0.000 A 
ATOM     23  C   UNL     1      10.864  11.872  18.291  0.00  0.00    +0.000 A 
ATOM     24  C   UNL     1       9.983  10.937  17.741  0.00  0.00    +0.000 A 
ENDBRANCH  18  19
ENDBRANCH  17  18
ENDBRANCH  14  17
ENDBRANCH   1  13
BRANCH   1  25
ATOM     25  C   UNL     1       6.069   5.168  16.427  0.00  0.00    +0.000 C 
BRANCH  25  26
ATOM     26  C   UNL     1       6.915   4.914  15.172  0.00  0.00    +0.000 C 
BRANCH  26  27
ATOM     27  C   UNL     1       6.270   3.859  14.267  0.00  0.00    +0.000 C 
BRANCH  27  28
ATOM     28  C   UNL     1       6.773   3.968  12.826  0.00  0.00    +0.000 C 
BRANCH  28  31
ATOM     29  C   UNL     1       5.582   2.275  11.489  0.00  0.00    +0.000 C 
ATOM     30  O   UNL     1       4.545   2.928  11.423  0.00  0.00    +0.000 OA
ATOM     31  N   UNL     1       6.719   2.694  12.136  0.00  0.00    +0.000 N 
ATOM     32  H   UNL     1       7.550   2.121  12.118  0.00  0.00    +0.000 HD
BRANCH  29  34
ATOM     33  C   UNL     1       6.314  -0.065  11.539  0.00  0.00    +0.000 C 
ATOM     34  C   UNL     1       5.723   0.933  10.867  0.00  0.00    +0.000 C 
ENDBRANCH  29  34
ENDBRANCH  28  31
ENDBRANCH  27  28
ENDBRANCH  26  27
ENDBRANCH  25  26
ENDBRANCH   1  25
TORSDOF 11
ENDMDL
MODEL 7
REMARK VINA RESULT:      -7.0      1.462      2.130
REMARK  Name = 
REMARK  12 active torsions:
REMARK  status: ('A' for Active; 'I' for Inactive)
REMARK    1  A    between atoms: C_2  and  C_3
REMARK    2  A    between atoms: N_5  and  C_6
REMARK    3  A    between atoms: C_6  and  C_7
REMARK    4  A    between atoms: C_7  and  C_8
REMARK    5  A    between atoms: C_8  and  C_9
REMARK    6  A    between atoms: C_9  and  C_10
REMARK    7  A    between atoms: C_10  and  N_11
REMARK    8  A    between atoms: C_10  and  C_22
REMARK    9  A    between atoms: C_12  and  O_14
REMARK   10  A    between atoms: O_14  and  C_15
REMARK   11  A    between atoms: C_15  and  C_16
REMARK   12  A    between atoms: C_28  and  C_29
REMARK                            x       y       z     vdW  Elec       q    Type
REMARK                         _______ _______ _______ _____ _____    ______ ____
ROOT
ATOM      1  C   UNL     1       2.687   6.859  18.744  0.00  0.00    +0.000 C 
ENDROOT
BRANCH   1   2
ATOM      2  C   UNL     1       2.107   8.266  18.443  0.00  0.00    +0.000 C 
ATOM      3  O   UNL     1       2.166   8.721  17.295  0.00  0.00    +0.000 OA
ATOM      4  N   UNL     1       1.393   8.928  19.440  0.00  0.00    +0.000 N 
ATOM      5  C   UNL     1       0.728  10.197  19.114  0.00  0.00    +0.000 C 
ATOM      6  C   UNL     1      -0.615  10.345  19.856  0.00  0.00    +0.000 C 
ATOM      7  N   UNL     1      -0.451  10.119  21.299  0.00  0.00    +0.000 N 
ATOM      8  C   UNL     1      -0.862  10.932  22.338  0.00  0.00    +0.000 C 
ATOM      9  C   UNL     1      -1.545  12.245  22.050  0.00  0.00    +0.000 C 
ATOM     10  O   UNL     1      -0.679  10.621  23.518  0.00  0.00    +0.000 OA
ATOM     11  C   UNL     1       0.183   8.835  21.619  0.00  0.00    +0.000 C 
ATOM     12  C   UNL     1       1.523   8.680  20.887  0.00  0.00    +0.000 C 
ENDBRANCH   1   2
BRANCH   1  13
ATOM     13  N   UNL     1       1.602   6.027  19.269  0.00  0.00    +0.000 N 
ATOM     14  C   UNL     1       1.659   5.381  20.465  0.00  0.00    +0.000 C 
ATOM     15  O   UNL     1       2.588   5.460  21.257  0.00  0.00    +0.000 OA
ATOM     16  H   UNL     1       0.748   5.925  18.740  0.00  0.00    +0.000 HD
BRANCH  14  17
ATOM     17  O   UNL     1       0.583   4.570  20.594  0.00  0.00    +0.000 OA
BRANCH  17  18
ATOM     18  C   UNL     1       0.892   3.180  20.776  0.00  0.00    +0.000 C 
BRANCH  18  19
ATOM     19  C   UNL     1       1.921   2.680  19.795  0.00  0.00    +0.000 A 
ATOM     20  C   UNL     1       3.218   2.352  20.217  0.00  0.00    +0.000 A 
ATOM     21  C   UNL     1       4.147   1.827  19.315  0.00  0.00    +0.000 A 
ATOM     22  C   UNL     1       3.792   1.632  17.981  0.00  0.00    +0.000 A 
ATOM     23  C   UNL     1       2.511   1.965  17.548  0.00  0.00    +0.000 A 
ATOM     24  C   UNL     1       1.580   2.492  18.448  0.00  0.00    +0.000 A 
ENDBRANCH  18  19
ENDBRANCH  17  18
ENDBRANCH  14  17
ENDBRANCH   1  13
BRANCH   1  25
ATOM     25  C   UNL     1       3.275   6.183  17.490  0.00  0.00    +0.000 C 
BRANCH  25  26
ATOM     26  C   UNL     1       4.809   6.157  17.476  0.00  0.00    +0.000 C 
BRANCH  26  27
ATOM     27  C   UNL     1       5.342   4.773  17.090  0.00  0.00    +0.000 C 
BRANCH  27  28
ATOM     28  C   UNL     1       6.866   4.706  17.195  0.00  0.00    +0.000 C 
BRANCH  28  31
ATOM     29  C   UNL     1       7.938   6.351  18.684  0.00  0.00    +0.000 C 
ATOM     30  O   UNL     1       7.942   5.601  19.656  0.00  0.00    +0.000 OA
ATOM     31  N   UNL     1       7.449   6.010  17.447  0.00  0.00    +0.000 N 
ATOM     32  H   UNL     1       7.513   6.664  16.681  0.00  0.00    +0.000 HD
BRANCH  29  34
ATOM     33  C   UNL     1       8.074   8.651  17.844  0.00  0.00    +0.000 C 
ATOM     34  C   UNL     1       8.468   7.737  18.742  0.00  0.00    +0.000 C 
ENDBRANCH  29  34
ENDBRANCH  28  31
ENDBRANCH  27  28
ENDBRANCH  26  27
ENDBRANCH  25  26
ENDBRANCH   1  25
TORSDOF 11
ENDMDL
MODEL 8
REMARK VINA RESULT:      -7.0      3.993      7.509
REMARK  Name = 
REMARK  12 active torsions:
REMARK  status: ('A' for Active; 'I' for Inactive)
REMARK    1  A    between atoms: C_2  and  C_3
REMARK    2  A    between atoms: N_5  and  C_6
REMARK    3  A    between atoms: C_6  and  C_7
REMARK    4  A    between atoms: C_7  and  C_8
REMARK    5  A    between atoms: C_8  and  C_9
REMARK    6  A    between atoms: C_9  and  C_10
REMARK    7  A    between atoms: C_10  and  N_11
REMARK    8  A    between atoms: C_10  and  C_22
REMARK    9  A    between atoms: C_12  and  O_14
REMARK   10  A    between atoms: O_14  and  C_15
REMARK   11  A    between atoms: C_15  and  C_16
REMARK   12  A    between atoms: C_28  and  C_29
REMARK                            x       y       z     vdW  Elec       q    Type
REMARK                         _______ _______ _______ _____ _____    ______ ____
ROOT
ATOM      1  C   UNL     1       5.622   6.654  16.685  0.00  0.00    +0.000 C 
ENDROOT
BRANCH   1   2
ATOM      2  C   UNL     1       4.295   6.813  17.473  0.00  0.00    +0.000 C 
ATOM      3  O   UNL     1       3.519   7.731  17.186  0.00  0.00    +0.000 OA
ATOM      4  N   UNL     1       3.932   5.828  18.388  0.00  0.00    +0.000 N 
ATOM      5  C   UNL     1       2.614   5.909  19.033  0.00  0.00    +0.000 C 
ATOM      6  C   UNL     1       1.998   4.513  19.248  0.00  0.00    +0.000 C 
ATOM      7  N   UNL     1       2.937   3.617  19.937  0.00  0.00    +0.000 N 
ATOM      8  C   UNL     1       2.712   2.857  21.068  0.00  0.00    +0.000 C 
ATOM      9  C   UNL     1       1.376   2.911  21.765  0.00  0.00    +0.000 C 
ATOM     10  O   UNL     1       3.584   2.126  21.545  0.00  0.00    +0.000 OA
ATOM     11  C   UNL     1       4.241   3.515  19.269  0.00  0.00    +0.000 C 
ATOM     12  C   UNL     1       4.864   4.900  19.054  0.00  0.00    +0.000 C 
ENDBRANCH   1   2
BRANCH   1  13
ATOM     13  N   UNL     1       6.632   7.498  17.326  0.00  0.00    +0.000 N 
ATOM     14  C   UNL     1       7.714   7.007  17.988  0.00  0.00    +0.000 C 
ATOM     15  O   UNL     1       7.998   5.821  18.080  0.00  0.00    +0.000 OA
ATOM     16  H   UNL     1       6.552   8.504  17.273  0.00  0.00    +0.000 HD
BRANCH  14  17
ATOM     17  O   UNL     1       8.368   8.021  18.605  0.00  0.00    +0.000 OA
BRANCH  17  18
ATOM     18  C   UNL     1       8.313   9.281  17.920  0.00  0.00    +0.000 C 
BRANCH  18  19
ATOM     19  C   UNL     1       9.176  10.333  18.568  0.00  0.00    +0.000 A 
ATOM     20  C   UNL     1       9.845  11.292  17.794  0.00  0.00    +0.000 A 
ATOM     21  C   UNL     1      10.590  12.305  18.404  0.00  0.00    +0.000 A 
ATOM     22  C   UNL     1      10.680  12.363  19.794  0.00  0.00    +0.000 A 
ATOM     23  C   UNL     1      10.030  11.409  20.573  0.00  0.00    +0.000 A 
ATOM     24  C   UNL     1       9.285  10.395  19.965  0.00  0.00    +0.000 A 
ENDBRANCH  18  19
ENDBRANCH  17  18
ENDBRANCH  14  17
ENDBRANCH   1  13
BRANCH   1  25
ATOM     25  C   UNL     1       6.126   5.197  16.667  0.00  0.00    +0.000 C 
BRANCH  25  26
ATOM     26  C   UNL     1       5.741   4.436  15.392  0.00  0.00    +0.000 C 
BRANCH  26  27
ATOM     27  C   UNL     1       6.790   4.624  14.290  0.00  0.00    +0.000 C 
BRANCH  27  28
ATOM     28  C   UNL     1       6.547   3.680  13.112  0.00  0.00    +0.000 C 
BRANCH  28  31
ATOM     29  C   UNL     1       4.749   3.133  11.518  0.00  0.00    +0.000 C 
ATOM     30  O   UNL     1       5.170   2.002  11.294  0.00  0.00    +0.000 OA
ATOM     31  N   UNL     1       5.337   4.018  12.387  0.00  0.00    +0.000 N 
ATOM     32  H   UNL     1       4.914   4.920  12.553  0.00  0.00    +0.000 HD
BRANCH  29  34
ATOM     33  C   UNL     1       2.908   2.975   9.905  0.00  0.00    +0.000 C 
ATOM     34  C   UNL     1       3.535   3.679  10.858  0.00  0.00    +0.000 C 
ENDBRANCH  29  34
ENDBRANCH  28  31
ENDBRANCH  27  28
ENDBRANCH  26  27
ENDBRANCH  25  26
ENDBRANCH   1  25
TORSDOF 11
ENDMDL
MODEL 9
REMARK VINA RESULT:      -6.8      1.846      4.890
REMARK  Name = 
REMARK  12 active torsions:
REMARK  status: ('A' for Active; 'I' for Inactive)
REMARK    1  A    between atoms: C_2  and  C_3
REMARK    2  A    between atoms: N_5  and  C_6
REMARK    3  A    between atoms: C_6  and  C_7
REMARK    4  A    between atoms: C_7  and  C_8
REMARK    5  A    between atoms: C_8  and  C_9
REMARK    6  A    between atoms: C_9  and  C_10
REMARK    7  A    between atoms: C_10  and  N_11
REMARK    8  A    between atoms: C_10  and  C_22
REMARK    9  A    between atoms: C_12  and  O_14
REMARK   10  A    between atoms: O_14  and  C_15
REMARK   11  A    between atoms: C_15  and  C_16
REMARK   12  A    between atoms: C_28  and  C_29
REMARK                            x       y       z     vdW  Elec       q    Type
REMARK                         _______ _______ _______ _____ _____    ______ ____
ROOT
ATOM      1  C   UNL     1       3.084   6.510  18.567  0.00  0.00    +0.000 C 
ENDROOT
BRANCH   1   2
ATOM      2  C   UNL     1       2.313   6.659  19.906  0.00  0.00    +0.000 C 
ATOM      3  O   UNL     1       2.399   5.774  20.764  0.00  0.00    +0.000 OA
ATOM      4  N   UNL     1       1.661   7.860  20.179  0.00  0.00    +0.000 N 
ATOM      5  C   UNL     1       1.048   8.051  21.500  0.00  0.00    +0.000 C 
ATOM      6  C   UNL     1       1.180   9.508  21.984  0.00  0.00    +0.000 C 
ATOM      7  N   UNL     1       0.694  10.451  20.967  0.00  0.00    +0.000 N 
ATOM      8  C   UNL     1      -0.224  11.472  21.124  0.00  0.00    +0.000 C 
ATOM      9  C   UNL     1      -0.881  11.703  22.462  0.00  0.00    +0.000 C 
ATOM     10  O   UNL     1      -0.540  12.212  20.189  0.00  0.00    +0.000 OA
ATOM     11  C   UNL     1       1.334  10.277  19.658  0.00  0.00    +0.000 C 
ATOM     12  C   UNL     1       1.205   8.829  19.166  0.00  0.00    +0.000 C 
ENDBRANCH   1   2
BRANCH   1  13
ATOM     13  N   UNL     1       4.287   5.716  18.826  0.00  0.00    +0.000 N 
ATOM     14  C   UNL     1       5.501   5.988  18.276  0.00  0.00    +0.000 C 
ATOM     15  O   UNL     1       5.741   6.944  17.552  0.00  0.00    +0.000 OA
ATOM     16  H   UNL     1       4.242   4.929  19.457  0.00  0.00    +0.000 HD
BRANCH  14  17
ATOM     17  O   UNL     1       6.367   4.990  18.572  0.00  0.00    +0.000 OA
BRANCH  17  18
ATOM     18  C   UNL     1       7.450   4.834  17.643  0.00  0.00    +0.000 C 
BRANCH  18  19
ATOM     19  C   UNL     1       6.977   4.520  16.246  0.00  0.00    +0.000 A 
ATOM     20  C   UNL     1       5.858   3.702  16.034  0.00  0.00    +0.000 A 
ATOM     21  C   UNL     1       5.385   3.468  14.740  0.00  0.00    +0.000 A 
ATOM     22  C   UNL     1       6.030   4.043  13.646  0.00  0.00    +0.000 A 
ATOM     23  C   UNL     1       7.150   4.848  13.845  0.00  0.00    +0.000 A 
ATOM     24  C   UNL     1       7.625   5.082  15.138  0.00  0.00    +0.000 A 
ENDBRANCH  18  19
ENDBRANCH  17  18
ENDBRANCH  14  17
ENDBRANCH   1  13
BRANCH   1  25
ATOM     25  C   UNL     1       2.246   5.809  17.480  0.00  0.00    +0.000 C 
BRANCH  25  26
ATOM     26  C   UNL     1       1.752   4.417  17.896  0.00  0.00    +0.000 C 
BRANCH  26  27
ATOM     27  C   UNL     1       2.347   3.322  17.004  0.00  0.00    +0.000 C 
BRANCH  27  28
ATOM     28  C   UNL     1       3.047   2.241  17.830  0.00  0.00    +0.000 C 
BRANCH  28  31
ATOM     29  C   UNL     1       3.455   2.477  20.248  0.00  0.00    +0.000 C 
ATOM     30  O   UNL     1       4.648   2.731  20.112  0.00  0.00    +0.000 OA
ATOM     31  N   UNL     1       2.593   2.234  19.207  0.00  0.00    +0.000 N 
ATOM     32  H   UNL     1       1.614   2.069  19.390  0.00  0.00    +0.000 HD
BRANCH  29  34
ATOM     33  C   UNL     1       1.490   2.647  21.706  0.00  0.00    +0.000 C 
ATOM     34  C   UNL     1       2.802   2.399  21.580  0.00  0.00    +0.000 C 
ENDBRANCH  29  34
ENDBRANCH  28  31
ENDBRANCH  27  28
ENDBRANCH  26  27
ENDBRANCH  25  26
ENDBRANCH   1  25
TORSDOF 11
ENDMDL
