MODEL 1
REMARK VINA RESULT:      -6.9      0.000      0.000
REMARK  Name = 
REMARK  11 active torsions:
REMARK  status: ('A' for Active; 'I' for Inactive)
REMARK    1  A    between atoms: C_1  and  N_2
REMARK    2  A    between atoms: N_2  and  C_3
REMARK    3  A    between atoms: C_4  and  O_6
REMARK    4  A    between atoms: O_6  and  N_7
REMARK    5  A    between atoms: C_8  and  C_10
REMARK    6  A    between atoms: C_10  and  O_11
REMARK    7  A    between atoms: O_11  and  C_12
REMARK    8  A    between atoms: C_15  and  C_16
REMARK    9  A    between atoms: C_16  and  C_17
REMARK   10  A    between atoms: C_16  and  C_18
REMARK   11  A    between atoms: C_16  and  C_19
REMARK                            x       y       z     vdW  Elec       q    Type
REMARK                         _______ _______ _______ _____ _____    ______ ____
ROOT
ATOM      1  C   UNL     1       7.107   5.972  18.561  0.00  0.00    +0.000 C 
ENDROOT
BRANCH   1   3
ATOM      2  N   UNL     1       7.579   5.137  16.337  0.00  0.00    +0.000 NA
ATOM      3  C   UNL     1       7.029   6.089  17.027  0.00  0.00    +0.000 C 
ATOM      4  N   UNL     1       6.404   7.196  16.494  0.00  0.00    +0.000 N 
ATOM      5  H   UNL     1       6.084   7.062  15.542  0.00  0.00    +0.000 HD
ATOM      6  H   UNL     1       5.715   7.621  17.109  0.00  0.00    +0.000 HD
BRANCH   2   7
ATOM      7  O   UNL     1       7.465   5.356  14.944  0.00  0.00    +0.000 OA
BRANCH   7  11
ATOM      8  C   UNL     1       6.107   3.293  12.246  0.00  0.00    +0.000 C 
ATOM      9  N   UNL     1       6.846   4.311  12.973  0.00  0.00    +0.000 N 
ATOM     10  C   UNL     1       7.685   5.234  12.246  0.00  0.00    +0.000 C 
ATOM     11  C   UNL     1       6.722   4.346  14.363  0.00  0.00    +0.000 C 
ATOM     12  O   UNL     1       6.007   3.553  14.975  0.00  0.00    +0.000 OA
ENDBRANCH   7  11
ENDBRANCH   2   7
ENDBRANCH   1   3
BRANCH   1  13
ATOM     13  O   UNL     1       6.927   4.615  18.963  0.00  0.00    +0.000 OA
BRANCH  13  14
ATOM     14  C   UNL     1       5.649   4.259  19.302  0.00  0.00    +0.000 A 
ATOM     15  C   UNL     1       4.755   5.316  19.432  0.00  0.00    +0.000 A 
ATOM     16  C   UNL     1       3.411   5.082  19.757  0.00  0.00    +0.000 A 
ATOM     17  C   UNL     1       2.906   3.783  19.939  0.00  0.00    +0.000 A 
ATOM     18  C   UNL     1       3.824   2.727  19.797  0.00  0.00    +0.000 A 
ATOM     19  C   UNL     1       5.177   2.960  19.480  0.00  0.00    +0.000 A 
BRANCH  17  20
ATOM     20  C   UNL     1       1.415   3.519  20.232  0.00  0.00    +0.000 C 
ATOM     21  C   UNL     1       0.723   2.729  19.095  0.00  0.00    +0.000 C 
ATOM     22  C   UNL     1       1.271   2.695  21.531  0.00  0.00    +0.000 C 
ATOM     23  C   UNL     1       0.623   4.834  20.412  0.00  0.00    +0.000 C 
ENDBRANCH  17  20
ENDBRANCH  13  14
ENDBRANCH   1  13
TORSDOF 6
ENDMDL
MODEL 2
REMARK VINA RESULT:      -6.9      1.372      1.669
REMARK  Name = 
REMARK  11 active torsions:
REMARK  status: ('A' for Active; 'I' for Inactive)
REMARK    1  A    between atoms: C_1  and  N_2
REMARK    2  A    between atoms: N_2  and  C_3
REMARK    3  A    between atoms: C_4  and  O_6
REMARK    4  A    between atoms: O_6  and  N_7
REMARK    5  A    between atoms: C_8  and  C_10
REMARK    6  A    between atoms: C_10  and  O_11
REMARK    7  A    between atoms: O_11  and  C_12
REMARK    8  A    between atoms: C_15  and  C_16
REMARK    9  A    between atoms: C_16  and  C_17
REMARK   10  A    between atoms: C_16  and  C_18
REMARK   11  A    between atoms: C_16  and  C_19
REMARK                            x       y       z     vdW  Elec       q    Type
REMARK                         _______ _______ _______ _____ _____    ______ ____
ROOT
ATOM      1  C   UNL     1       6.680   6.927  17.666  0.00  0.00    +0.000 C 
ENDROOT
BRANCH   1   3
ATOM      2  N   UNL     1       7.096   5.879  15.522  0.00  0.00    +0.000 NA
ATOM      3  C   UNL     1       7.229   5.771  16.809  0.00  0.00    +0.000 C 
ATOM      4  N   UNL     1       7.801   4.699  17.460  0.00  0.00    +0.000 N 
ATOM      5  H   UNL     1       8.429   4.158  16.877  0.00  0.00    +0.000 HD
ATOM      6  H   UNL     1       8.175   4.921  18.379  0.00  0.00    +0.000 HD
BRANCH   2   7
ATOM      7  O   UNL     1       7.617   4.757  14.837  0.00  0.00    +0.000 OA
BRANCH   7  11
ATOM      8  C   UNL     1       5.511   3.205  12.280  0.00  0.00    +0.000 C 
ATOM      9  N   UNL     1       6.555   3.977  12.934  0.00  0.00    +0.000 N 
ATOM     10  C   UNL     1       7.522   4.687  12.130  0.00  0.00    +0.000 C 
ATOM     11  C   UNL     1       6.587   3.989  14.329  0.00  0.00    +0.000 C 
ATOM     12  O   UNL     1       5.760   3.378  15.006  0.00  0.00    +0.000 OA
ENDBRANCH   7  11
ENDBRANCH   2   7
ENDBRANCH   1   3
BRANCH   1  13
ATOM     13  O   UNL     1       5.279   7.082  17.447  0.00  0.00    +0.000 OA
BRANCH  13  14
ATOM     14  C   UNL     1       4.484   6.084  17.943  0.00  0.00    +0.000 A 
ATOM     15  C   UNL     1       4.515   5.935  19.325  0.00  0.00    +0.000 A 
ATOM     16  C   UNL     1       3.729   4.961  19.959  0.00  0.00    +0.000 A 
ATOM     17  C   UNL     1       2.867   4.119  19.237  0.00  0.00    +0.000 A 
ATOM     18  C   UNL     1       2.845   4.288  17.841  0.00  0.00    +0.000 A 
ATOM     19  C   UNL     1       3.640   5.260  17.201  0.00  0.00    +0.000 A 
BRANCH  17  20
ATOM     20  C   UNL     1       1.953   3.091  19.937  0.00  0.00    +0.000 C 
ATOM     21  C   UNL     1       1.661   1.860  19.046  0.00  0.00    +0.000 C 
ATOM     22  C   UNL     1       2.626   2.584  21.232  0.00  0.00    +0.000 C 
ATOM     23  C   UNL     1       0.587   3.704  20.319  0.00  0.00    +0.000 C 
ENDBRANCH  17  20
ENDBRANCH  13  14
ENDBRANCH   1  13
TORSDOF 6
ENDMDL
MODEL 3
REMARK VINA RESULT:      -6.8      1.362      1.821
REMARK  Name = 
REMARK  11 active torsions:
REMARK  status: ('A' for Active; 'I' for Inactive)
REMARK    1  A    between atoms: C_1  and  N_2
REMARK    2  A    between atoms: N_2  and  C_3
REMARK    3  A    between atoms: C_4  and  O_6
REMARK    4  A    between atoms: O_6  and  N_7
REMARK    5  A    between atoms: C_8  and  C_10
REMARK    6  A    between atoms: C_10  and  O_11
REMARK    7  A    between atoms: O_11  and  C_12
REMARK    8  A    between atoms: C_15  and  C_16
REMARK    9  A    between atoms: C_16  and  C_17
REMARK   10  A    between atoms: C_16  and  C_18
REMARK   11  A    between atoms: C_16  and  C_19
REMARK                            x       y       z     vdW  Elec       q    Type
REMARK                         _______ _______ _______ _____ _____    ______ ____
ROOT
ATOM      1  C   UNL     1       6.707   6.859  17.664  0.00  0.00    +0.000 C 
ENDROOT
BRANCH   1   3
ATOM      2  N   UNL     1       7.115   5.856  15.498  0.00  0.00    +0.000 NA
ATOM      3  C   UNL     1       7.230   5.710  16.782  0.00  0.00    +0.000 C 
ATOM      4  N   UNL     1       7.760   4.603  17.410  0.00  0.00    +0.000 N 
ATOM      5  H   UNL     1       8.378   4.058  16.820  0.00  0.00    +0.000 HD
ATOM      6  H   UNL     1       8.130   4.789  18.339  0.00  0.00    +0.000 HD
BRANCH   2   7
ATOM      7  O   UNL     1       7.608   4.736  14.789  0.00  0.00    +0.000 OA
BRANCH   7  11
ATOM      8  C   UNL     1       5.426   3.228  12.270  0.00  0.00    +0.000 C 
ATOM      9  N   UNL     1       6.493   3.984  12.905  0.00  0.00    +0.000 N 
ATOM     10  C   UNL     1       7.446   4.693  12.084  0.00  0.00    +0.000 C 
ATOM     11  C   UNL     1       6.559   3.982  14.299  0.00  0.00    +0.000 C 
ATOM     12  O   UNL     1       5.744   3.372  14.991  0.00  0.00    +0.000 OA
ENDBRANCH   7  11
ENDBRANCH   2   7
ENDBRANCH   1   3
BRANCH   1  13
ATOM     13  O   UNL     1       5.301   7.018  17.487  0.00  0.00    +0.000 OA
BRANCH  13  14
ATOM     14  C   UNL     1       4.515   6.050  18.054  0.00  0.00    +0.000 A 
ATOM     15  C   UNL     1       3.667   5.386  17.174  0.00  0.00    +0.000 A 
ATOM     16  C   UNL     1       2.826   4.360  17.627  0.00  0.00    +0.000 A 
ATOM     17  C   UNL     1       2.820   3.943  18.969  0.00  0.00    +0.000 A 
ATOM     18  C   UNL     1       3.689   4.622  19.842  0.00  0.00    +0.000 A 
ATOM     19  C   UNL     1       4.529   5.659  19.391  0.00  0.00    +0.000 A 
BRANCH  17  20
ATOM     20  C   UNL     1       1.944   2.770  19.457  0.00  0.00    +0.000 C 
ATOM     21  C   UNL     1       2.603   1.395  19.198  0.00  0.00    +0.000 C 
ATOM     22  C   UNL     1       1.698   2.894  20.977  0.00  0.00    +0.000 C 
ATOM     23  C   UNL     1       0.569   2.750  18.752  0.00  0.00    +0.000 C 
ENDBRANCH  17  20
ENDBRANCH  13  14
ENDBRANCH   1  13
TORSDOF 6
ENDMDL
MODEL 4
REMARK VINA RESULT:      -6.7      5.948      8.950
REMARK  Name = 
REMARK  11 active torsions:
REMARK  status: ('A' for Active; 'I' for Inactive)
REMARK    1  A    between atoms: C_1  and  N_2
REMARK    2  A    between atoms: N_2  and  C_3
REMARK    3  A    between atoms: C_4  and  O_6
REMARK    4  A    between atoms: O_6  and  N_7
REMARK    5  A    between atoms: C_8  and  C_10
REMARK    6  A    between atoms: C_10  and  O_11
REMARK    7  A    between atoms: O_11  and  C_12
REMARK    8  A    between atoms: C_15  and  C_16
REMARK    9  A    between atoms: C_16  and  C_17
REMARK   10  A    between atoms: C_16  and  C_18
REMARK   11  A    between atoms: C_16  and  C_19
REMARK                            x       y       z     vdW  Elec       q    Type
REMARK                         _______ _______ _______ _____ _____    ______ ____
ROOT
ATOM      1  C   UNL     1       8.132   8.886  17.971  0.00  0.00    +0.000 C 
ENDROOT
BRANCH   1   3
ATOM      2  N   UNL     1       7.554   6.871  16.759  0.00  0.00    +0.000 NA
ATOM      3  C   UNL     1       7.947   7.359  17.895  0.00  0.00    +0.000 C 
ATOM      4  N   UNL     1       8.189   6.621  19.034  0.00  0.00    +0.000 N 
ATOM      5  H   UNL     1       8.385   5.644  18.851  0.00  0.00    +0.000 HD
ATOM      6  H   UNL     1       8.835   7.060  19.685  0.00  0.00    +0.000 HD
BRANCH   2   7
ATOM      7  O   UNL     1       7.399   5.467  16.807  0.00  0.00    +0.000 OA
BRANCH   7  11
ATOM      8  C   UNL     1       4.015   4.081  16.760  0.00  0.00    +0.000 C 
ATOM      9  N   UNL     1       5.328   4.512  17.207  0.00  0.00    +0.000 N 
ATOM     10  C   UNL     1       5.703   4.331  18.590  0.00  0.00    +0.000 C 
ATOM     11  C   UNL     1       6.179   5.102  16.271  0.00  0.00    +0.000 C 
ATOM     12  O   UNL     1       5.851   5.255  15.095  0.00  0.00    +0.000 OA
ENDBRANCH   7  11
ENDBRANCH   2   7
ENDBRANCH   1   3
BRANCH   1  13
ATOM     13  O   UNL     1       8.972   9.228  19.072  0.00  0.00    +0.000 OA
BRANCH  13  14
ATOM     14  C   UNL     1       9.383  10.534  19.125  0.00  0.00    +0.000 A 
ATOM     15  C   UNL     1       9.481  11.071  20.403  0.00  0.00    +0.000 A 
ATOM     16  C   UNL     1       9.911  12.392  20.595  0.00  0.00    +0.000 A 
ATOM     17  C   UNL     1      10.282  13.215  19.518  0.00  0.00    +0.000 A 
ATOM     18  C   UNL     1      10.181  12.652  18.233  0.00  0.00    +0.000 A 
ATOM     19  C   UNL     1       9.742  11.328  18.037  0.00  0.00    +0.000 A 
BRANCH  17  20
ATOM     20  C   UNL     1      10.816  14.647  19.729  0.00  0.00    +0.000 C 
ATOM     21  C   UNL     1      10.125  15.676  18.804  0.00  0.00    +0.000 C 
ATOM     22  C   UNL     1      10.571  15.090  21.189  0.00  0.00    +0.000 C 
ATOM     23  C   UNL     1      12.333  14.740  19.452  0.00  0.00    +0.000 C 
ENDBRANCH  17  20
ENDBRANCH  13  14
ENDBRANCH   1  13
TORSDOF 6
ENDMDL
MODEL 5
REMARK VINA RESULT:      -6.7      0.912      1.171
REMARK  Name = 
REMARK  11 active torsions:
REMARK  status: ('A' for Active; 'I' for Inactive)
REMARK    1  A    between atoms: C_1  and  N_2
REMARK    2  A    between atoms: N_2  and  C_3
REMARK    3  A    between atoms: C_4  and  O_6
REMARK    4  A    between atoms: O_6  and  N_7
REMARK    5  A    between atoms: C_8  and  C_10
REMARK    6  A    between atoms: C_10  and  O_11
REMARK    7  A    between atoms: O_11  and  C_12
REMARK    8  A    between atoms: C_15  and  C_16
REMARK    9  A    between atoms: C_16  and  C_17
REMARK   10  A    between atoms: C_16  and  C_18
REMARK   11  A    between atoms: C_16  and  C_19
REMARK                            x       y       z     vdW  Elec       q    Type
REMARK                         _______ _______ _______ _____ _____    ______ ____
ROOT
ATOM      1  C   UNL     1       7.859   5.490  18.780  0.00  0.00    +0.000 C 
ENDROOT
BRANCH   1   3
ATOM      2  N   UNL     1       7.654   4.839  16.457  0.00  0.00    +0.000 NA
ATOM      3  C   UNL     1       7.554   5.815  17.306  0.00  0.00    +0.000 C 
ATOM      4  N   UNL     1       7.219   7.114  16.987  0.00  0.00    +0.000 N 
ATOM      5  H   UNL     1       6.713   7.199  16.114  0.00  0.00    +0.000 HD
ATOM      6  H   UNL     1       6.813   7.640  17.756  0.00  0.00    +0.000 HD
BRANCH   2   7
ATOM      7  O   UNL     1       7.372   5.254  15.135  0.00  0.00    +0.000 OA
BRANCH   7  11
ATOM      8  C   UNL     1       5.932   3.359  12.357  0.00  0.00    +0.000 C 
ATOM      9  N   UNL     1       6.740   4.290  13.127  0.00  0.00    +0.000 N 
ATOM     10  C   UNL     1       7.704   5.123  12.448  0.00  0.00    +0.000 C 
ATOM     11  C   UNL     1       6.555   4.330  14.510  0.00  0.00    +0.000 C 
ATOM     12  O   UNL     1       5.733   3.614  15.081  0.00  0.00    +0.000 OA
ENDBRANCH   7  11
ENDBRANCH   2   7
ENDBRANCH   1   3
BRANCH   1  13
ATOM     13  O   UNL     1       6.770   5.889  19.610  0.00  0.00    +0.000 OA
BRANCH  13  14
ATOM     14  C   UNL     1       5.600   5.200  19.432  0.00  0.00    +0.000 A 
ATOM     15  C   UNL     1       4.459   5.989  19.336  0.00  0.00    +0.000 A 
ATOM     16  C   UNL     1       3.200   5.405  19.132  0.00  0.00    +0.000 A 
ATOM     17  C   UNL     1       3.040   4.016  18.992  0.00  0.00    +0.000 A 
ATOM     18  C   UNL     1       4.206   3.236  19.086  0.00  0.00    +0.000 A 
ATOM     19  C   UNL     1       5.471   3.819  19.300  0.00  0.00    +0.000 A 
BRANCH  17  20
ATOM     20  C   UNL     1       1.665   3.377  18.703  0.00  0.00    +0.000 C 
ATOM     21  C   UNL     1       0.969   4.009  17.475  0.00  0.00    +0.000 C 
ATOM     22  C   UNL     1       1.836   1.867  18.420  0.00  0.00    +0.000 C 
ATOM     23  C   UNL     1       0.698   3.530  19.898  0.00  0.00    +0.000 C 
ENDBRANCH  17  20
ENDBRANCH  13  14
ENDBRANCH   1  13
TORSDOF 6
ENDMDL
MODEL 6
REMARK VINA RESULT:      -6.6      3.741      5.674
REMARK  Name = 
REMARK  11 active torsions:
REMARK  status: ('A' for Active; 'I' for Inactive)
REMARK    1  A    between atoms: C_1  and  N_2
REMARK    2  A    between atoms: N_2  and  C_3
REMARK    3  A    between atoms: C_4  and  O_6
REMARK    4  A    between atoms: O_6  and  N_7
REMARK    5  A    between atoms: C_8  and  C_10
REMARK    6  A    between atoms: C_10  and  O_11
REMARK    7  A    between atoms: O_11  and  C_12
REMARK    8  A    between atoms: C_15  and  C_16
REMARK    9  A    between atoms: C_16  and  C_17
REMARK   10  A    between atoms: C_16  and  C_18
REMARK   11  A    between atoms: C_16  and  C_19
REMARK                            x       y       z     vdW  Elec       q    Type
REMARK                         _______ _______ _______ _____ _____    ______ ____
ROOT
ATOM      1  C   UNL     1       7.392   6.957  16.872  0.00  0.00    +0.000 C 
ENDROOT
BRANCH   1   3
ATOM      2  N   UNL     1       8.199   8.969  17.950  0.00  0.00    +0.000 NA
ATOM      3  C   UNL     1       8.033   7.687  18.066  0.00  0.00    +0.000 C 
ATOM      4  N   UNL     1       8.404   6.935  19.160  0.00  0.00    +0.000 N 
ATOM      5  H   UNL     1       8.492   7.475  20.013  0.00  0.00    +0.000 HD
ATOM      6  H   UNL     1       7.880   6.070  19.268  0.00  0.00    +0.000 HD
BRANCH   2   7
ATOM      7  O   UNL     1       8.811   9.532  19.093  0.00  0.00    +0.000 OA
BRANCH   7  11
ATOM      8  C   UNL     1      10.336  12.821  19.580  0.00  0.00    +0.000 C 
ATOM      9  N   UNL     1       9.637  11.569  19.819  0.00  0.00    +0.000 N 
ATOM     10  C   UNL     1       9.129  11.281  21.139  0.00  0.00    +0.000 C 
ATOM     11  C   UNL     1       9.495  10.683  18.751  0.00  0.00    +0.000 C 
ATOM     12  O   UNL     1       9.934  10.936  17.629  0.00  0.00    +0.000 OA
ENDBRANCH   7  11
ENDBRANCH   2   7
ENDBRANCH   1   3
BRANCH   1  13
ATOM     13  O   UNL     1       5.999   7.253  16.801  0.00  0.00    +0.000 OA
BRANCH  13  14
ATOM     14  C   UNL     1       5.171   6.395  17.476  0.00  0.00    +0.000 A 
ATOM     15  C   UNL     1       3.889   6.875  17.714  0.00  0.00    +0.000 A 
ATOM     16  C   UNL     1       2.939   6.086  18.379  0.00  0.00    +0.000 A 
ATOM     17  C   UNL     1       3.230   4.779  18.806  0.00  0.00    +0.000 A 
ATOM     18  C   UNL     1       4.531   4.308  18.551  0.00  0.00    +0.000 A 
ATOM     19  C   UNL     1       5.489   5.103  17.892  0.00  0.00    +0.000 A 
BRANCH  17  20
ATOM     20  C   UNL     1       2.168   3.884  19.480  0.00  0.00    +0.000 C 
ATOM     21  C   UNL     1       1.284   4.669  20.478  0.00  0.00    +0.000 C 
ATOM     22  C   UNL     1       1.237   3.274  18.408  0.00  0.00    +0.000 C 
ATOM     23  C   UNL     1       2.813   2.722  20.267  0.00  0.00    +0.000 C 
ENDBRANCH  17  20
ENDBRANCH  13  14
ENDBRANCH   1  13
TORSDOF 6
ENDMDL
MODEL 7
REMARK VINA RESULT:      -6.6      3.798      5.760
REMARK  Name = 
REMARK  11 active torsions:
REMARK  status: ('A' for Active; 'I' for Inactive)
REMARK    1  A    between atoms: C_1  and  N_2
REMARK    2  A    between atoms: N_2  and  C_3
REMARK    3  A    between atoms: C_4  and  O_6
REMARK    4  A    between atoms: O_6  and  N_7
REMARK    5  A    between atoms: C_8  and  C_10
REMARK    6  A    between atoms: C_10  and  O_11
REMARK    7  A    between atoms: O_11  and  C_12
REMARK    8  A    between atoms: C_15  and  C_16
REMARK    9  A    between atoms: C_16  and  C_17
REMARK   10  A    between atoms: C_16  and  C_18
REMARK   11  A    between atoms: C_16  and  C_19
REMARK                            x       y       z     vdW  Elec       q    Type
REMARK                         _______ _______ _______ _____ _____    ______ ____
ROOT
ATOM      1  C   UNL     1       7.136   7.072  17.001  0.00  0.00    +0.000 C 
ENDROOT
BRANCH   1   3
ATOM      2  N   UNL     1       8.234   8.984  18.003  0.00  0.00    +0.000 NA
ATOM      3  C   UNL     1       7.977   7.718  18.119  0.00  0.00    +0.000 C 
ATOM      4  N   UNL     1       8.414   6.911  19.147  0.00  0.00    +0.000 N 
ATOM      5  H   UNL     1       8.650   7.420  19.990  0.00  0.00    +0.000 HD
ATOM      6  H   UNL     1       7.838   6.089  19.305  0.00  0.00    +0.000 HD
BRANCH   2   7
ATOM      7  O   UNL     1       9.025   9.467  19.070  0.00  0.00    +0.000 OA
BRANCH   7  11
ATOM      8  C   UNL     1       9.980  12.946  19.673  0.00  0.00    +0.000 C 
ATOM      9  N   UNL     1       9.494  11.590  19.865  0.00  0.00    +0.000 N 
ATOM     10  C   UNL     1       9.022  11.183  21.168  0.00  0.00    +0.000 C 
ATOM     11  C   UNL     1       9.514  10.725  18.771  0.00  0.00    +0.000 C 
ATOM     12  O   UNL     1       9.920  11.079  17.665  0.00  0.00    +0.000 OA
ENDBRANCH   7  11
ENDBRANCH   2   7
ENDBRANCH   1   3
BRANCH   1  13
ATOM     13  O   UNL     1       5.759   7.406  17.163  0.00  0.00    +0.000 OA
BRANCH  13  14
ATOM     14  C   UNL     1       4.942   6.386  17.569  0.00  0.00    +0.000 A 
ATOM     15  C   UNL     1       5.524   5.123  17.564  0.00  0.00    +0.000 A 
ATOM     16  C   UNL     1       4.798   3.997  17.977  0.00  0.00    +0.000 A 
ATOM     17  C   UNL     1       3.473   4.096  18.435  0.00  0.00    +0.000 A 
ATOM     18  C   UNL     1       2.903   5.382  18.439  0.00  0.00    +0.000 A 
ATOM     19  C   UNL     1       3.628   6.513  18.016  0.00  0.00    +0.000 A 
BRANCH  17  20
ATOM     20  C   UNL     1       2.693   2.868  18.953  0.00  0.00    +0.000 C 
ATOM     21  C   UNL     1       1.224   2.858  18.468  0.00  0.00    +0.000 C 
ATOM     22  C   UNL     1       3.363   1.569  18.451  0.00  0.00    +0.000 C 
ATOM     23  C   UNL     1       2.658   2.820  20.497  0.00  0.00    +0.000 C 
ENDBRANCH  17  20
ENDBRANCH  13  14
ENDBRANCH   1  13
TORSDOF 6
ENDMDL
MODEL 8
REMARK VINA RESULT:      -6.5      3.849      6.799
REMARK  Name = 
REMARK  11 active torsions:
REMARK  status: ('A' for Active; 'I' for Inactive)
REMARK    1  A    between atoms: C_1  and  N_2
REMARK    2  A    between atoms: N_2  and  C_3
REMARK    3  A    between atoms: C_4  and  O_6
REMARK    4  A    between atoms: O_6  and  N_7
REMARK    5  A    between atoms: C_8  and  C_10
REMARK    6  A    between atoms: C_10  and  O_11
REMARK    7  A    between atoms: O_11  and  C_12
REMARK    8  A    between atoms: C_15  and  C_16
REMARK    9  A    between atoms: C_16  and  C_17
REMARK   10  A    between atoms: C_16  and  C_18
REMARK   11  A    between atoms: C_16  and  C_19
REMARK                            x       y       z     vdW  Elec       q    Type
REMARK                         _______ _______ _______ _____ _____    ______ ____
ROOT
ATOM      1  C   UNL     1       2.748   2.710  21.020  0.00  0.00    +0.000 C 
ENDROOT
BRANCH   1   3
ATOM      2  N   UNL     1       2.444   5.112  21.060  0.00  0.00    +0.000 NA
ATOM      3  C   UNL     1       1.886   3.968  20.809  0.00  0.00    +0.000 C 
ATOM      4  N   UNL     1       0.583   3.797  20.391  0.00  0.00    +0.000 N 
ATOM      5  H   UNL     1       0.187   4.618  19.951  0.00  0.00    +0.000 HD
ATOM      6  H   UNL     1       0.421   2.932  19.881  0.00  0.00    +0.000 HD
BRANCH   2   7
ATOM      7  O   UNL     1       1.559   6.195  20.851  0.00  0.00    +0.000 OA
BRANCH   7  11
ATOM      8  C   UNL     1       1.922   9.181  18.770  0.00  0.00    +0.000 C 
ATOM      9  N   UNL     1       1.543   8.280  19.846  0.00  0.00    +0.000 N 
ATOM     10  C   UNL     1       0.746   8.778  20.942  0.00  0.00    +0.000 C 
ATOM     11  C   UNL     1       1.983   6.957  19.779  0.00  0.00    +0.000 C 
ATOM     12  O   UNL     1       2.664   6.542  18.842  0.00  0.00    +0.000 OA
ENDBRANCH   7  11
ENDBRANCH   2   7
ENDBRANCH   1   3
BRANCH   1  13
ATOM     13  O   UNL     1       3.072   2.116  19.765  0.00  0.00    +0.000 OA
BRANCH  13  14
ATOM     14  C   UNL     1       3.699   2.932  18.862  0.00  0.00    +0.000 A 
ATOM     15  C   UNL     1       4.871   3.526  19.317  0.00  0.00    +0.000 A 
ATOM     16  C   UNL     1       5.618   4.369  18.481  0.00  0.00    +0.000 A 
ATOM     17  C   UNL     1       5.235   4.628  17.154  0.00  0.00    +0.000 A 
ATOM     18  C   UNL     1       4.050   4.014  16.711  0.00  0.00    +0.000 A 
ATOM     19  C   UNL     1       3.293   3.174  17.551  0.00  0.00    +0.000 A 
BRANCH  17  20
ATOM     20  C   UNL     1       6.089   5.502  16.212  0.00  0.00    +0.000 C 
ATOM     21  C   UNL     1       5.243   6.557  15.461  0.00  0.00    +0.000 C 
ATOM     22  C   UNL     1       7.166   6.255  17.025  0.00  0.00    +0.000 C 
ATOM     23  C   UNL     1       6.809   4.655  15.139  0.00  0.00    +0.000 C 
ENDBRANCH  17  20
ENDBRANCH  13  14
ENDBRANCH   1  13
TORSDOF 6
ENDMDL
MODEL 9
REMARK VINA RESULT:      -6.5      3.495      4.615
REMARK  Name = 
REMARK  11 active torsions:
REMARK  status: ('A' for Active; 'I' for Inactive)
REMARK    1  A    between atoms: C_1  and  N_2
REMARK    2  A    between atoms: N_2  and  C_3
REMARK    3  A    between atoms: C_4  and  O_6
REMARK    4  A    between atoms: O_6  and  N_7
REMARK    5  A    between atoms: C_8  and  C_10
REMARK    6  A    between atoms: C_10  and  O_11
REMARK    7  A    between atoms: O_11  and  C_12
REMARK    8  A    between atoms: C_15  and  C_16
REMARK    9  A    between atoms: C_16  and  C_17
REMARK   10  A    between atoms: C_16  and  C_18
REMARK   11  A    between atoms: C_16  and  C_19
REMARK                            x       y       z     vdW  Elec       q    Type
REMARK                         _______ _______ _______ _____ _____    ______ ____
ROOT
ATOM      1  C   UNL     1       4.497   5.055  19.246  0.00  0.00    +0.000 C 
ENDROOT
BRANCH   1   3
ATOM      2  N   UNL     1       5.516   5.104  17.050  0.00  0.00    +0.000 NA
ATOM      3  C   UNL     1       4.963   4.357  17.955  0.00  0.00    +0.000 C 
ATOM      4  N   UNL     1       4.745   3.001  17.839  0.00  0.00    +0.000 N 
ATOM      5  H   UNL     1       5.351   2.549  17.165  0.00  0.00    +0.000 HD
ATOM      6  H   UNL     1       4.676   2.512  18.728  0.00  0.00    +0.000 HD
BRANCH   2   7
ATOM      7  O   UNL     1       5.888   4.365  15.903  0.00  0.00    +0.000 OA
BRANCH   7  11
ATOM      8  C   UNL     1       7.940   5.288  13.020  0.00  0.00    +0.000 C 
ATOM      9  N   UNL     1       6.938   4.655  13.861  0.00  0.00    +0.000 N 
ATOM     10  C   UNL     1       6.046   3.675  13.288  0.00  0.00    +0.000 C 
ATOM     11  C   UNL     1       6.872   5.035  15.202  0.00  0.00    +0.000 C 
ATOM     12  O   UNL     1       7.634   5.874  15.682  0.00  0.00    +0.000 OA
ENDBRANCH   7  11
ENDBRANCH   2   7
ENDBRANCH   1   3
BRANCH   1  13
ATOM     13  O   UNL     1       3.073   5.122  19.286  0.00  0.00    +0.000 OA
BRANCH  13  14
ATOM     14  C   UNL     1       2.537   6.377  19.395  0.00  0.00    +0.000 A 
ATOM     15  C   UNL     1       2.600   7.150  18.241  0.00  0.00    +0.000 A 
ATOM     16  C   UNL     1       2.068   8.447  18.217  0.00  0.00    +0.000 A 
ATOM     17  C   UNL     1       1.431   9.009  19.337  0.00  0.00    +0.000 A 
ATOM     18  C   UNL     1       1.372   8.210  20.493  0.00  0.00    +0.000 A 
ATOM     19  C   UNL     1       1.914   6.910  20.522  0.00  0.00    +0.000 A 
BRANCH  17  20
ATOM     20  C   UNL     1       0.788  10.411  19.294  0.00  0.00    +0.000 C 
ATOM     21  C   UNL     1      -0.582  10.407  18.574  0.00  0.00    +0.000 C 
ATOM     22  C   UNL     1       0.561  10.930  20.731  0.00  0.00    +0.000 C 
ATOM     23  C   UNL     1       1.682  11.430  18.554  0.00  0.00    +0.000 C 
ENDBRANCH  17  20
ENDBRANCH  13  14
ENDBRANCH   1  13
TORSDOF 6
ENDMDL
