MODEL 1
REMARK VINA RESULT:      -7.8      0.000      0.000
REMARK  Name = 
REMARK  5 active torsions:
REMARK  status: ('A' for Active; 'I' for Inactive)
REMARK    1  A    between atoms: C_2  and  C_3
REMARK    2  A    between atoms: C_3  and  C_4
REMARK    3  A    between atoms: C_4  and  C_5
REMARK    4  A    between atoms: C_5  and  N_6
REMARK    5  A    between atoms: C_15  and  C_16
REMARK                            x       y       z     vdW  Elec       q    Type
REMARK                         _______ _______ _______ _____ _____    ______ ____
ROOT
ATOM      1  O   UNL     1       7.344   6.212  19.405  0.00  0.00    +0.000 OA
ATOM      2  C   UNL     1       7.368   6.347  18.180  0.00  0.00    +0.000 C 
ATOM      3  N   UNL     1       6.951   5.340  17.321  0.00  0.00    +0.000 N 
ATOM      4  C   UNL     1       7.005   5.374  15.861  0.00  0.00    +0.000 C 
ATOM      5  C   UNL     1       5.608   5.311  15.247  0.00  0.00    +0.000 C 
ATOM      6  C   UNL     1       4.767   4.174  15.841  0.00  0.00    +0.000 C 
ATOM      7  C   UNL     1       4.784   4.143  17.380  0.00  0.00    +0.000 C 
ATOM      8  C   UNL     1       6.234   4.200  17.890  0.00  0.00    +0.000 C 
ENDROOT
BRANCH   7   9
ATOM      9  C   UNL     1       3.935   5.242  17.988  0.00  0.00    +0.000 A 
ATOM     10  N   UNL     1       3.560   6.346  17.372  0.00  0.00    +0.000 NA
ATOM     11  C   UNL     1       2.818   7.145  18.226  0.00  0.00    +0.000 A 
ATOM     12  C   UNL     1       2.262   8.404  17.914  0.00  0.00    +0.000 A 
ATOM     13  C   UNL     1       1.530   9.103  18.882  0.00  0.00    +0.000 A 
ATOM     14  C   UNL     1       1.357   8.569  20.155  0.00  0.00    +0.000 A 
ATOM     15  C   UNL     1       1.896   7.323  20.488  0.00  0.00    +0.000 A 
ATOM     16  C   UNL     1       2.619   6.625  19.506  0.00  0.00    +0.000 A 
ATOM     17  S   UNL     1       3.380   5.086  19.609  0.00  0.00    +0.000 S 
ENDBRANCH   7   9
BRANCH   2  18
ATOM     18  C   UNL     1       7.855   7.640  17.549  0.00  0.00    +0.000 C 
BRANCH  18  19
ATOM     19  C   UNL     1       8.602   8.509  18.561  0.00  0.00    +0.000 C 
BRANCH  19  20
ATOM     20  C   UNL     1       8.552   9.982  18.177  0.00  0.00    +0.000 C 
BRANCH  20  21
ATOM     21  N   UNL     1       9.476  10.773  18.962  0.00  0.00    +0.000 N 
ATOM     22  C   UNL     1      10.582  11.433  18.531  0.00  0.00    +0.000 A 
ATOM     23  N   UNL     1      11.155  12.037  19.545  0.00  0.00    +0.000 NA
ATOM     24  C   UNL     1      10.341  11.712  20.593  0.00  0.00    +0.000 A 
ATOM     25  N   UNL     1       9.304  10.928  20.287  0.00  0.00    +0.000 NA
ENDBRANCH  20  21
ENDBRANCH  19  20
ENDBRANCH  18  19
ENDBRANCH   2  18
TORSDOF 5
ENDMDL
MODEL 2
REMARK VINA RESULT:      -7.7      3.848      6.555
REMARK  Name = 
REMARK  5 active torsions:
REMARK  status: ('A' for Active; 'I' for Inactive)
REMARK    1  A    between atoms: C_2  and  C_3
REMARK    2  A    between atoms: C_3  and  C_4
REMARK    3  A    between atoms: C_4  and  C_5
REMARK    4  A    between atoms: C_5  and  N_6
REMARK    5  A    between atoms: C_15  and  C_16
REMARK                            x       y       z     vdW  Elec       q    Type
REMARK                         _______ _______ _______ _____ _____    ______ ____
ROOT
ATOM      1  O   UNL     1       1.601   5.724  18.082  0.00  0.00    +0.000 OA
ATOM      2  C   UNL     1       1.747   5.165  19.170  0.00  0.00    +0.000 C 
ATOM      3  N   UNL     1       2.076   3.821  19.268  0.00  0.00    +0.000 N 
ATOM      4  C   UNL     1       2.203   3.051  20.504  0.00  0.00    +0.000 C 
ATOM      5  C   UNL     1       3.630   2.542  20.703  0.00  0.00    +0.000 C 
ATOM      6  C   UNL     1       4.177   1.852  19.447  0.00  0.00    +0.000 C 
ATOM      7  C   UNL     1       3.971   2.674  18.162  0.00  0.00    +0.000 C 
ATOM      8  C   UNL     1       2.505   3.125  18.056  0.00  0.00    +0.000 C 
ENDROOT
BRANCH   7   9
ATOM      9  C   UNL     1       4.926   3.850  18.070  0.00  0.00    +0.000 A 
ATOM     10  N   UNL     1       5.927   4.085  18.896  0.00  0.00    +0.000 NA
ATOM     11  C   UNL     1       6.576   5.256  18.542  0.00  0.00    +0.000 A 
ATOM     12  C   UNL     1       7.684   5.826  19.204  0.00  0.00    +0.000 A 
ATOM     13  C   UNL     1       8.241   7.021  18.732  0.00  0.00    +0.000 A 
ATOM     14  C   UNL     1       7.700   7.658  17.620  0.00  0.00    +0.000 A 
ATOM     15  C   UNL     1       6.604   7.113  16.945  0.00  0.00    +0.000 A 
ATOM     16  C   UNL     1       6.060   5.908  17.421  0.00  0.00    +0.000 A 
ATOM     17  S   UNL     1       4.737   4.997  16.804  0.00  0.00    +0.000 S 
ENDBRANCH   7   9
BRANCH   2  18
ATOM     18  C   UNL     1       1.577   5.935  20.470  0.00  0.00    +0.000 C 
BRANCH  18  19
ATOM     19  C   UNL     1       1.912   7.415  20.290  0.00  0.00    +0.000 C 
BRANCH  19  20
ATOM     20  C   UNL     1       1.205   8.278  21.327  0.00  0.00    +0.000 C 
BRANCH  20  21
ATOM     21  N   UNL     1       0.990   9.626  20.848  0.00  0.00    +0.000 N 
ATOM     22  C   UNL     1       0.859  10.042  19.561  0.00  0.00    +0.000 A 
ATOM     23  N   UNL     1       0.674  11.340  19.536  0.00  0.00    +0.000 NA
ATOM     24  C   UNL     1       0.696  11.676  20.860  0.00  0.00    +0.000 A 
ATOM     25  N   UNL     1       0.898  10.660  21.703  0.00  0.00    +0.000 NA
ENDBRANCH  20  21
ENDBRANCH  19  20
ENDBRANCH  18  19
ENDBRANCH   2  18
TORSDOF 5
ENDMDL
MODEL 3
REMARK VINA RESULT:      -7.6      3.823      6.811
REMARK  Name = 
REMARK  5 active torsions:
REMARK  status: ('A' for Active; 'I' for Inactive)
REMARK    1  A    between atoms: C_2  and  C_3
REMARK    2  A    between atoms: C_3  and  C_4
REMARK    3  A    between atoms: C_4  and  C_5
REMARK    4  A    between atoms: C_5  and  N_6
REMARK    5  A    between atoms: C_15  and  C_16
REMARK                            x       y       z     vdW  Elec       q    Type
REMARK                         _______ _______ _______ _____ _____    ______ ____
ROOT
ATOM      1  O   UNL     1       1.627   5.774  17.969  0.00  0.00    +0.000 OA
ATOM      2  C   UNL     1       1.738   5.224  19.066  0.00  0.00    +0.000 C 
ATOM      3  N   UNL     1       2.053   3.878  19.186  0.00  0.00    +0.000 N 
ATOM      4  C   UNL     1       2.139   3.118  20.432  0.00  0.00    +0.000 C 
ATOM      5  C   UNL     1       3.555   2.600  20.675  0.00  0.00    +0.000 C 
ATOM      6  C   UNL     1       4.132   1.894  19.441  0.00  0.00    +0.000 C 
ATOM      7  C   UNL     1       3.969   2.706  18.143  0.00  0.00    +0.000 C 
ATOM      8  C   UNL     1       2.511   3.167  17.992  0.00  0.00    +0.000 C 
ENDROOT
BRANCH   7   9
ATOM      9  C   UNL     1       4.936   3.872  18.069  0.00  0.00    +0.000 A 
ATOM     10  N   UNL     1       5.921   4.102  18.914  0.00  0.00    +0.000 NA
ATOM     11  C   UNL     1       6.587   5.266  18.570  0.00  0.00    +0.000 A 
ATOM     12  C   UNL     1       7.686   5.828  19.254  0.00  0.00    +0.000 A 
ATOM     13  C   UNL     1       8.264   7.017  18.790  0.00  0.00    +0.000 A 
ATOM     14  C   UNL     1       7.753   7.655  17.664  0.00  0.00    +0.000 A 
ATOM     15  C   UNL     1       6.666   7.117  16.968  0.00  0.00    +0.000 A 
ATOM     16  C   UNL     1       6.102   5.918  17.437  0.00  0.00    +0.000 A 
ATOM     17  S   UNL     1       4.785   5.017  16.794  0.00  0.00    +0.000 S 
ENDBRANCH   7   9
BRANCH   2  18
ATOM     18  C   UNL     1       1.538   6.006  20.354  0.00  0.00    +0.000 C 
BRANCH  18  19
ATOM     19  C   UNL     1       2.232   7.367  20.294  0.00  0.00    +0.000 C 
BRANCH  19  20
ATOM     20  C   UNL     1       1.231   8.496  20.089  0.00  0.00    +0.000 C 
BRANCH  20  21
ATOM     21  N   UNL     1       0.744   9.017  21.349  0.00  0.00    +0.000 N 
ATOM     22  C   UNL     1       1.426   9.142  22.518  0.00  0.00    +0.000 A 
ATOM     23  N   UNL     1       0.639   9.659  23.431  0.00  0.00    +0.000 NA
ATOM     24  C   UNL     1      -0.534   9.840  22.755  0.00  0.00    +0.000 A 
ATOM     25  N   UNL     1      -0.522   9.450  21.477  0.00  0.00    +0.000 NA
ENDBRANCH  20  21
ENDBRANCH  19  20
ENDBRANCH  18  19
ENDBRANCH   2  18
TORSDOF 5
ENDMDL
MODEL 4
REMARK VINA RESULT:      -7.5      3.828      6.997
REMARK  Name = 
REMARK  5 active torsions:
REMARK  status: ('A' for Active; 'I' for Inactive)
REMARK    1  A    between atoms: C_2  and  C_3
REMARK    2  A    between atoms: C_3  and  C_4
REMARK    3  A    between atoms: C_4  and  C_5
REMARK    4  A    between atoms: C_5  and  N_6
REMARK    5  A    between atoms: C_15  and  C_16
REMARK                            x       y       z     vdW  Elec       q    Type
REMARK                         _______ _______ _______ _____ _____    ______ ____
ROOT
ATOM      1  O   UNL     1       1.679   6.268  18.319  0.00  0.00    +0.000 OA
ATOM      2  C   UNL     1       1.798   5.617  19.359  0.00  0.00    +0.000 C 
ATOM      3  N   UNL     1       1.999   4.245  19.349  0.00  0.00    +0.000 N 
ATOM      4  C   UNL     1       2.083   3.375  20.521  0.00  0.00    +0.000 C 
ATOM      5  C   UNL     1       3.459   2.722  20.637  0.00  0.00    +0.000 C 
ATOM      6  C   UNL     1       3.905   2.080  19.317  0.00  0.00    +0.000 C 
ATOM      7  C   UNL     1       3.747   3.012  18.102  0.00  0.00    +0.000 C 
ATOM      8  C   UNL     1       2.329   3.605  18.076  0.00  0.00    +0.000 C 
ENDROOT
BRANCH   7   9
ATOM      9  C   UNL     1       4.807   4.096  18.065  0.00  0.00    +0.000 A 
ATOM     10  N   UNL     1       5.806   4.214  18.917  0.00  0.00    +0.000 NA
ATOM     11  C   UNL     1       6.568   5.331  18.612  0.00  0.00    +0.000 A 
ATOM     12  C   UNL     1       7.709   5.776  19.313  0.00  0.00    +0.000 A 
ATOM     13  C   UNL     1       8.384   6.928  18.888  0.00  0.00    +0.000 A 
ATOM     14  C   UNL     1       7.929   7.643  17.785  0.00  0.00    +0.000 A 
ATOM     15  C   UNL     1       6.804   7.220  17.072  0.00  0.00    +0.000 A 
ATOM     16  C   UNL     1       6.141   6.058  17.500  0.00  0.00    +0.000 A 
ATOM     17  S   UNL     1       4.754   5.291  16.829  0.00  0.00    +0.000 S 
ENDBRANCH   7   9
BRANCH   2  18
ATOM     18  C   UNL     1       1.735   6.300  20.715  0.00  0.00    +0.000 C 
BRANCH  18  19
ATOM     19  C   UNL     1       1.273   7.751  20.590  0.00  0.00    +0.000 C 
BRANCH  19  20
ATOM     20  C   UNL     1       1.461   8.513  21.895  0.00  0.00    +0.000 C 
BRANCH  20  21
ATOM     21  N   UNL     1       0.472   9.556  22.055  0.00  0.00    +0.000 N 
ATOM     22  C   UNL     1      -0.147  10.275  21.082  0.00  0.00    +0.000 A 
ATOM     23  N   UNL     1      -0.981  11.127  21.629  0.00  0.00    +0.000 NA
ATOM     24  C   UNL     1      -0.835  10.881  22.965  0.00  0.00    +0.000 A 
ATOM     25  N   UNL     1       0.054   9.934  23.276  0.00  0.00    +0.000 NA
ENDBRANCH  20  21
ENDBRANCH  19  20
ENDBRANCH  18  19
ENDBRANCH   2  18
TORSDOF 5
ENDMDL
MODEL 5
REMARK VINA RESULT:      -7.5      3.938      6.458
REMARK  Name = 
REMARK  5 active torsions:
REMARK  status: ('A' for Active; 'I' for Inactive)
REMARK    1  A    between atoms: C_2  and  C_3
REMARK    2  A    between atoms: C_3  and  C_4
REMARK    3  A    between atoms: C_4  and  C_5
REMARK    4  A    between atoms: C_5  and  N_6
REMARK    5  A    between atoms: C_15  and  C_16
REMARK                            x       y       z     vdW  Elec       q    Type
REMARK                         _______ _______ _______ _____ _____    ______ ____
ROOT
ATOM      1  O   UNL     1       1.418   4.941  17.852  0.00  0.00    +0.000 OA
ATOM      2  C   UNL     1       1.567   4.520  19.000  0.00  0.00    +0.000 C 
ATOM      3  N   UNL     1       2.015   3.233  19.259  0.00  0.00    +0.000 N 
ATOM      4  C   UNL     1       2.158   2.617  20.577  0.00  0.00    +0.000 C 
ATOM      5  C   UNL     1       3.616   2.274  20.880  0.00  0.00    +0.000 C 
ATOM      6  C   UNL     1       4.280   1.508  19.728  0.00  0.00    +0.000 C 
ATOM      7  C   UNL     1       4.056   2.162  18.352  0.00  0.00    +0.000 C 
ATOM      8  C   UNL     1       2.560   2.454  18.148  0.00  0.00    +0.000 C 
ENDROOT
BRANCH   7   9
ATOM      9  C   UNL     1       4.900   3.408  18.162  0.00  0.00    +0.000 A 
ATOM     10  N   UNL     1       5.841   3.825  18.987  0.00  0.00    +0.000 NA
ATOM     11  C   UNL     1       6.392   5.009  18.527  0.00  0.00    +0.000 A 
ATOM     12  C   UNL     1       7.415   5.750  19.156  0.00  0.00    +0.000 A 
ATOM     13  C   UNL     1       7.878   6.937  18.573  0.00  0.00    +0.000 A 
ATOM     14  C   UNL     1       7.326   7.397  17.382  0.00  0.00    +0.000 A 
ATOM     15  C   UNL     1       6.313   6.680  16.738  0.00  0.00    +0.000 A 
ATOM     16  C   UNL     1       5.865   5.485  17.326  0.00  0.00    +0.000 A 
ATOM     17  S   UNL     1       4.658   4.391  16.772  0.00  0.00    +0.000 S 
ENDBRANCH   7   9
BRANCH   2  18
ATOM     18  C   UNL     1       1.269   5.405  20.199  0.00  0.00    +0.000 C 
BRANCH  18  19
ATOM     19  C   UNL     1       2.306   6.520  20.341  0.00  0.00    +0.000 C 
BRANCH  19  20
ATOM     20  C   UNL     1       1.649   7.858  20.651  0.00  0.00    +0.000 C 
BRANCH  20  21
ATOM     21  N   UNL     1       1.586   8.708  19.481  0.00  0.00    +0.000 N 
ATOM     22  C   UNL     1       2.210   8.531  18.287  0.00  0.00    +0.000 A 
ATOM     23  N   UNL     1       1.900   9.517  17.480  0.00  0.00    +0.000 NA
ATOM     24  C   UNL     1       1.065  10.284  18.242  0.00  0.00    +0.000 A 
ATOM     25  N   UNL     1       0.850   9.834  19.481  0.00  0.00    +0.000 NA
ENDBRANCH  20  21
ENDBRANCH  19  20
ENDBRANCH  18  19
ENDBRANCH   2  18
TORSDOF 5
ENDMDL
MODEL 6
REMARK VINA RESULT:      -7.3      4.478      5.766
REMARK  Name = 
REMARK  5 active torsions:
REMARK  status: ('A' for Active; 'I' for Inactive)
REMARK    1  A    between atoms: C_2  and  C_3
REMARK    2  A    between atoms: C_3  and  C_4
REMARK    3  A    between atoms: C_4  and  C_5
REMARK    4  A    between atoms: C_5  and  N_6
REMARK    5  A    between atoms: C_15  and  C_16
REMARK                            x       y       z     vdW  Elec       q    Type
REMARK                         _______ _______ _______ _____ _____    ______ ____
ROOT
ATOM      1  O   UNL     1       5.353   5.388  18.837  0.00  0.00    +0.000 OA
ATOM      2  C   UNL     1       4.521   4.651  18.305  0.00  0.00    +0.000 C 
ATOM      3  N   UNL     1       3.610   3.914  19.047  0.00  0.00    +0.000 N 
ATOM      4  C   UNL     1       2.634   2.963  18.518  0.00  0.00    +0.000 C 
ATOM      5  C   UNL     1       1.202   3.419  18.793  0.00  0.00    +0.000 C 
ATOM      6  C   UNL     1       0.994   3.817  20.260  0.00  0.00    +0.000 C 
ATOM      7  C   UNL     1       2.076   4.775  20.790  0.00  0.00    +0.000 C 
ATOM      8  C   UNL     1       3.473   4.218  20.471  0.00  0.00    +0.000 C 
ENDROOT
BRANCH   7   9
ATOM      9  C   UNL     1       1.904   6.187  20.264  0.00  0.00    +0.000 A 
ATOM     10  N   UNL     1       2.319   6.619  19.089  0.00  0.00    +0.000 NA
ATOM     11  C   UNL     1       2.026   7.965  18.941  0.00  0.00    +0.000 A 
ATOM     12  C   UNL     1       2.332   8.764  17.819  0.00  0.00    +0.000 A 
ATOM     13  C   UNL     1       1.972  10.117  17.808  0.00  0.00    +0.000 A 
ATOM     14  C   UNL     1       1.326  10.684  18.902  0.00  0.00    +0.000 A 
ATOM     15  C   UNL     1       1.011   9.912  20.024  0.00  0.00    +0.000 A 
ATOM     16  C   UNL     1       1.366   8.553  20.020  0.00  0.00    +0.000 A 
ATOM     17  S   UNL     1       1.103   7.360  21.233  0.00  0.00    +0.000 S 
ENDBRANCH   7   9
BRANCH   2  18
ATOM     18  C   UNL     1       4.452   4.521  16.792  0.00  0.00    +0.000 C 
BRANCH  18  19
ATOM     19  C   UNL     1       5.744   3.938  16.222  0.00  0.00    +0.000 C 
BRANCH  19  20
ATOM     20  C   UNL     1       6.585   5.007  15.538  0.00  0.00    +0.000 C 
BRANCH  20  21
ATOM     21  N   UNL     1       6.802   4.706  14.139  0.00  0.00    +0.000 N 
ATOM     22  C   UNL     1       6.204   3.741  13.392  0.00  0.00    +0.000 A 
ATOM     23  N   UNL     1       6.666   3.787  12.165  0.00  0.00    +0.000 NA
ATOM     24  C   UNL     1       7.558   4.821  12.214  0.00  0.00    +0.000 A 
ATOM     25  N   UNL     1       7.684   5.409  13.407  0.00  0.00    +0.000 NA
ENDBRANCH  20  21
ENDBRANCH  19  20
ENDBRANCH  18  19
ENDBRANCH   2  18
TORSDOF 5
ENDMDL
MODEL 7
REMARK VINA RESULT:      -7.2      2.589      4.432
REMARK  Name = 
REMARK  5 active torsions:
REMARK  status: ('A' for Active; 'I' for Inactive)
REMARK    1  A    between atoms: C_2  and  C_3
REMARK    2  A    between atoms: C_3  and  C_4
REMARK    3  A    between atoms: C_4  and  C_5
REMARK    4  A    between atoms: C_5  and  N_6
REMARK    5  A    between atoms: C_15  and  C_16
REMARK                            x       y       z     vdW  Elec       q    Type
REMARK                         _______ _______ _______ _____ _____    ______ ____
ROOT
ATOM      1  O   UNL     1       5.392   4.376  19.513  0.00  0.00    +0.000 OA
ATOM      2  C   UNL     1       4.635   3.673  18.841  0.00  0.00    +0.000 C 
ATOM      3  N   UNL     1       3.553   3.011  19.404  0.00  0.00    +0.000 N 
ATOM      4  C   UNL     1       2.641   2.102  18.711  0.00  0.00    +0.000 C 
ATOM      5  C   UNL     1       1.214   2.647  18.694  0.00  0.00    +0.000 C 
ATOM      6  C   UNL     1       0.751   3.098  20.086  0.00  0.00    +0.000 C 
ATOM      7  C   UNL     1       1.768   4.007  20.801  0.00  0.00    +0.000 C 
ATOM      8  C   UNL     1       3.163   3.361  20.769  0.00  0.00    +0.000 C 
ENDROOT
BRANCH   7   9
ATOM      9  C   UNL     1       1.788   5.411  20.228  0.00  0.00    +0.000 A 
ATOM     10  N   UNL     1       2.268   5.745  19.046  0.00  0.00    +0.000 NA
ATOM     11  C   UNL     1       2.156   7.112  18.852  0.00  0.00    +0.000 A 
ATOM     12  C   UNL     1       2.574   7.827  17.709  0.00  0.00    +0.000 A 
ATOM     13  C   UNL     1       2.397   9.215  17.650  0.00  0.00    +0.000 A 
ATOM     14  C   UNL     1       1.821   9.897  18.717  0.00  0.00    +0.000 A 
ATOM     15  C   UNL     1       1.396   9.211  19.858  0.00  0.00    +0.000 A 
ATOM     16  C   UNL     1       1.569   7.818  19.902  0.00  0.00    +0.000 A 
ATOM     17  S   UNL     1       1.140   6.711  21.148  0.00  0.00    +0.000 S 
ENDBRANCH   7   9
BRANCH   2  18
ATOM     18  C   UNL     1       4.851   3.504  17.347  0.00  0.00    +0.000 C 
BRANCH  18  19
ATOM     19  C   UNL     1       4.886   4.854  16.631  0.00  0.00    +0.000 C 
BRANCH  19  20
ATOM     20  C   UNL     1       6.283   5.180  16.120  0.00  0.00    +0.000 C 
BRANCH  20  21
ATOM     21  N   UNL     1       6.976   6.097  16.999  0.00  0.00    +0.000 N 
ATOM     22  C   UNL     1       7.674   5.804  18.127  0.00  0.00    +0.000 A 
ATOM     23  N   UNL     1       8.157   6.908  18.644  0.00  0.00    +0.000 NA
ATOM     24  C   UNL     1       7.721   7.867  17.774  0.00  0.00    +0.000 A 
ATOM     25  N   UNL     1       6.983   7.419  16.755  0.00  0.00    +0.000 NA
ENDBRANCH  20  21
ENDBRANCH  19  20
ENDBRANCH  18  19
ENDBRANCH   2  18
TORSDOF 5
ENDMDL
MODEL 8
REMARK VINA RESULT:      -7.2      4.071      5.181
REMARK  Name = 
REMARK  5 active torsions:
REMARK  status: ('A' for Active; 'I' for Inactive)
REMARK    1  A    between atoms: C_2  and  C_3
REMARK    2  A    between atoms: C_3  and  C_4
REMARK    3  A    between atoms: C_4  and  C_5
REMARK    4  A    between atoms: C_5  and  N_6
REMARK    5  A    between atoms: C_15  and  C_16
REMARK                            x       y       z     vdW  Elec       q    Type
REMARK                         _______ _______ _______ _____ _____    ______ ____
ROOT
ATOM      1  O   UNL     1       5.826   4.846  19.856  0.00  0.00    +0.000 OA
ATOM      2  C   UNL     1       5.451   4.239  18.851  0.00  0.00    +0.000 C 
ATOM      3  N   UNL     1       4.426   3.305  18.894  0.00  0.00    +0.000 N 
ATOM      4  C   UNL     1       3.957   2.485  17.779  0.00  0.00    +0.000 C 
ATOM      5  C   UNL     1       2.506   2.804  17.421  0.00  0.00    +0.000 C 
ATOM      6  C   UNL     1       1.595   2.808  18.655  0.00  0.00    +0.000 C 
ATOM      7  C   UNL     1       2.156   3.638  19.825  0.00  0.00    +0.000 C 
ATOM      8  C   UNL     1       3.611   3.231  20.106  0.00  0.00    +0.000 C 
ENDROOT
BRANCH   7   9
ATOM      9  C   UNL     1       2.029   5.130  19.585  0.00  0.00    +0.000 A 
ATOM     10  N   UNL     1       2.348   5.753  18.468  0.00  0.00    +0.000 NA
ATOM     11  C   UNL     1       2.136   7.115  18.600  0.00  0.00    +0.000 A 
ATOM     12  C   UNL     1       2.377   8.094  17.613  0.00  0.00    +0.000 A 
ATOM     13  C   UNL     1       2.115   9.442  17.888  0.00  0.00    +0.000 A 
ATOM     14  C   UNL     1       1.629   9.825  19.134  0.00  0.00    +0.000 A 
ATOM     15  C   UNL     1       1.380   8.874  20.127  0.00  0.00    +0.000 A 
ATOM     16  C   UNL     1       1.636   7.523  19.837  0.00  0.00    +0.000 A 
ATOM     17  S   UNL     1       1.419   6.140  20.837  0.00  0.00    +0.000 S 
ENDBRANCH   7   9
BRANCH   2  18
ATOM     18  C   UNL     1       6.099   4.496  17.500  0.00  0.00    +0.000 C 
BRANCH  18  19
ATOM     19  C   UNL     1       5.966   5.961  17.086  0.00  0.00    +0.000 C 
BRANCH  19  20
ATOM     20  C   UNL     1       5.298   6.098  15.725  0.00  0.00    +0.000 C 
BRANCH  20  21
ATOM     21  N   UNL     1       5.943   5.275  14.724  0.00  0.00    +0.000 N 
ATOM     22  C   UNL     1       5.418   4.218  14.050  0.00  0.00    +0.000 A 
ATOM     23  N   UNL     1       6.316   3.735  13.225  0.00  0.00    +0.000 NA
ATOM     24  C   UNL     1       7.392   4.550  13.435  0.00  0.00    +0.000 A 
ATOM     25  N   UNL     1       7.215   5.503  14.354  0.00  0.00    +0.000 NA
ENDBRANCH  20  21
ENDBRANCH  19  20
ENDBRANCH  18  19
ENDBRANCH   2  18
TORSDOF 5
ENDMDL
MODEL 9
REMARK VINA RESULT:      -7.1      4.012      6.641
REMARK  Name = 
REMARK  5 active torsions:
REMARK  status: ('A' for Active; 'I' for Inactive)
REMARK    1  A    between atoms: C_2  and  C_3
REMARK    2  A    between atoms: C_3  and  C_4
REMARK    3  A    between atoms: C_4  and  C_5
REMARK    4  A    between atoms: C_5  and  N_6
REMARK    5  A    between atoms: C_15  and  C_16
REMARK                            x       y       z     vdW  Elec       q    Type
REMARK                         _______ _______ _______ _____ _____    ______ ____
ROOT
ATOM      1  O   UNL     1       1.326   4.650  17.817  0.00  0.00    +0.000 OA
ATOM      2  C   UNL     1       1.471   4.334  18.999  0.00  0.00    +0.000 C 
ATOM      3  N   UNL     1       1.965   3.092  19.372  0.00  0.00    +0.000 N 
ATOM      4  C   UNL     1       2.109   2.595  20.740  0.00  0.00    +0.000 C 
ATOM      5  C   UNL     1       3.574   2.339  21.091  0.00  0.00    +0.000 C 
ATOM      6  C   UNL     1       4.288   1.507  20.018  0.00  0.00    +0.000 C 
ATOM      7  C   UNL     1       4.062   2.034  18.588  0.00  0.00    +0.000 C 
ATOM      8  C   UNL     1       2.560   2.247  18.338  0.00  0.00    +0.000 C 
ENDROOT
BRANCH   7   9
ATOM      9  C   UNL     1       4.860   3.293  18.306  0.00  0.00    +0.000 A 
ATOM     10  N   UNL     1       5.807   3.786  19.080  0.00  0.00    +0.000 NA
ATOM     11  C   UNL     1       6.306   4.959  18.540  0.00  0.00    +0.000 A 
ATOM     12  C   UNL     1       7.320   5.767  19.098  0.00  0.00    +0.000 A 
ATOM     13  C   UNL     1       7.728   6.932  18.437  0.00  0.00    +0.000 A 
ATOM     14  C   UNL     1       7.132   7.306  17.238  0.00  0.00    +0.000 A 
ATOM     15  C   UNL     1       6.127   6.522  16.663  0.00  0.00    +0.000 A 
ATOM     16  C   UNL     1       5.734   5.349  17.329  0.00  0.00    +0.000 A 
ATOM     17  S   UNL     1       4.550   4.187  16.870  0.00  0.00    +0.000 S 
ENDBRANCH   7   9
BRANCH   2  18
ATOM     18  C   UNL     1       1.117   5.304  20.114  0.00  0.00    +0.000 C 
BRANCH  18  19
ATOM     19  C   UNL     1       2.258   6.284  20.385  0.00  0.00    +0.000 C 
BRANCH  19  20
ATOM     20  C   UNL     1       2.086   7.574  19.595  0.00  0.00    +0.000 C 
BRANCH  20  21
ATOM     21  N   UNL     1       1.421   8.596  20.373  0.00  0.00    +0.000 N 
ATOM     22  C   UNL     1       0.779   9.704  19.919  0.00  0.00    +0.000 A 
ATOM     23  N   UNL     1       0.304  10.384  20.935  0.00  0.00    +0.000 NA
ATOM     24  C   UNL     1       0.688   9.633  22.010  0.00  0.00    +0.000 A 
ATOM     25  N   UNL     1       1.386   8.532  21.716  0.00  0.00    +0.000 NA
ENDBRANCH  20  21
ENDBRANCH  19  20
ENDBRANCH  18  19
ENDBRANCH   2  18
TORSDOF 5
ENDMDL
