MODEL 1
REMARK VINA RESULT:      -6.4      0.000      0.000
REMARK  Name = 
REMARK  10 active torsions:
REMARK  status: ('A' for Active; 'I' for Inactive)
REMARK    1  A    between atoms: C_1  and  C_2
REMARK    2  A    between atoms: C_2  and  C_3
REMARK    3  A    between atoms: C_3  and  C_4
REMARK    4  A    between atoms: C_4  and  C_5
REMARK    5  A    between atoms: C_5  and  C_6
REMARK    6  A    between atoms: C_6  and  C_7
REMARK    7  A    between atoms: C_7  and  N_8
REMARK    8  A    between atoms: N_11  and  N_12
REMARK    9  A    between atoms: C_13  and  C_14
REMARK   10  A    between atoms: C_17  and  N_18
REMARK                            x       y       z     vdW  Elec       q    Type
REMARK                         _______ _______ _______ _____ _____    ______ ____
ROOT
ATOM      1  N   UNL     1       6.072   5.917  16.818  0.00  0.00    +0.000 N 
ATOM      2  C   UNL     1       6.948   6.565  17.658  0.00  0.00    +0.000 C 
ATOM      3  O   UNL     1       7.420   6.024  18.656  0.00  0.00    +0.000 OA
ATOM      4  N   UNL     1       7.242   7.863  17.259  0.00  0.00    +0.000 N 
ATOM      5  H   UNL     1       5.733   6.376  15.986  0.00  0.00    +0.000 HD
ATOM      6  H   UNL     1       6.779   8.287  16.469  0.00  0.00    +0.000 HD
ENDROOT
BRANCH   4   7
ATOM      7  N   UNL     1       8.113   8.581  18.027  0.00  0.00    +0.000 NA
ATOM      8  C   UNL     1       8.353   9.815  17.726  0.00  0.00    +0.000 C 
BRANCH   8   9
ATOM      9  C   UNL     1       9.261  10.554  18.566  0.00  0.00    +0.000 A 
ATOM     10  C   UNL     1       9.435  10.537  19.941  0.00  0.00    +0.000 A 
ATOM     11  C   UNL     1      10.434  11.488  20.251  0.00  0.00    +0.000 A 
ATOM     12  C   UNL     1      10.810  12.023  19.043  0.00  0.00    +0.000 A 
ATOM     13  O   UNL     1      10.120  11.465  18.005  0.00  0.00    +0.000 OA
BRANCH  12  14
ATOM     14  N   UNL     1      11.759  13.046  18.725  0.00  0.00    +0.000 N 
ATOM     15  O   UNL     1      12.212  13.038  17.574  0.00  0.00    +0.000 OA
ATOM     16  O   UNL     1      12.054  13.851  19.618  0.00  0.00    +0.000 OA
ENDBRANCH  12  14
ENDBRANCH   8   9
ENDBRANCH   4   7
BRANCH   1  17
ATOM     17  C   UNL     1       5.668   4.546  17.071  0.00  0.00    +0.000 C 
BRANCH  17  18
ATOM     18  C   UNL     1       4.470   4.430  18.021  0.00  0.00    +0.000 C 
BRANCH  18  19
ATOM     19  C   UNL     1       3.277   3.719  17.377  0.00  0.00    +0.000 C 
BRANCH  19  20
ATOM     20  C   UNL     1       1.940   4.218  17.935  0.00  0.00    +0.000 C 
BRANCH  20  21
ATOM     21  C   UNL     1       1.330   3.205  18.909  0.00  0.00    +0.000 C 
BRANCH  21  23
ATOM     22  C   UNL     1       1.920   4.838  20.743  0.00  0.00    +0.000 C 
ATOM     23  C   UNL     1       0.872   3.875  20.206  0.00  0.00    +0.000 C 
ENDBRANCH  21  23
ENDBRANCH  20  21
ENDBRANCH  19  20
ENDBRANCH  18  19
ENDBRANCH  17  18
ENDBRANCH   1  17
TORSDOF 9
ENDMDL
MODEL 2
REMARK VINA RESULT:      -6.4      0.848      1.082
REMARK  Name = 
REMARK  10 active torsions:
REMARK  status: ('A' for Active; 'I' for Inactive)
REMARK    1  A    between atoms: C_1  and  C_2
REMARK    2  A    between atoms: C_2  and  C_3
REMARK    3  A    between atoms: C_3  and  C_4
REMARK    4  A    between atoms: C_4  and  C_5
REMARK    5  A    between atoms: C_5  and  C_6
REMARK    6  A    between atoms: C_6  and  C_7
REMARK    7  A    between atoms: C_7  and  N_8
REMARK    8  A    between atoms: N_11  and  N_12
REMARK    9  A    between atoms: C_13  and  C_14
REMARK   10  A    between atoms: C_17  and  N_18
REMARK                            x       y       z     vdW  Elec       q    Type
REMARK                         _______ _______ _______ _____ _____    ______ ____
ROOT
ATOM      1  N   UNL     1       6.141   5.624  17.365  0.00  0.00    +0.000 N 
ATOM      2  C   UNL     1       7.164   6.379  17.894  0.00  0.00    +0.000 C 
ATOM      3  O   UNL     1       7.876   5.967  18.807  0.00  0.00    +0.000 OA
ATOM      4  N   UNL     1       7.304   7.622  17.291  0.00  0.00    +0.000 N 
ATOM      5  H   UNL     1       5.600   5.975  16.590  0.00  0.00    +0.000 HD
ATOM      6  H   UNL     1       6.653   7.943  16.590  0.00  0.00    +0.000 HD
ENDROOT
BRANCH   4   7
ATOM      7  N   UNL     1       8.302   8.437  17.744  0.00  0.00    +0.000 NA
ATOM      8  C   UNL     1       8.035   9.673  18.016  0.00  0.00    +0.000 C 
BRANCH   8   9
ATOM      9  C   UNL     1       9.102  10.504  18.511  0.00  0.00    +0.000 A 
ATOM     10  C   UNL     1       9.733  10.523  19.745  0.00  0.00    +0.000 A 
ATOM     11  C   UNL     1      10.687  11.566  19.715  0.00  0.00    +0.000 A 
ATOM     12  C   UNL     1      10.580  12.116  18.461  0.00  0.00    +0.000 A 
ATOM     13  O   UNL     1       9.633  11.482  17.708  0.00  0.00    +0.000 OA
BRANCH  12  14
ATOM     14  N   UNL     1      11.267  13.217  17.858  0.00  0.00    +0.000 N 
ATOM     15  O   UNL     1      10.741  14.329  17.983  0.00  0.00    +0.000 OA
ATOM     16  O   UNL     1      12.324  12.975  17.260  0.00  0.00    +0.000 OA
ENDBRANCH  12  14
ENDBRANCH   8   9
ENDBRANCH   4   7
BRANCH   1  17
ATOM     17  C   UNL     1       5.862   4.289  17.861  0.00  0.00    +0.000 C 
BRANCH  17  18
ATOM     18  C   UNL     1       4.410   3.849  17.638  0.00  0.00    +0.000 C 
BRANCH  18  19
ATOM     19  C   UNL     1       3.445   5.034  17.549  0.00  0.00    +0.000 C 
BRANCH  19  20
ATOM     20  C   UNL     1       2.035   4.664  18.018  0.00  0.00    +0.000 C 
BRANCH  20  21
ATOM     21  C   UNL     1       1.859   4.933  19.516  0.00  0.00    +0.000 C 
BRANCH  21  23
ATOM     22  C   UNL     1       2.019   2.897  21.002  0.00  0.00    +0.000 C 
ATOM     23  C   UNL     1       1.091   3.803  20.207  0.00  0.00    +0.000 C 
ENDBRANCH  21  23
ENDBRANCH  20  21
ENDBRANCH  19  20
ENDBRANCH  18  19
ENDBRANCH  17  18
ENDBRANCH   1  17
TORSDOF 9
ENDMDL
MODEL 3
REMARK VINA RESULT:      -6.3      6.050      7.187
REMARK  Name = 
REMARK  10 active torsions:
REMARK  status: ('A' for Active; 'I' for Inactive)
REMARK    1  A    between atoms: C_1  and  C_2
REMARK    2  A    between atoms: C_2  and  C_3
REMARK    3  A    between atoms: C_3  and  C_4
REMARK    4  A    between atoms: C_4  and  C_5
REMARK    5  A    between atoms: C_5  and  C_6
REMARK    6  A    between atoms: C_6  and  C_7
REMARK    7  A    between atoms: C_7  and  N_8
REMARK    8  A    between atoms: N_11  and  N_12
REMARK    9  A    between atoms: C_13  and  C_14
REMARK   10  A    between atoms: C_17  and  N_18
REMARK                            x       y       z     vdW  Elec       q    Type
REMARK                         _______ _______ _______ _____ _____    ______ ____
ROOT
ATOM      1  N   UNL     1       3.012   2.454  19.093  0.00  0.00    +0.000 N 
ATOM      2  C   UNL     1       3.253   2.891  17.811  0.00  0.00    +0.000 C 
ATOM      3  O   UNL     1       2.354   3.023  16.984  0.00  0.00    +0.000 OA
ATOM      4  N   UNL     1       4.591   3.170  17.563  0.00  0.00    +0.000 N 
ATOM      5  H   UNL     1       3.767   2.394  19.760  0.00  0.00    +0.000 HD
ATOM      6  H   UNL     1       5.304   2.984  18.253  0.00  0.00    +0.000 HD
ENDROOT
BRANCH   4   7
ATOM      7  N   UNL     1       4.925   3.622  16.318  0.00  0.00    +0.000 NA
ATOM      8  C   UNL     1       6.123   3.427  15.874  0.00  0.00    +0.000 C 
BRANCH   8   9
ATOM      9  C   UNL     1       6.441   3.896  14.549  0.00  0.00    +0.000 A 
ATOM     10  C   UNL     1       5.965   3.493  13.311  0.00  0.00    +0.000 A 
ATOM     11  C   UNL     1       6.640   4.258  12.332  0.00  0.00    +0.000 A 
ATOM     12  C   UNL     1       7.483   5.082  13.035  0.00  0.00    +0.000 A 
ATOM     13  O   UNL     1       7.373   4.890  14.383  0.00  0.00    +0.000 OA
BRANCH  12  14
ATOM     14  N   UNL     1       8.431   6.056  12.588  0.00  0.00    +0.000 N 
ATOM     15  O   UNL     1       9.411   6.247  13.320  0.00  0.00    +0.000 OA
ATOM     16  O   UNL     1       8.201   6.630  11.516  0.00  0.00    +0.000 OA
ENDBRANCH  12  14
ENDBRANCH   8   9
ENDBRANCH   4   7
BRANCH   1  17
ATOM     17  C   UNL     1       1.667   2.134  19.534  0.00  0.00    +0.000 C 
BRANCH  17  18
ATOM     18  C   UNL     1       0.866   3.361  19.985  0.00  0.00    +0.000 C 
BRANCH  18  19
ATOM     19  C   UNL     1       1.662   4.265  20.932  0.00  0.00    +0.000 C 
BRANCH  19  20
ATOM     20  C   UNL     1       1.572   5.740  20.529  0.00  0.00    +0.000 C 
BRANCH  20  21
ATOM     21  C   UNL     1       2.827   6.186  19.771  0.00  0.00    +0.000 C 
BRANCH  21  23
ATOM     22  C   UNL     1       2.292   7.945  18.038  0.00  0.00    +0.000 C 
ATOM     23  C   UNL     1       2.526   6.464  18.296  0.00  0.00    +0.000 C 
ENDBRANCH  21  23
ENDBRANCH  20  21
ENDBRANCH  19  20
ENDBRANCH  18  19
ENDBRANCH  17  18
ENDBRANCH   1  17
TORSDOF 9
ENDMDL
MODEL 4
REMARK VINA RESULT:      -6.3      5.561      8.199
REMARK  Name = 
REMARK  10 active torsions:
REMARK  status: ('A' for Active; 'I' for Inactive)
REMARK    1  A    between atoms: C_1  and  C_2
REMARK    2  A    between atoms: C_2  and  C_3
REMARK    3  A    between atoms: C_3  and  C_4
REMARK    4  A    between atoms: C_4  and  C_5
REMARK    5  A    between atoms: C_5  and  C_6
REMARK    6  A    between atoms: C_6  and  C_7
REMARK    7  A    between atoms: C_7  and  N_8
REMARK    8  A    between atoms: N_11  and  N_12
REMARK    9  A    between atoms: C_13  and  C_14
REMARK   10  A    between atoms: C_17  and  N_18
REMARK                            x       y       z     vdW  Elec       q    Type
REMARK                         _______ _______ _______ _____ _____    ______ ____
ROOT
ATOM      1  N   UNL     1       4.199   5.708  17.065  0.00  0.00    +0.000 N 
ATOM      2  C   UNL     1       3.384   6.249  18.033  0.00  0.00    +0.000 C 
ATOM      3  O   UNL     1       3.032   5.612  19.024  0.00  0.00    +0.000 OA
ATOM      4  N   UNL     1       3.019   7.565  17.779  0.00  0.00    +0.000 N 
ATOM      5  H   UNL     1       4.501   6.270  16.284  0.00  0.00    +0.000 HD
ATOM      6  H   UNL     1       3.277   8.025  16.919  0.00  0.00    +0.000 HD
ENDROOT
BRANCH   4   7
ATOM      7  N   UNL     1       2.218   8.188  18.692  0.00  0.00    +0.000 NA
ATOM      8  C   UNL     1       1.560   9.245  18.341  0.00  0.00    +0.000 C 
BRANCH   8   9
ATOM      9  C   UNL     1       0.707   9.870  19.320  0.00  0.00    +0.000 A 
ATOM     10  C   UNL     1      -0.311  10.798  19.169  0.00  0.00    +0.000 A 
ATOM     11  C   UNL     1      -0.795  11.106  20.461  0.00  0.00    +0.000 A 
ATOM     12  C   UNL     1      -0.042  10.343  21.319  0.00  0.00    +0.000 A 
ATOM     13  O   UNL     1       0.868   9.576  20.651  0.00  0.00    +0.000 OA
BRANCH  12  14
ATOM     14  N   UNL     1      -0.056  10.249  22.747  0.00  0.00    +0.000 N 
ATOM     15  O   UNL     1       0.870   9.611  23.265  0.00  0.00    +0.000 OA
ATOM     16  O   UNL     1      -0.984  10.803  23.350  0.00  0.00    +0.000 OA
ENDBRANCH  12  14
ENDBRANCH   8   9
ENDBRANCH   4   7
BRANCH   1  17
ATOM     17  C   UNL     1       4.694   4.348  17.177  0.00  0.00    +0.000 C 
BRANCH  17  18
ATOM     18  C   UNL     1       5.855   4.043  16.224  0.00  0.00    +0.000 C 
BRANCH  18  19
ATOM     19  C   UNL     1       7.146   4.763  16.623  0.00  0.00    +0.000 C 
BRANCH  19  20
ATOM     20  C   UNL     1       7.291   4.885  18.143  0.00  0.00    +0.000 C 
BRANCH  20  21
ATOM     21  C   UNL     1       7.851   6.255  18.540  0.00  0.00    +0.000 C 
BRANCH  21  23
ATOM     22  C   UNL     1       8.103   8.675  17.861  0.00  0.00    +0.000 C 
ATOM     23  C   UNL     1       7.435   7.344  17.548  0.00  0.00    +0.000 C 
ENDBRANCH  21  23
ENDBRANCH  20  21
ENDBRANCH  19  20
ENDBRANCH  18  19
ENDBRANCH  17  18
ENDBRANCH   1  17
TORSDOF 9
ENDMDL
MODEL 5
REMARK VINA RESULT:      -6.3      2.004      2.536
REMARK  Name = 
REMARK  10 active torsions:
REMARK  status: ('A' for Active; 'I' for Inactive)
REMARK    1  A    between atoms: C_1  and  C_2
REMARK    2  A    between atoms: C_2  and  C_3
REMARK    3  A    between atoms: C_3  and  C_4
REMARK    4  A    between atoms: C_4  and  C_5
REMARK    5  A    between atoms: C_5  and  C_6
REMARK    6  A    between atoms: C_6  and  C_7
REMARK    7  A    between atoms: C_7  and  N_8
REMARK    8  A    between atoms: N_11  and  N_12
REMARK    9  A    between atoms: C_13  and  C_14
REMARK   10  A    between atoms: C_17  and  N_18
REMARK                            x       y       z     vdW  Elec       q    Type
REMARK                         _______ _______ _______ _____ _____    ______ ____
ROOT
ATOM      1  N   UNL     1       7.482   5.824  18.474  0.00  0.00    +0.000 N 
ATOM      2  C   UNL     1       7.755   7.035  17.880  0.00  0.00    +0.000 C 
ATOM      3  O   UNL     1       7.510   7.252  16.695  0.00  0.00    +0.000 OA
ATOM      4  N   UNL     1       8.313   7.965  18.747  0.00  0.00    +0.000 N 
ATOM      5  H   UNL     1       7.659   5.690  19.458  0.00  0.00    +0.000 HD
ATOM      6  H   UNL     1       8.557   7.720  19.695  0.00  0.00    +0.000 HD
ENDROOT
BRANCH   4   7
ATOM      7  N   UNL     1       8.608   9.201  18.247  0.00  0.00    +0.000 NA
ATOM      8  C   UNL     1       9.322  10.016  18.953  0.00  0.00    +0.000 C 
BRANCH   8   9
ATOM      9  C   UNL     1       9.634  11.305  18.391  0.00  0.00    +0.000 A 
ATOM     10  C   UNL     1      10.750  11.740  17.694  0.00  0.00    +0.000 A 
ATOM     11  C   UNL     1      10.560  13.112  17.407  0.00  0.00    +0.000 A 
ATOM     12  C   UNL     1       9.336  13.426  17.946  0.00  0.00    +0.000 A 
ATOM     13  O   UNL     1       8.750  12.344  18.539  0.00  0.00    +0.000 OA
BRANCH  12  14
ATOM     14  N   UNL     1       8.624  14.666  17.995  0.00  0.00    +0.000 N 
ATOM     15  O   UNL     1       9.287  15.690  17.786  0.00  0.00    +0.000 OA
ATOM     16  O   UNL     1       7.412  14.622  18.243  0.00  0.00    +0.000 OA
ENDBRANCH  12  14
ENDBRANCH   8   9
ENDBRANCH   4   7
BRANCH   1  17
ATOM     17  C   UNL     1       6.878   4.739  17.721  0.00  0.00    +0.000 C 
BRANCH  17  18
ATOM     18  C   UNL     1       5.502   4.324  18.253  0.00  0.00    +0.000 C 
BRANCH  18  19
ATOM     19  C   UNL     1       4.948   5.311  19.284  0.00  0.00    +0.000 C 
BRANCH  19  20
ATOM     20  C   UNL     1       3.420   5.249  19.378  0.00  0.00    +0.000 C 
BRANCH  20  21
ATOM     21  C   UNL     1       2.772   5.411  17.999  0.00  0.00    +0.000 C 
BRANCH  21  23
ATOM     22  C   UNL     1       1.362   3.585  19.028  0.00  0.00    +0.000 C 
ATOM     23  C   UNL     1       1.686   4.360  17.759  0.00  0.00    +0.000 C 
ENDBRANCH  21  23
ENDBRANCH  20  21
ENDBRANCH  19  20
ENDBRANCH  18  19
ENDBRANCH  17  18
ENDBRANCH   1  17
TORSDOF 9
ENDMDL
MODEL 6
REMARK VINA RESULT:      -6.2      2.983      4.358
REMARK  Name = 
REMARK  10 active torsions:
REMARK  status: ('A' for Active; 'I' for Inactive)
REMARK    1  A    between atoms: C_1  and  C_2
REMARK    2  A    between atoms: C_2  and  C_3
REMARK    3  A    between atoms: C_3  and  C_4
REMARK    4  A    between atoms: C_4  and  C_5
REMARK    5  A    between atoms: C_5  and  C_6
REMARK    6  A    between atoms: C_6  and  C_7
REMARK    7  A    between atoms: C_7  and  N_8
REMARK    8  A    between atoms: N_11  and  N_12
REMARK    9  A    between atoms: C_13  and  C_14
REMARK   10  A    between atoms: C_17  and  N_18
REMARK                            x       y       z     vdW  Elec       q    Type
REMARK                         _______ _______ _______ _____ _____    ______ ____
ROOT
ATOM      1  N   UNL     1       6.647   6.238  16.785  0.00  0.00    +0.000 N 
ATOM      2  C   UNL     1       7.443   6.889  17.700  0.00  0.00    +0.000 C 
ATOM      3  O   UNL     1       7.892   6.326  18.695  0.00  0.00    +0.000 OA
ATOM      4  N   UNL     1       7.686   8.218  17.376  0.00  0.00    +0.000 N 
ATOM      5  H   UNL     1       6.326   6.719  15.958  0.00  0.00    +0.000 HD
ATOM      6  H   UNL     1       7.242   8.656  16.583  0.00  0.00    +0.000 HD
ENDROOT
BRANCH   4   7
ATOM      7  N   UNL     1       8.477   8.942  18.222  0.00  0.00    +0.000 NA
ATOM      8  C   UNL     1       8.675  10.197  17.985  0.00  0.00    +0.000 C 
BRANCH   8   9
ATOM      9  C   UNL     1       9.497  10.941  18.905  0.00  0.00    +0.000 A 
ATOM     10  C   UNL     1      10.869  11.134  18.937  0.00  0.00    +0.000 A 
ATOM     11  C   UNL     1      11.158  11.915  20.080  0.00  0.00    +0.000 A 
ATOM     12  C   UNL     1       9.942  12.152  20.672  0.00  0.00    +0.000 A 
ATOM     13  O   UNL     1       8.917  11.581  19.972  0.00  0.00    +0.000 OA
BRANCH  12  14
ATOM     14  N   UNL     1       9.604  12.859  21.868  0.00  0.00    +0.000 N 
ATOM     15  O   UNL     1       9.975  14.038  21.935  0.00  0.00    +0.000 OA
ATOM     16  O   UNL     1       8.975  12.245  22.739  0.00  0.00    +0.000 OA
ENDBRANCH  12  14
ENDBRANCH   8   9
ENDBRANCH   4   7
BRANCH   1  17
ATOM     17  C   UNL     1       6.305   4.837  16.953  0.00  0.00    +0.000 C 
BRANCH  17  18
ATOM     18  C   UNL     1       5.507   4.262  15.778  0.00  0.00    +0.000 C 
BRANCH  18  19
ATOM     19  C   UNL     1       5.998   4.781  14.424  0.00  0.00    +0.000 C 
BRANCH  19  20
ATOM     20  C   UNL     1       6.324   3.642  13.454  0.00  0.00    +0.000 C 
BRANCH  20  21
ATOM     21  C   UNL     1       5.735   3.908  12.065  0.00  0.00    +0.000 C 
BRANCH  21  23
ATOM     22  C   UNL     1       3.631   3.496  10.728  0.00  0.00    +0.000 C 
ATOM     23  C   UNL     1       4.623   2.912  11.723  0.00  0.00    +0.000 C 
ENDBRANCH  21  23
ENDBRANCH  20  21
ENDBRANCH  19  20
ENDBRANCH  18  19
ENDBRANCH  17  18
ENDBRANCH   1  17
TORSDOF 9
ENDMDL
MODEL 7
REMARK VINA RESULT:      -6.2      5.919      8.339
REMARK  Name = 
REMARK  10 active torsions:
REMARK  status: ('A' for Active; 'I' for Inactive)
REMARK    1  A    between atoms: C_1  and  C_2
REMARK    2  A    between atoms: C_2  and  C_3
REMARK    3  A    between atoms: C_3  and  C_4
REMARK    4  A    between atoms: C_4  and  C_5
REMARK    5  A    between atoms: C_5  and  C_6
REMARK    6  A    between atoms: C_6  and  C_7
REMARK    7  A    between atoms: C_7  and  N_8
REMARK    8  A    between atoms: N_11  and  N_12
REMARK    9  A    between atoms: C_13  and  C_14
REMARK   10  A    between atoms: C_17  and  N_18
REMARK                            x       y       z     vdW  Elec       q    Type
REMARK                         _______ _______ _______ _____ _____    ______ ____
ROOT
ATOM      1  N   UNL     1       0.987  10.125  19.260  0.00  0.00    +0.000 N 
ATOM      2  C   UNL     1       1.697   9.286  18.430  0.00  0.00    +0.000 C 
ATOM      3  O   UNL     1       2.206   9.679  17.383  0.00  0.00    +0.000 OA
ATOM      4  N   UNL     1       1.779   7.982  18.900  0.00  0.00    +0.000 N 
ATOM      5  H   UNL     1       0.614   9.780  20.131  0.00  0.00    +0.000 HD
ATOM      6  H   UNL     1       1.288   7.690  19.732  0.00  0.00    +0.000 HD
ENDROOT
BRANCH   4   7
ATOM      7  N   UNL     1       2.474   7.080  18.146  0.00  0.00    +0.000 NA
ATOM      8  C   UNL     1       3.522   6.511  18.646  0.00  0.00    +0.000 C 
BRANCH   8   9
ATOM      9  C   UNL     1       4.224   5.549  17.836  0.00  0.00    +0.000 A 
ATOM     10  C   UNL     1       3.784   4.375  17.245  0.00  0.00    +0.000 A 
ATOM     11  C   UNL     1       4.894   3.790  16.593  0.00  0.00    +0.000 A 
ATOM     12  C   UNL     1       5.941   4.648  16.824  0.00  0.00    +0.000 A 
ATOM     13  O   UNL     1       5.558   5.728  17.566  0.00  0.00    +0.000 OA
BRANCH  12  14
ATOM     14  N   UNL     1       7.317   4.574  16.438  0.00  0.00    +0.000 N 
ATOM     15  O   UNL     1       8.113   4.198  17.307  0.00  0.00    +0.000 OA
ATOM     16  O   UNL     1       7.604   4.891  15.276  0.00  0.00    +0.000 OA
ENDBRANCH  12  14
ENDBRANCH   8   9
ENDBRANCH   4   7
BRANCH   1  17
ATOM     17  C   UNL     1       0.816  11.530  18.936  0.00  0.00    +0.000 C 
BRANCH  17  18
ATOM     18  C   UNL     1      -0.614  11.886  18.515  0.00  0.00    +0.000 C 
BRANCH  18  19
ATOM     19  C   UNL     1      -1.604  10.747  18.774  0.00  0.00    +0.000 C 
BRANCH  19  20
ATOM     20  C   UNL     1      -2.154  10.156  17.473  0.00  0.00    +0.000 C 
BRANCH  20  21
ATOM     21  C   UNL     1      -2.858  11.225  16.631  0.00  0.00    +0.000 C 
BRANCH  21  23
ATOM     22  C   UNL     1      -3.034  10.048  14.402  0.00  0.00    +0.000 C 
ATOM     23  C   UNL     1      -3.798  10.601  15.597  0.00  0.00    +0.000 C 
ENDBRANCH  21  23
ENDBRANCH  20  21
ENDBRANCH  19  20
ENDBRANCH  18  19
ENDBRANCH  17  18
ENDBRANCH   1  17
TORSDOF 9
ENDMDL
MODEL 8
REMARK VINA RESULT:      -6.2      6.109      7.920
REMARK  Name = 
REMARK  10 active torsions:
REMARK  status: ('A' for Active; 'I' for Inactive)
REMARK    1  A    between atoms: C_1  and  C_2
REMARK    2  A    between atoms: C_2  and  C_3
REMARK    3  A    between atoms: C_3  and  C_4
REMARK    4  A    between atoms: C_4  and  C_5
REMARK    5  A    between atoms: C_5  and  C_6
REMARK    6  A    between atoms: C_6  and  C_7
REMARK    7  A    between atoms: C_7  and  N_8
REMARK    8  A    between atoms: N_11  and  N_12
REMARK    9  A    between atoms: C_13  and  C_14
REMARK   10  A    between atoms: C_17  and  N_18
REMARK                            x       y       z     vdW  Elec       q    Type
REMARK                         _______ _______ _______ _____ _____    ______ ____
ROOT
ATOM      1  N   UNL     1       5.568   3.865  16.824  0.00  0.00    +0.000 N 
ATOM      2  C   UNL     1       5.079   4.977  17.470  0.00  0.00    +0.000 C 
ATOM      3  O   UNL     1       5.367   6.119  17.118  0.00  0.00    +0.000 OA
ATOM      4  N   UNL     1       4.236   4.674  18.531  0.00  0.00    +0.000 N 
ATOM      5  H   UNL     1       5.281   2.942  17.113  0.00  0.00    +0.000 HD
ATOM      6  H   UNL     1       4.080   3.722  18.825  0.00  0.00    +0.000 HD
ENDROOT
BRANCH   4   7
ATOM      7  N   UNL     1       3.693   5.717  19.227  0.00  0.00    +0.000 NA
ATOM      8  C   UNL     1       2.554   6.202  18.853  0.00  0.00    +0.000 C 
BRANCH   8   9
ATOM      9  C   UNL     1       1.995   7.289  19.618  0.00  0.00    +0.000 A 
ATOM     10  C   UNL     1       1.640   7.362  20.955  0.00  0.00    +0.000 A 
ATOM     11  C   UNL     1       1.102   8.651  21.178  0.00  0.00    +0.000 A 
ATOM     12  C   UNL     1       1.168   9.284  19.961  0.00  0.00    +0.000 A 
ATOM     13  O   UNL     1       1.716   8.483  19.001  0.00  0.00    +0.000 OA
BRANCH  12  14
ATOM     14  N   UNL     1       0.749  10.592  19.562  0.00  0.00    +0.000 N 
ATOM     15  O   UNL     1       1.469  11.534  19.916  0.00  0.00    +0.000 OA
ATOM     16  O   UNL     1      -0.294  10.684  18.901  0.00  0.00    +0.000 OA
ENDBRANCH  12  14
ENDBRANCH   8   9
ENDBRANCH   4   7
BRANCH   1  17
ATOM     17  C   UNL     1       6.450   3.992  15.678  0.00  0.00    +0.000 C 
BRANCH  17  18
ATOM     18  C   UNL     1       5.703   4.217  14.358  0.00  0.00    +0.000 C 
BRANCH  18  19
ATOM     19  C   UNL     1       6.571   3.912  13.133  0.00  0.00    +0.000 C 
BRANCH  19  20
ATOM     20  C   UNL     1       5.816   3.089  12.084  0.00  0.00    +0.000 C 
BRANCH  20  21
ATOM     21  C   UNL     1       4.346   3.512  11.997  0.00  0.00    +0.000 C 
BRANCH  21  23
ATOM     22  C   UNL     1       3.168   4.022   9.822  0.00  0.00    +0.000 C 
ATOM     23  C   UNL     1       3.664   2.929  10.758  0.00  0.00    +0.000 C 
ENDBRANCH  21  23
ENDBRANCH  20  21
ENDBRANCH  19  20
ENDBRANCH  18  19
ENDBRANCH  17  18
ENDBRANCH   1  17
TORSDOF 9
ENDMDL
MODEL 9
REMARK VINA RESULT:      -6.2      0.793      1.201
REMARK  Name = 
REMARK  10 active torsions:
REMARK  status: ('A' for Active; 'I' for Inactive)
REMARK    1  A    between atoms: C_1  and  C_2
REMARK    2  A    between atoms: C_2  and  C_3
REMARK    3  A    between atoms: C_3  and  C_4
REMARK    4  A    between atoms: C_4  and  C_5
REMARK    5  A    between atoms: C_5  and  C_6
REMARK    6  A    between atoms: C_6  and  C_7
REMARK    7  A    between atoms: C_7  and  N_8
REMARK    8  A    between atoms: N_11  and  N_12
REMARK    9  A    between atoms: C_13  and  C_14
REMARK   10  A    between atoms: C_17  and  N_18
REMARK                            x       y       z     vdW  Elec       q    Type
REMARK                         _______ _______ _______ _____ _____    ______ ____
ROOT
ATOM      1  N   UNL     1       6.113   5.825  16.574  0.00  0.00    +0.000 N 
ATOM      2  C   UNL     1       7.115   6.464  17.269  0.00  0.00    +0.000 C 
ATOM      3  O   UNL     1       7.953   5.847  17.923  0.00  0.00    +0.000 OA
ATOM      4  N   UNL     1       7.080   7.847  17.146  0.00  0.00    +0.000 N 
ATOM      5  H   UNL     1       5.463   6.358  16.016  0.00  0.00    +0.000 HD
ATOM      6  H   UNL     1       6.334   8.312  16.653  0.00  0.00    +0.000 HD
ENDROOT
BRANCH   4   7
ATOM      7  N   UNL     1       8.044   8.565  17.794  0.00  0.00    +0.000 NA
ATOM      8  C   UNL     1       8.045   9.854  17.698  0.00  0.00    +0.000 C 
BRANCH   8   9
ATOM      9  C   UNL     1       9.062  10.587  18.409  0.00  0.00    +0.000 A 
ATOM     10  C   UNL     1       9.549  10.436  19.697  0.00  0.00    +0.000 A 
ATOM     11  C   UNL     1      10.516  11.447  19.904  0.00  0.00    +0.000 A 
ATOM     12  C   UNL     1      10.560  12.149  18.725  0.00  0.00    +0.000 A 
ATOM     13  O   UNL     1       9.695  11.641  17.798  0.00  0.00    +0.000 OA
BRANCH  12  14
ATOM     14  N   UNL     1      11.327  13.295  18.344  0.00  0.00    +0.000 N 
ATOM     15  O   UNL     1      10.918  14.391  18.749  0.00  0.00    +0.000 OA
ATOM     16  O   UNL     1      12.330  13.107  17.644  0.00  0.00    +0.000 OA
ENDBRANCH  12  14
ENDBRANCH   8   9
ENDBRANCH   4   7
BRANCH   1  17
ATOM     17  C   UNL     1       6.006   4.378  16.574  0.00  0.00    +0.000 C 
BRANCH  17  18
ATOM     18  C   UNL     1       4.592   3.872  16.265  0.00  0.00    +0.000 C 
BRANCH  18  19
ATOM     19  C   UNL     1       3.628   4.074  17.437  0.00  0.00    +0.000 C 
BRANCH  19  20
ATOM     20  C   UNL     1       3.637   2.884  18.402  0.00  0.00    +0.000 C 
BRANCH  20  21
ATOM     21  C   UNL     1       2.327   2.093  18.320  0.00  0.00    +0.000 C 
BRANCH  21  23
ATOM     22  C   UNL     1       1.006   3.364  20.057  0.00  0.00    +0.000 C 
ATOM     23  C   UNL     1       1.112   2.983  18.587  0.00  0.00    +0.000 C 
ENDBRANCH  21  23
ENDBRANCH  20  21
ENDBRANCH  19  20
ENDBRANCH  18  19
ENDBRANCH  17  18
ENDBRANCH   1  17
TORSDOF 9
ENDMDL
