MODEL 1
REMARK VINA RESULT:      -7.7      0.000      0.000
REMARK  Name = 
REMARK  4 active torsions:
REMARK  status: ('A' for Active; 'I' for Inactive)
REMARK    1  A    between atoms: C_1  and  C_2
REMARK    2  A    between atoms: C_3  and  C_4
REMARK    3  A    between atoms: C_9  and  C_10
REMARK    4  A    between atoms: C_10  and  C_11
REMARK                            x       y       z     vdW  Elec       q    Type
REMARK                         _______ _______ _______ _____ _____    ______ ____
ROOT
ATOM      1  C   UNL     1       6.479   8.412  16.598  0.00  0.00    +0.000 C 
ATOM      2  C   UNL     1       7.232   7.562  17.560  0.00  0.00    +0.000 A 
ATOM      3  C   UNL     1       7.116   6.211  17.842  0.00  0.00    +0.000 A 
ATOM      4  C   UNL     1       8.054   5.983  18.868  0.00  0.00    +0.000 A 
ATOM      5  N   UNL     1       8.690   7.088  19.243  0.00  0.00    +0.000 NA
ATOM      6  N   UNL     1       8.188   8.061  18.426  0.00  0.00    +0.000 N 
ATOM      7  C   UNL     1       8.631   9.392  18.581  0.00  0.00    +0.000 A 
ATOM      8  N   UNL     1       8.399  10.331  17.720  0.00  0.00    +0.000 NA
ATOM      9  N   UNL     1       8.832  11.540  18.135  0.00  0.00    +0.000 N 
ATOM     10  C   UNL     1       8.942  12.668  17.373  0.00  0.00    +0.000 A 
ATOM     11  C   UNL     1       9.306  13.710  18.201  0.00  0.00    +0.000 A 
ATOM     12  C   UNL     1       9.436  13.188  19.512  0.00  0.00    +0.000 A 
ATOM     13  C   UNL     1       9.210  11.838  19.416  0.00  0.00    +0.000 A 
ATOM     14  C   UNL     1       9.283  10.779  20.365  0.00  0.00    +0.000 A 
ATOM     15  O   UNL     1       9.245  10.925  21.583  0.00  0.00    +0.000 OA
ATOM     16  N   UNL     1       9.303   9.545  19.775  0.00  0.00    +0.000 N 
ATOM     17  H   UNL     1      10.282   9.268  19.633  0.00  0.00    +0.000 HD
ENDROOT
BRANCH   3  18
ATOM     18  C   UNL     1       6.237   5.257  17.191  0.00  0.00    +0.000 C 
ATOM     19  O   UNL     1       6.489   4.854  16.060  0.00  0.00    +0.000 OA
ATOM     20  N   UNL     1       5.131   4.806  17.913  0.00  0.00    +0.000 N 
ATOM     21  C   UNL     1       4.466   3.584  17.476  0.00  0.00    +0.000 C 
ATOM     22  C   UNL     1       2.973   3.803  17.278  0.00  0.00    +0.000 C 
ATOM     23  C   UNL     1       2.297   4.362  18.545  0.00  0.00    +0.000 C 
ATOM     24  C   UNL     1       3.039   5.646  18.955  0.00  0.00    +0.000 C 
ATOM     25  C   UNL     1       4.554   5.498  19.067  0.00  0.00    +0.000 C 
BRANCH  23  26
ATOM     26  C   UNL     1       2.040   3.293  19.631  0.00  0.00    +0.000 C 
ATOM     27  C   UNL     1       1.687   1.839  19.308  0.00  0.00    +0.000 C 
ATOM     28  C   UNL     1       3.058   2.160  19.803  0.00  0.00    +0.000 C 
BRANCH  26  29
ATOM     29  C   UNL     1       1.418   3.855  20.910  0.00  0.00    +0.000 C 
ATOM     30  F   UNL     1       2.332   4.415  21.733  0.00  0.00    +0.000 F 
ATOM     31  F   UNL     1       0.503   4.807  20.608  0.00  0.00    +0.000 F 
ATOM     32  F   UNL     1       0.787   2.884  21.611  0.00  0.00    +0.000 F 
ENDBRANCH  26  29
ENDBRANCH  23  26
ENDBRANCH   3  18
TORSDOF 3
ENDMDL
MODEL 2
REMARK VINA RESULT:      -7.7      1.009      1.450
REMARK  Name = 
REMARK  4 active torsions:
REMARK  status: ('A' for Active; 'I' for Inactive)
REMARK    1  A    between atoms: C_1  and  C_2
REMARK    2  A    between atoms: C_3  and  C_4
REMARK    3  A    between atoms: C_9  and  C_10
REMARK    4  A    between atoms: C_10  and  C_11
REMARK                            x       y       z     vdW  Elec       q    Type
REMARK                         _______ _______ _______ _____ _____    ______ ____
ROOT
ATOM      1  C   UNL     1       6.401   8.123  16.724  0.00  0.00    +0.000 C 
ATOM      2  C   UNL     1       7.244   7.360  17.684  0.00  0.00    +0.000 A 
ATOM      3  C   UNL     1       7.214   6.019  18.032  0.00  0.00    +0.000 A 
ATOM      4  C   UNL     1       8.210   5.889  19.019  0.00  0.00    +0.000 A 
ATOM      5  N   UNL     1       8.803   7.041  19.312  0.00  0.00    +0.000 NA
ATOM      6  N   UNL     1       8.212   7.947  18.479  0.00  0.00    +0.000 N 
ATOM      7  C   UNL     1       8.590   9.305  18.551  0.00  0.00    +0.000 A 
ATOM      8  N   UNL     1       8.268  10.189  17.661  0.00  0.00    +0.000 NA
ATOM      9  N   UNL     1       8.655  11.437  17.999  0.00  0.00    +0.000 N 
ATOM     10  C   UNL     1       8.668  12.532  17.183  0.00  0.00    +0.000 A 
ATOM     11  C   UNL     1       9.015  13.629  17.944  0.00  0.00    +0.000 A 
ATOM     12  C   UNL     1       9.235  13.177  19.269  0.00  0.00    +0.000 A 
ATOM     13  C   UNL     1       9.077  11.815  19.245  0.00  0.00    +0.000 A 
ATOM     14  C   UNL     1       9.252  10.807  20.236  0.00  0.00    +0.000 A 
ATOM     15  O   UNL     1       9.264  11.009  21.447  0.00  0.00    +0.000 OA
ATOM     16  N   UNL     1       9.309   9.549  19.702  0.00  0.00    +0.000 N 
ATOM     17  H   UNL     1      10.293   9.315  19.524  0.00  0.00    +0.000 HD
ENDROOT
BRANCH   3  18
ATOM     18  C   UNL     1       6.356   4.992  17.469  0.00  0.00    +0.000 C 
ATOM     19  O   UNL     1       6.738   4.321  16.516  0.00  0.00    +0.000 OA
ATOM     20  N   UNL     1       5.115   4.788  18.074  0.00  0.00    +0.000 N 
ATOM     21  C   UNL     1       4.410   3.539  17.813  0.00  0.00    +0.000 C 
ATOM     22  C   UNL     1       2.993   3.792  17.321  0.00  0.00    +0.000 C 
ATOM     23  C   UNL     1       2.189   4.672  18.298  0.00  0.00    +0.000 C 
ATOM     24  C   UNL     1       2.980   5.970  18.533  0.00  0.00    +0.000 C 
ATOM     25  C   UNL     1       4.439   5.764  18.931  0.00  0.00    +0.000 C 
BRANCH  23  26
ATOM     26  C   UNL     1       1.668   3.904  19.534  0.00  0.00    +0.000 C 
ATOM     27  C   UNL     1       2.332   3.987  20.911  0.00  0.00    +0.000 C 
ATOM     28  C   UNL     1       1.040   4.701  20.684  0.00  0.00    +0.000 C 
BRANCH  26  29
ATOM     29  C   UNL     1       1.018   2.563  19.195  0.00  0.00    +0.000 C 
ATOM     30  F   UNL     1       0.236   2.625  18.094  0.00  0.00    +0.000 F 
ATOM     31  F   UNL     1       1.968   1.624  18.968  0.00  0.00    +0.000 F 
ATOM     32  F   UNL     1       0.242   2.126  20.215  0.00  0.00    +0.000 F 
ENDBRANCH  26  29
ENDBRANCH  23  26
ENDBRANCH   3  18
TORSDOF 3
ENDMDL
MODEL 3
REMARK VINA RESULT:      -7.6      6.548     10.476
REMARK  Name = 
REMARK  4 active torsions:
REMARK  status: ('A' for Active; 'I' for Inactive)
REMARK    1  A    between atoms: C_1  and  C_2
REMARK    2  A    between atoms: C_3  and  C_4
REMARK    3  A    between atoms: C_9  and  C_10
REMARK    4  A    between atoms: C_10  and  C_11
REMARK                            x       y       z     vdW  Elec       q    Type
REMARK                         _______ _______ _______ _____ _____    ______ ____
ROOT
ATOM      1  C   UNL     1       0.601   8.518  21.328  0.00  0.00    +0.000 C 
ATOM      2  C   UNL     1       1.139   8.830  19.977  0.00  0.00    +0.000 A 
ATOM      3  C   UNL     1       1.078   9.999  19.236  0.00  0.00    +0.000 A 
ATOM      4  C   UNL     1       1.716   9.682  18.022  0.00  0.00    +0.000 A 
ATOM      5  N   UNL     1       2.119   8.417  17.963  0.00  0.00    +0.000 NA
ATOM      6  N   UNL     1       1.770   7.895  19.176  0.00  0.00    +0.000 N 
ATOM      7  C   UNL     1       2.028   6.533  19.444  0.00  0.00    +0.000 A 
ATOM      8  N   UNL     1       1.953   6.007  20.626  0.00  0.00    +0.000 NA
ATOM      9  N   UNL     1       2.141   4.670  20.615  0.00  0.00    +0.000 N 
ATOM     10  C   UNL     1       2.349   3.871  21.704  0.00  0.00    +0.000 A 
ATOM     11  C   UNL     1       2.373   2.560  21.274  0.00  0.00    +0.000 A 
ATOM     12  C   UNL     1       2.189   2.568  19.869  0.00  0.00    +0.000 A 
ATOM     13  C   UNL     1       2.125   3.886  19.494  0.00  0.00    +0.000 A 
ATOM     14  C   UNL     1       2.035   4.523  18.223  0.00  0.00    +0.000 A 
ATOM     15  O   UNL     1       1.652   3.979  17.191  0.00  0.00    +0.000 OA
ATOM     16  N   UNL     1       2.331   5.857  18.281  0.00  0.00    +0.000 N 
ATOM     17  H   UNL     1       3.332   5.978  18.089  0.00  0.00    +0.000 HD
ENDROOT
BRANCH   3  18
ATOM     18  C   UNL     1       0.503  11.265  19.654  0.00  0.00    +0.000 C 
ATOM     19  O   UNL     1      -0.638  11.310  20.102  0.00  0.00    +0.000 OA
ATOM     20  N   UNL     1       1.308  12.401  19.553  0.00  0.00    +0.000 N 
ATOM     21  C   UNL     1       0.936  13.588  20.313  0.00  0.00    +0.000 C 
ATOM     22  C   UNL     1       0.844  14.815  19.418  0.00  0.00    +0.000 C 
ATOM     23  C   UNL     1       2.149  15.062  18.637  0.00  0.00    +0.000 C 
ATOM     24  C   UNL     1       2.489  13.779  17.858  0.00  0.00    +0.000 C 
ATOM     25  C   UNL     1       2.493  12.505  18.699  0.00  0.00    +0.000 C 
BRANCH  23  26
ATOM     26  C   UNL     1       3.264  15.712  19.487  0.00  0.00    +0.000 C 
ATOM     27  C   UNL     1       3.024  16.284  20.887  0.00  0.00    +0.000 C 
ATOM     28  C   UNL     1       3.747  14.985  20.747  0.00  0.00    +0.000 C 
BRANCH  26  29
ATOM     29  C   UNL     1       4.331  16.426  18.657  0.00  0.00    +0.000 C 
ATOM     30  F   UNL     1       5.301  15.590  18.223  0.00  0.00    +0.000 F 
ATOM     31  F   UNL     1       3.771  17.001  17.566  0.00  0.00    +0.000 F 
ATOM     32  F   UNL     1       4.934  17.402  19.374  0.00  0.00    +0.000 F 
ENDBRANCH  26  29
ENDBRANCH  23  26
ENDBRANCH   3  18
TORSDOF 3
ENDMDL
MODEL 4
REMARK VINA RESULT:      -7.6      6.933      7.888
REMARK  Name = 
REMARK  4 active torsions:
REMARK  status: ('A' for Active; 'I' for Inactive)
REMARK    1  A    between atoms: C_1  and  C_2
REMARK    2  A    between atoms: C_3  and  C_4
REMARK    3  A    between atoms: C_9  and  C_10
REMARK    4  A    between atoms: C_10  and  C_11
REMARK                            x       y       z     vdW  Elec       q    Type
REMARK                         _______ _______ _______ _____ _____    ______ ____
ROOT
ATOM      1  C   UNL     1       1.197  11.675  19.596  0.00  0.00    +0.000 C 
ATOM      2  C   UNL     1       0.829  10.460  20.373  0.00  0.00    +0.000 A 
ATOM      3  C   UNL     1       1.031   9.120  20.089  0.00  0.00    +0.000 A 
ATOM      4  C   UNL     1       0.430   8.436  21.163  0.00  0.00    +0.000 A 
ATOM      5  N   UNL     1      -0.143   9.253  22.041  0.00  0.00    +0.000 NA
ATOM      6  N   UNL     1       0.114  10.504  21.557  0.00  0.00    +0.000 N 
ATOM      7  C   UNL     1      -0.391  11.630  22.243  0.00  0.00    +0.000 A 
ATOM      8  N   UNL     1      -0.013  12.845  22.003  0.00  0.00    +0.000 NA
ATOM      9  N   UNL     1      -0.710  13.758  22.712  0.00  0.00    +0.000 N 
ATOM     10  C   UNL     1      -0.403  15.081  22.855  0.00  0.00    +0.000 A 
ATOM     11  C   UNL     1      -1.429  15.686  23.552  0.00  0.00    +0.000 A 
ATOM     12  C   UNL     1      -2.386  14.685  23.857  0.00  0.00    +0.000 A 
ATOM     13  C   UNL     1      -1.872  13.503  23.388  0.00  0.00    +0.000 A 
ATOM     14  C   UNL     1      -2.325  12.155  23.472  0.00  0.00    +0.000 A 
ATOM     15  O   UNL     1      -3.482  11.818  23.709  0.00  0.00    +0.000 OA
ATOM     16  N   UNL     1      -1.348  11.251  23.160  0.00  0.00    +0.000 N 
ATOM     17  H   UNL     1      -0.873  10.973  24.027  0.00  0.00    +0.000 HD
ENDROOT
BRANCH   3  18
ATOM     18  C   UNL     1       1.736   8.569  18.945  0.00  0.00    +0.000 C 
ATOM     19  O   UNL     1       1.846   9.221  17.912  0.00  0.00    +0.000 OA
ATOM     20  N   UNL     1       2.300   7.300  19.088  0.00  0.00    +0.000 N 
ATOM     21  C   UNL     1       3.330   6.885  18.143  0.00  0.00    +0.000 C 
ATOM     22  C   UNL     1       2.988   5.550  17.498  0.00  0.00    +0.000 C 
ATOM     23  C   UNL     1       2.741   4.447  18.545  0.00  0.00    +0.000 C 
ATOM     24  C   UNL     1       1.649   4.941  19.509  0.00  0.00    +0.000 C 
ATOM     25  C   UNL     1       1.901   6.324  20.104  0.00  0.00    +0.000 C 
BRANCH  23  26
ATOM     26  C   UNL     1       4.040   3.871  19.153  0.00  0.00    +0.000 C 
ATOM     27  C   UNL     1       5.407   3.993  18.477  0.00  0.00    +0.000 C 
ATOM     28  C   UNL     1       5.108   4.844  19.666  0.00  0.00    +0.000 C 
BRANCH  26  29
ATOM     29  C   UNL     1       3.821   2.599  19.974  0.00  0.00    +0.000 C 
ATOM     30  F   UNL     1       3.385   2.855  21.228  0.00  0.00    +0.000 F 
ATOM     31  F   UNL     1       2.900   1.807  19.375  0.00  0.00    +0.000 F 
ATOM     32  F   UNL     1       4.967   1.888  20.084  0.00  0.00    +0.000 F 
ENDBRANCH  26  29
ENDBRANCH  23  26
ENDBRANCH   3  18
TORSDOF 3
ENDMDL
MODEL 5
REMARK VINA RESULT:      -7.5      5.873      6.670
REMARK  Name = 
REMARK  4 active torsions:
REMARK  status: ('A' for Active; 'I' for Inactive)
REMARK    1  A    between atoms: C_1  and  C_2
REMARK    2  A    between atoms: C_3  and  C_4
REMARK    3  A    between atoms: C_9  and  C_10
REMARK    4  A    between atoms: C_10  and  C_11
REMARK                            x       y       z     vdW  Elec       q    Type
REMARK                         _______ _______ _______ _____ _____    ______ ____
ROOT
ATOM      1  C   UNL     1       0.354  10.515  21.275  0.00  0.00    +0.000 C 
ATOM      2  C   UNL     1       1.017  10.132  19.999  0.00  0.00    +0.000 A 
ATOM      3  C   UNL     1       1.527   8.912  19.585  0.00  0.00    +0.000 A 
ATOM      4  C   UNL     1       2.071   9.170  18.312  0.00  0.00    +0.000 A 
ATOM      5  N   UNL     1       1.960  10.444  17.950  0.00  0.00    +0.000 NA
ATOM      6  N   UNL     1       1.299  11.035  18.989  0.00  0.00    +0.000 N 
ATOM      7  C   UNL     1       1.040  12.422  18.947  0.00  0.00    +0.000 A 
ATOM      8  N   UNL     1       0.229  13.026  19.756  0.00  0.00    +0.000 NA
ATOM      9  N   UNL     1       0.225  14.365  19.589  0.00  0.00    +0.000 N 
ATOM     10  C   UNL     1      -0.674  15.247  20.118  0.00  0.00    +0.000 A 
ATOM     11  C   UNL     1      -0.255  16.524  19.807  0.00  0.00    +0.000 A 
ATOM     12  C   UNL     1       0.935  16.409  19.047  0.00  0.00    +0.000 A 
ATOM     13  C   UNL     1       1.156  15.067  18.872  0.00  0.00    +0.000 A 
ATOM     14  C   UNL     1       2.132  14.339  18.133  0.00  0.00    +0.000 A 
ATOM     15  O   UNL     1       3.209  14.793  17.758  0.00  0.00    +0.000 OA
ATOM     16  N   UNL     1       1.790  13.026  17.960  0.00  0.00    +0.000 N 
ATOM     17  H   UNL     1       1.286  12.936  17.070  0.00  0.00    +0.000 HD
ENDROOT
BRANCH   3  18
ATOM     18  C   UNL     1       1.473   7.655  20.310  0.00  0.00    +0.000 C 
ATOM     19  O   UNL     1       0.877   7.581  21.379  0.00  0.00    +0.000 OA
ATOM     20  N   UNL     1       2.092   6.549  19.724  0.00  0.00    +0.000 N 
ATOM     21  C   UNL     1       1.731   5.218  20.197  0.00  0.00    +0.000 C 
ATOM     22  C   UNL     1       2.960   4.418  20.600  0.00  0.00    +0.000 C 
ATOM     23  C   UNL     1       3.991   4.324  19.459  0.00  0.00    +0.000 C 
ATOM     24  C   UNL     1       4.332   5.754  19.005  0.00  0.00    +0.000 C 
ATOM     25  C   UNL     1       3.122   6.627  18.686  0.00  0.00    +0.000 C 
BRANCH  23  26
ATOM     26  C   UNL     1       3.619   3.287  18.375  0.00  0.00    +0.000 C 
ATOM     27  C   UNL     1       2.706   3.607  17.189  0.00  0.00    +0.000 C 
ATOM     28  C   UNL     1       4.174   3.473  16.958  0.00  0.00    +0.000 C 
BRANCH  26  29
ATOM     29  C   UNL     1       3.542   1.853  18.898  0.00  0.00    +0.000 C 
ATOM     30  F   UNL     1       3.831   0.934  17.949  0.00  0.00    +0.000 F 
ATOM     31  F   UNL     1       4.419   1.677  19.916  0.00  0.00    +0.000 F 
ATOM     32  F   UNL     1       2.305   1.570  19.367  0.00  0.00    +0.000 F 
ENDBRANCH  26  29
ENDBRANCH  23  26
ENDBRANCH   3  18
TORSDOF 3
ENDMDL
MODEL 6
REMARK VINA RESULT:      -7.5      6.560     10.461
REMARK  Name = 
REMARK  4 active torsions:
REMARK  status: ('A' for Active; 'I' for Inactive)
REMARK    1  A    between atoms: C_1  and  C_2
REMARK    2  A    between atoms: C_3  and  C_4
REMARK    3  A    between atoms: C_9  and  C_10
REMARK    4  A    between atoms: C_10  and  C_11
REMARK                            x       y       z     vdW  Elec       q    Type
REMARK                         _______ _______ _______ _____ _____    ______ ____
ROOT
ATOM      1  C   UNL     1       0.586   8.603  21.230  0.00  0.00    +0.000 C 
ATOM      2  C   UNL     1       1.132   8.895  19.877  0.00  0.00    +0.000 A 
ATOM      3  C   UNL     1       1.067  10.050  19.115  0.00  0.00    +0.000 A 
ATOM      4  C   UNL     1       1.717   9.716  17.912  0.00  0.00    +0.000 A 
ATOM      5  N   UNL     1       2.131   8.453  17.879  0.00  0.00    +0.000 NA
ATOM      6  N   UNL     1       1.777   7.951  19.099  0.00  0.00    +0.000 N 
ATOM      7  C   UNL     1       2.043   6.596  19.393  0.00  0.00    +0.000 A 
ATOM      8  N   UNL     1       1.963   6.091  20.583  0.00  0.00    +0.000 NA
ATOM      9  N   UNL     1       2.161   4.756  20.599  0.00  0.00    +0.000 N 
ATOM     10  C   UNL     1       2.367   3.978  21.702  0.00  0.00    +0.000 A 
ATOM     11  C   UNL     1       2.405   2.660  21.297  0.00  0.00    +0.000 A 
ATOM     12  C   UNL     1       2.232   2.641  19.890  0.00  0.00    +0.000 A 
ATOM     13  C   UNL     1       2.160   3.952  19.491  0.00  0.00    +0.000 A 
ATOM     14  C   UNL     1       2.075   4.565  18.208  0.00  0.00    +0.000 A 
ATOM     15  O   UNL     1       1.704   3.999  17.184  0.00  0.00    +0.000 OA
ATOM     16  N   UNL     1       2.360   5.902  18.245  0.00  0.00    +0.000 N 
ATOM     17  H   UNL     1       3.362   6.027  18.058  0.00  0.00    +0.000 HD
ENDROOT
BRANCH   3  18
ATOM     18  C   UNL     1       0.479  11.319  19.506  0.00  0.00    +0.000 C 
ATOM     19  O   UNL     1      -0.690  11.373  19.874  0.00  0.00    +0.000 OA
ATOM     20  N   UNL     1       1.302  12.445  19.473  0.00  0.00    +0.000 N 
ATOM     21  C   UNL     1       0.891  13.630  20.218  0.00  0.00    +0.000 C 
ATOM     22  C   UNL     1       0.876  14.866  19.332  0.00  0.00    +0.000 C 
ATOM     23  C   UNL     1       2.235  15.105  18.646  0.00  0.00    +0.000 C 
ATOM     24  C   UNL     1       2.613  13.827  17.879  0.00  0.00    +0.000 C 
ATOM     25  C   UNL     1       2.545  12.544  18.704  0.00  0.00    +0.000 C 
BRANCH  23  26
ATOM     26  C   UNL     1       3.295  15.733  19.579  0.00  0.00    +0.000 C 
ATOM     27  C   UNL     1       4.207  14.905  20.488  0.00  0.00    +0.000 C 
ATOM     28  C   UNL     1       4.779  15.522  19.254  0.00  0.00    +0.000 C 
BRANCH  26  29
ATOM     29  C   UNL     1       2.901  17.109  20.116  0.00  0.00    +0.000 C 
ATOM     30  F   UNL     1       3.971  17.864  20.453  0.00  0.00    +0.000 F 
ATOM     31  F   UNL     1       2.196  17.794  19.184  0.00  0.00    +0.000 F 
ATOM     32  F   UNL     1       2.126  16.997  21.220  0.00  0.00    +0.000 F 
ENDBRANCH  26  29
ENDBRANCH  23  26
ENDBRANCH   3  18
TORSDOF 3
ENDMDL
MODEL 7
REMARK VINA RESULT:      -7.4      6.757      7.767
REMARK  Name = 
REMARK  4 active torsions:
REMARK  status: ('A' for Active; 'I' for Inactive)
REMARK    1  A    between atoms: C_1  and  C_2
REMARK    2  A    between atoms: C_3  and  C_4
REMARK    3  A    between atoms: C_9  and  C_10
REMARK    4  A    between atoms: C_10  and  C_11
REMARK                            x       y       z     vdW  Elec       q    Type
REMARK                         _______ _______ _______ _____ _____    ______ ____
ROOT
ATOM      1  C   UNL     1       0.288  10.797  18.661  0.00  0.00    +0.000 C 
ATOM      2  C   UNL     1       0.659  10.117  19.931  0.00  0.00    +0.000 A 
ATOM      3  C   UNL     1       1.384   8.956  20.147  0.00  0.00    +0.000 A 
ATOM      4  C   UNL     1       1.367   8.785  21.544  0.00  0.00    +0.000 A 
ATOM      5  N   UNL     1       0.665   9.722  22.173  0.00  0.00    +0.000 NA
ATOM      6  N   UNL     1       0.237  10.550  21.175  0.00  0.00    +0.000 N 
ATOM      7  C   UNL     1      -0.581  11.656  21.495  0.00  0.00    +0.000 A 
ATOM      8  N   UNL     1      -0.841  12.618  20.669  0.00  0.00    +0.000 NA
ATOM      9  N   UNL     1      -1.727  13.507  21.165  0.00  0.00    +0.000 N 
ATOM     10  C   UNL     1      -2.026  14.734  20.643  0.00  0.00    +0.000 A 
ATOM     11  C   UNL     1      -3.063  15.271  21.378  0.00  0.00    +0.000 A 
ATOM     12  C   UNL     1      -3.392  14.340  22.396  0.00  0.00    +0.000 A 
ATOM     13  C   UNL     1      -2.500  13.305  22.276  0.00  0.00    +0.000 A 
ATOM     14  C   UNL     1      -2.275  12.133  23.054  0.00  0.00    +0.000 A 
ATOM     15  O   UNL     1      -3.090  11.638  23.829  0.00  0.00    +0.000 OA
ATOM     16  N   UNL     1      -1.074  11.541  22.777  0.00  0.00    +0.000 N 
ATOM     17  H   UNL     1      -0.371  11.910  23.428  0.00  0.00    +0.000 HD
ENDROOT
BRANCH   3  18
ATOM     18  C   UNL     1       2.031   8.134  19.141  0.00  0.00    +0.000 C 
ATOM     19  O   UNL     1       2.408   8.630  18.084  0.00  0.00    +0.000 OA
ATOM     20  N   UNL     1       2.230   6.786  19.444  0.00  0.00    +0.000 N 
ATOM     21  C   UNL     1       3.206   6.034  18.664  0.00  0.00    +0.000 C 
ATOM     22  C   UNL     1       2.596   4.768  18.081  0.00  0.00    +0.000 C 
ATOM     23  C   UNL     1       1.970   3.873  19.168  0.00  0.00    +0.000 C 
ATOM     24  C   UNL     1       0.952   4.718  19.953  0.00  0.00    +0.000 C 
ATOM     25  C   UNL     1       1.493   6.048  20.472  0.00  0.00    +0.000 C 
BRANCH  23  26
ATOM     26  C   UNL     1       3.008   3.056  19.970  0.00  0.00    +0.000 C 
ATOM     27  C   UNL     1       3.970   2.059  19.321  0.00  0.00    +0.000 C 
ATOM     28  C   UNL     1       4.496   3.376  19.787  0.00  0.00    +0.000 C 
BRANCH  26  29
ATOM     29  C   UNL     1       2.551   2.706  21.386  0.00  0.00    +0.000 C 
ATOM     30  F   UNL     1       2.504   3.784  22.201  0.00  0.00    +0.000 F 
ATOM     31  F   UNL     1       1.312   2.160  21.359  0.00  0.00    +0.000 F 
ATOM     32  F   UNL     1       3.385   1.807  21.959  0.00  0.00    +0.000 F 
ENDBRANCH  26  29
ENDBRANCH  23  26
ENDBRANCH   3  18
TORSDOF 3
ENDMDL
MODEL 8
REMARK VINA RESULT:      -7.3      6.903      8.049
REMARK  Name = 
REMARK  4 active torsions:
REMARK  status: ('A' for Active; 'I' for Inactive)
REMARK    1  A    between atoms: C_1  and  C_2
REMARK    2  A    between atoms: C_3  and  C_4
REMARK    3  A    between atoms: C_9  and  C_10
REMARK    4  A    between atoms: C_10  and  C_11
REMARK                            x       y       z     vdW  Elec       q    Type
REMARK                         _______ _______ _______ _____ _____    ______ ____
ROOT
ATOM      1  C   UNL     1       0.062  10.550  18.778  0.00  0.00    +0.000 C 
ATOM      2  C   UNL     1       0.516   9.989  20.079  0.00  0.00    +0.000 A 
ATOM      3  C   UNL     1       1.332   8.903  20.350  0.00  0.00    +0.000 A 
ATOM      4  C   UNL     1       1.364   8.828  21.756  0.00  0.00    +0.000 A 
ATOM      5  N   UNL     1       0.610   9.752  22.342  0.00  0.00    +0.000 NA
ATOM      6  N   UNL     1       0.094  10.475  21.304  0.00  0.00    +0.000 N 
ATOM      7  C   UNL     1      -0.796  11.537  21.573  0.00  0.00    +0.000 A 
ATOM      8  N   UNL     1      -1.151  12.418  20.693  0.00  0.00    +0.000 NA
ATOM      9  N   UNL     1      -2.089  13.271  21.156  0.00  0.00    +0.000 N 
ATOM     10  C   UNL     1      -2.493  14.433  20.562  0.00  0.00    +0.000 A 
ATOM     11  C   UNL     1      -3.548  14.942  21.291  0.00  0.00    +0.000 A 
ATOM     12  C   UNL     1      -3.779  14.062  22.378  0.00  0.00    +0.000 A 
ATOM     13  C   UNL     1      -2.815  13.089  22.301  0.00  0.00    +0.000 A 
ATOM     14  C   UNL     1      -2.482  11.994  23.148  0.00  0.00    +0.000 A 
ATOM     15  O   UNL     1      -3.236  11.495  23.979  0.00  0.00    +0.000 OA
ATOM     16  N   UNL     1      -1.246  11.474  22.875  0.00  0.00    +0.000 N 
ATOM     17  H   UNL     1      -0.557  11.939  23.478  0.00  0.00    +0.000 HD
ENDROOT
BRANCH   3  18
ATOM     18  C   UNL     1       2.015   8.063  19.382  0.00  0.00    +0.000 C 
ATOM     19  O   UNL     1       2.495   8.554  18.366  0.00  0.00    +0.000 OA
ATOM     20  N   UNL     1       2.123   6.703  19.675  0.00  0.00    +0.000 N 
ATOM     21  C   UNL     1       3.119   5.914  18.959  0.00  0.00    +0.000 C 
ATOM     22  C   UNL     1       2.495   4.688  18.310  0.00  0.00    +0.000 C 
ATOM     23  C   UNL     1       1.743   3.811  19.330  0.00  0.00    +0.000 C 
ATOM     24  C   UNL     1       0.711   4.695  20.050  0.00  0.00    +0.000 C 
ATOM     25  C   UNL     1       1.275   5.989  20.631  0.00  0.00    +0.000 C 
BRANCH  23  26
ATOM     26  C   UNL     1       2.676   2.932  20.194  0.00  0.00    +0.000 C 
ATOM     27  C   UNL     1       2.945   3.203  21.676  0.00  0.00    +0.000 C 
ATOM     28  C   UNL     1       2.056   2.065  21.296  0.00  0.00    +0.000 C 
BRANCH  26  29
ATOM     29  C   UNL     1       3.839   2.320  19.413  0.00  0.00    +0.000 C 
ATOM     30  F   UNL     1       4.712   3.249  18.963  0.00  0.00    +0.000 F 
ATOM     31  F   UNL     1       4.529   1.458  20.198  0.00  0.00    +0.000 F 
ATOM     32  F   UNL     1       3.394   1.632  18.336  0.00  0.00    +0.000 F 
ENDBRANCH  26  29
ENDBRANCH  23  26
ENDBRANCH   3  18
TORSDOF 3
ENDMDL
MODEL 9
REMARK VINA RESULT:      -7.3      7.041      8.404
REMARK  Name = 
REMARK  4 active torsions:
REMARK  status: ('A' for Active; 'I' for Inactive)
REMARK    1  A    between atoms: C_1  and  C_2
REMARK    2  A    between atoms: C_3  and  C_4
REMARK    3  A    between atoms: C_9  and  C_10
REMARK    4  A    between atoms: C_10  and  C_11
REMARK                            x       y       z     vdW  Elec       q    Type
REMARK                         _______ _______ _______ _____ _____    ______ ____
ROOT
ATOM      1  C   UNL     1      -0.980  10.377  18.328  0.00  0.00    +0.000 C 
ATOM      2  C   UNL     1      -0.088  10.256  19.513  0.00  0.00    +0.000 A 
ATOM      3  C   UNL     1       1.065   9.509  19.693  0.00  0.00    +0.000 A 
ATOM      4  C   UNL     1       1.442   9.758  21.026  0.00  0.00    +0.000 A 
ATOM      5  N   UNL     1       0.594  10.559  21.664  0.00  0.00    +0.000 NA
ATOM      6  N   UNL     1      -0.345  10.873  20.723  0.00  0.00    +0.000 N 
ATOM      7  C   UNL     1      -1.435  11.698  21.080  0.00  0.00    +0.000 A 
ATOM      8  N   UNL     1      -2.238  12.238  20.220  0.00  0.00    +0.000 NA
ATOM      9  N   UNL     1      -3.262  12.897  20.803  0.00  0.00    +0.000 N 
ATOM     10  C   UNL     1      -4.133  13.750  20.189  0.00  0.00    +0.000 A 
ATOM     11  C   UNL     1      -5.096  14.114  21.107  0.00  0.00    +0.000 A 
ATOM     12  C   UNL     1      -4.785  13.467  22.330  0.00  0.00    +0.000 A 
ATOM     13  C   UNL     1      -3.611  12.789  22.122  0.00  0.00    +0.000 A 
ATOM     14  C   UNL     1      -2.768  12.035  22.988  0.00  0.00    +0.000 A 
ATOM     15  O   UNL     1      -3.118  11.553  24.062  0.00  0.00    +0.000 OA
ATOM     16  N   UNL     1      -1.531  11.809  22.451  0.00  0.00    +0.000 N 
ATOM     17  H   UNL     1      -0.901  12.560  22.759  0.00  0.00    +0.000 HD
ENDROOT
BRANCH   3  18
ATOM     18  C   UNL     1       1.733   8.685  18.702  0.00  0.00    +0.000 C 
ATOM     19  O   UNL     1       1.991   9.138  17.591  0.00  0.00    +0.000 OA
ATOM     20  N   UNL     1       2.088   7.388  19.078  0.00  0.00    +0.000 N 
ATOM     21  C   UNL     1       3.087   6.683  18.286  0.00  0.00    +0.000 C 
ATOM     22  C   UNL     1       2.578   5.323  17.830  0.00  0.00    +0.000 C 
ATOM     23  C   UNL     1       2.114   4.452  19.013  0.00  0.00    +0.000 C 
ATOM     24  C   UNL     1       1.064   5.247  19.808  0.00  0.00    +0.000 C 
ATOM     25  C   UNL     1       1.495   6.658  20.200  0.00  0.00    +0.000 C 
BRANCH  23  26
ATOM     26  C   UNL     1       3.277   3.802  19.795  0.00  0.00    +0.000 C 
ATOM     27  C   UNL     1       4.576   3.338  19.131  0.00  0.00    +0.000 C 
ATOM     28  C   UNL     1       4.586   4.585  19.953  0.00  0.00    +0.000 C 
BRANCH  26  29
ATOM     29  C   UNL     1       2.822   2.978  21.000  0.00  0.00    +0.000 C 
ATOM     30  F   UNL     1       2.486   3.746  22.061  0.00  0.00    +0.000 F 
ATOM     31  F   UNL     1       1.738   2.233  20.677  0.00  0.00    +0.000 F 
ATOM     32  F   UNL     1       3.797   2.133  21.409  0.00  0.00    +0.000 F 
ENDBRANCH  26  29
ENDBRANCH  23  26
ENDBRANCH   3  18
TORSDOF 3
ENDMDL
