MODEL 1
REMARK VINA RESULT:      -8.8      0.000      0.000
REMARK  Name = 
REMARK  4 active torsions:
REMARK  status: ('A' for Active; 'I' for Inactive)
REMARK    1  A    between atoms: C_1  and  O_2
REMARK    2  A    between atoms: O_2  and  C_3
REMARK    3  A    between atoms: C_6  and  N_7
REMARK    4  A    between atoms: N_10  and  C_11
REMARK                            x       y       z     vdW  Elec       q    Type
REMARK                         _______ _______ _______ _____ _____    ______ ____
ROOT
ATOM      1  N   UNL     1       1.674   7.395  20.853  0.00  0.00    +0.000 N 
ATOM      2  C   UNL     1       2.495   6.876  19.865  0.00  0.00    +0.000 C 
ATOM      3  O   UNL     1       2.770   7.428  18.805  0.00  0.00    +0.000 OA
ATOM      4  N   UNL     1       2.967   5.599  20.210  0.00  0.00    +0.000 N 
ATOM      5  H   UNL     1       1.795   6.999  21.772  0.00  0.00    +0.000 HD
ATOM      6  H   UNL     1       2.234   5.042  20.635  0.00  0.00    +0.000 HD
ENDROOT
BRANCH   4   7
ATOM      7  C   UNL     1       3.794   4.916  19.282  0.00  0.00    +0.000 A 
ATOM      8  C   UNL     1       3.187   4.354  18.141  0.00  0.00    +0.000 A 
ATOM      9  C   UNL     1       3.933   4.206  16.972  0.00  0.00    +0.000 A 
ATOM     10  C   UNL     1       5.272   4.547  17.024  0.00  0.00    +0.000 A 
ATOM     11  C   UNL     1       5.917   4.750  18.231  0.00  0.00    +0.000 A 
ATOM     12  C   UNL     1       5.190   5.023  19.373  0.00  0.00    +0.000 A 
ATOM     13  S   UNL     1       7.561   5.265  17.928  0.00  0.00    +0.000 S 
ATOM     14  O   UNL     1       7.926   6.310  18.850  0.00  0.00    +0.000 OA
ATOM     15  O   UNL     1       8.347   4.101  17.662  0.00  0.00    +0.000 OA
ATOM     16  N   UNL     1       7.085   5.964  16.465  0.00  0.00    +0.000 N 
ATOM     17  C   UNL     1       5.963   5.279  15.929  0.00  0.00    +0.000 C 
ATOM     18  O   UNL     1       5.489   5.493  14.830  0.00  0.00    +0.000 OA
ATOM     19  H   UNL     1       6.926   6.966  16.602  0.00  0.00    +0.000 HD
ENDBRANCH   4   7
BRANCH   1  23
ATOM     20  C   UNL     1      -0.465  11.055  20.726  0.00  0.00    +0.000 A 
ATOM     21  C   UNL     1       0.248  10.628  19.608  0.00  0.00    +0.000 A 
ATOM     22  C   UNL     1       0.945   9.417  19.623  0.00  0.00    +0.000 A 
ATOM     23  C   UNL     1       0.962   8.617  20.769  0.00  0.00    +0.000 A 
ATOM     24  C   UNL     1       0.234   9.042  21.887  0.00  0.00    +0.000 A 
ATOM     25  C   UNL     1      -0.466  10.261  21.871  0.00  0.00    +0.000 A 
BRANCH  20  27
ATOM     26  C   UNL     1      -2.267  12.286  19.808  0.00  0.00    +0.000 C 
ATOM     27  O   UNL     1      -1.080  12.268  20.590  0.00  0.00    +0.000 OA
ENDBRANCH  20  27
ENDBRANCH   1  23
TORSDOF 3
ENDMDL
MODEL 2
REMARK VINA RESULT:      -8.6      0.640      1.202
REMARK  Name = 
REMARK  4 active torsions:
REMARK  status: ('A' for Active; 'I' for Inactive)
REMARK    1  A    between atoms: C_1  and  O_2
REMARK    2  A    between atoms: O_2  and  C_3
REMARK    3  A    between atoms: C_6  and  N_7
REMARK    4  A    between atoms: N_10  and  C_11
REMARK                            x       y       z     vdW  Elec       q    Type
REMARK                         _______ _______ _______ _____ _____    ______ ____
ROOT
ATOM      1  N   UNL     1       1.652   7.322  21.101  0.00  0.00    +0.000 N 
ATOM      2  C   UNL     1       2.457   6.896  20.056  0.00  0.00    +0.000 C 
ATOM      3  O   UNL     1       2.736   7.555  19.059  0.00  0.00    +0.000 OA
ATOM      4  N   UNL     1       2.906   5.581  20.257  0.00  0.00    +0.000 N 
ATOM      5  H   UNL     1       1.771   6.826  21.971  0.00  0.00    +0.000 HD
ATOM      6  H   UNL     1       2.166   4.995  20.626  0.00  0.00    +0.000 HD
ENDROOT
BRANCH   4   7
ATOM      7  C   UNL     1       3.714   4.987  19.254  0.00  0.00    +0.000 A 
ATOM      8  C   UNL     1       3.106   4.643  18.031  0.00  0.00    +0.000 A 
ATOM      9  C   UNL     1       3.875   4.619  16.867  0.00  0.00    +0.000 A 
ATOM     10  C   UNL     1       5.231   4.855  16.995  0.00  0.00    +0.000 A 
ATOM     11  C   UNL     1       5.852   4.832  18.231  0.00  0.00    +0.000 A 
ATOM     12  C   UNL     1       5.110   4.984  19.388  0.00  0.00    +0.000 A 
ATOM     13  S   UNL     1       7.535   5.271  18.042  0.00  0.00    +0.000 S 
ATOM     14  O   UNL     1       7.940   6.141  19.116  0.00  0.00    +0.000 OA
ATOM     15  O   UNL     1       8.250   4.108  17.620  0.00  0.00    +0.000 OA
ATOM     16  N   UNL     1       7.149   6.210  16.690  0.00  0.00    +0.000 N 
ATOM     17  C   UNL     1       6.001   5.691  16.036  0.00  0.00    +0.000 C 
ATOM     18  O   UNL     1       5.574   6.097  14.973  0.00  0.00    +0.000 OA
ATOM     19  H   UNL     1       7.051   7.189  16.971  0.00  0.00    +0.000 HD
ENDBRANCH   4   7
BRANCH   1  23
ATOM     20  C   UNL     1      -0.427  11.017  21.140  0.00  0.00    +0.000 A 
ATOM     21  C   UNL     1      -0.244  10.311  22.326  0.00  0.00    +0.000 A 
ATOM     22  C   UNL     1       0.454   9.100  22.337  0.00  0.00    +0.000 A 
ATOM     23  C   UNL     1       0.963   8.558  21.155  0.00  0.00    +0.000 A 
ATOM     24  C   UNL     1       0.789   9.276  19.965  0.00  0.00    +0.000 A 
ATOM     25  C   UNL     1       0.086  10.493  19.954  0.00  0.00    +0.000 A 
BRANCH  20  27
ATOM     26  C   UNL     1      -1.181  12.759  22.554  0.00  0.00    +0.000 C 
ATOM     27  O   UNL     1      -1.149  12.171  21.260  0.00  0.00    +0.000 OA
ENDBRANCH  20  27
ENDBRANCH   1  23
TORSDOF 3
ENDMDL
MODEL 3
REMARK VINA RESULT:      -8.4      1.486      1.794
REMARK  Name = 
REMARK  4 active torsions:
REMARK  status: ('A' for Active; 'I' for Inactive)
REMARK    1  A    between atoms: C_1  and  O_2
REMARK    2  A    between atoms: O_2  and  C_3
REMARK    3  A    between atoms: C_6  and  N_7
REMARK    4  A    between atoms: N_10  and  C_11
REMARK                            x       y       z     vdW  Elec       q    Type
REMARK                         _______ _______ _______ _____ _____    ______ ____
ROOT
ATOM      1  N   UNL     1       1.341   8.656  19.259  0.00  0.00    +0.000 N 
ATOM      2  C   UNL     1       2.120   7.515  19.362  0.00  0.00    +0.000 C 
ATOM      3  O   UNL     1       2.333   6.890  20.395  0.00  0.00    +0.000 OA
ATOM      4  N   UNL     1       2.677   7.162  18.122  0.00  0.00    +0.000 N 
ATOM      5  H   UNL     1       0.997   8.866  18.334  0.00  0.00    +0.000 HD
ATOM      6  H   UNL     1       3.004   7.981  17.622  0.00  0.00    +0.000 HD
ENDROOT
BRANCH   4   7
ATOM      7  C   UNL     1       3.534   6.032  18.069  0.00  0.00    +0.000 A 
ATOM      8  C   UNL     1       3.032   4.846  17.498  0.00  0.00    +0.000 A 
ATOM      9  C   UNL     1       3.916   3.948  16.900  0.00  0.00    +0.000 A 
ATOM     10  C   UNL     1       5.266   4.236  16.978  0.00  0.00    +0.000 A 
ATOM     11  C   UNL     1       5.748   5.202  17.843  0.00  0.00    +0.000 A 
ATOM     12  C   UNL     1       4.902   6.175  18.341  0.00  0.00    +0.000 A 
ATOM     13  S   UNL     1       7.472   5.380  17.610  0.00  0.00    +0.000 S 
ATOM     14  O   UNL     1       7.833   6.774  17.655  0.00  0.00    +0.000 OA
ATOM     15  O   UNL     1       8.126   4.343  18.345  0.00  0.00    +0.000 OA
ATOM     16  N   UNL     1       7.315   4.905  15.995  0.00  0.00    +0.000 N 
ATOM     17  C   UNL     1       6.203   4.036  15.840  0.00  0.00    +0.000 C 
ATOM     18  O   UNL     1       5.928   3.450  14.810  0.00  0.00    +0.000 OA
ATOM     19  H   UNL     1       7.272   5.735  15.398  0.00  0.00    +0.000 HD
ENDBRANCH   4   7
BRANCH   1  23
ATOM     20  C   UNL     1      -0.519  10.766  22.432  0.00  0.00    +0.000 A 
ATOM     21  C   UNL     1      -0.491   9.374  22.447  0.00  0.00    +0.000 A 
ATOM     22  C   UNL     1       0.133   8.660  21.420  0.00  0.00    +0.000 A 
ATOM     23  C   UNL     1       0.721   9.326  20.342  0.00  0.00    +0.000 A 
ATOM     24  C   UNL     1       0.701  10.726  20.335  0.00  0.00    +0.000 A 
ATOM     25  C   UNL     1       0.073  11.444  21.368  0.00  0.00    +0.000 A 
BRANCH  20  27
ATOM     26  C   UNL     1      -2.274  12.188  23.141  0.00  0.00    +0.000 C 
ATOM     27  O   UNL     1      -1.183  11.342  23.479  0.00  0.00    +0.000 OA
ENDBRANCH  20  27
ENDBRANCH   1  23
TORSDOF 3
ENDMDL
MODEL 4
REMARK VINA RESULT:      -8.2      1.172      1.382
REMARK  Name = 
REMARK  4 active torsions:
REMARK  status: ('A' for Active; 'I' for Inactive)
REMARK    1  A    between atoms: C_1  and  O_2
REMARK    2  A    between atoms: O_2  and  C_3
REMARK    3  A    between atoms: C_6  and  N_7
REMARK    4  A    between atoms: N_10  and  C_11
REMARK                            x       y       z     vdW  Elec       q    Type
REMARK                         _______ _______ _______ _____ _____    ______ ____
ROOT
ATOM      1  N   UNL     1       1.623   8.345  19.875  0.00  0.00    +0.000 N 
ATOM      2  C   UNL     1       2.462   7.576  19.086  0.00  0.00    +0.000 C 
ATOM      3  O   UNL     1       2.840   7.867  17.956  0.00  0.00    +0.000 OA
ATOM      4  N   UNL     1       2.818   6.380  19.730  0.00  0.00    +0.000 N 
ATOM      5  H   UNL     1       1.658   8.152  20.865  0.00  0.00    +0.000 HD
ATOM      6  H   UNL     1       2.023   5.972  20.208  0.00  0.00    +0.000 HD
ENDROOT
BRANCH   4   7
ATOM      7  C   UNL     1       3.648   5.464  19.033  0.00  0.00    +0.000 A 
ATOM      8  C   UNL     1       3.053   4.639  18.059  0.00  0.00    +0.000 A 
ATOM      9  C   UNL     1       3.822   4.180  16.990  0.00  0.00    +0.000 A 
ATOM     10  C   UNL     1       5.168   4.496  16.991  0.00  0.00    +0.000 A 
ATOM     11  C   UNL     1       5.790   4.991  18.123  0.00  0.00    +0.000 A 
ATOM     12  C   UNL     1       5.044   5.564  19.135  0.00  0.00    +0.000 A 
ATOM     13  S   UNL     1       7.454   5.378  17.747  0.00  0.00    +0.000 S 
ATOM     14  O   UNL     1       7.825   6.618  18.379  0.00  0.00    +0.000 OA
ATOM     15  O   UNL     1       8.214   4.169  17.812  0.00  0.00    +0.000 OA
ATOM     16  N   UNL     1       7.031   5.685  16.139  0.00  0.00    +0.000 N 
ATOM     17  C   UNL     1       5.904   4.907  15.765  0.00  0.00    +0.000 C 
ATOM     18  O   UNL     1       5.460   4.840  14.635  0.00  0.00    +0.000 OA
ATOM     19  H   UNL     1       6.895   6.691  16.009  0.00  0.00    +0.000 HD
ENDBRANCH   4   7
BRANCH   1  23
ATOM     20  C   UNL     1      -0.316  11.949  18.762  0.00  0.00    +0.000 A 
ATOM     21  C   UNL     1       1.050  11.797  18.536  0.00  0.00    +0.000 A 
ATOM     22  C   UNL     1       1.704  10.610  18.879  0.00  0.00    +0.000 A 
ATOM     23  C   UNL     1       1.008   9.558  19.479  0.00  0.00    +0.000 A 
ATOM     24  C   UNL     1      -0.368   9.709  19.695  0.00  0.00    +0.000 A 
ATOM     25  C   UNL     1      -1.025  10.903  19.351  0.00  0.00    +0.000 A 
BRANCH  20  27
ATOM     26  C   UNL     1      -0.436  14.270  19.212  0.00  0.00    +0.000 C 
ATOM     27  O   UNL     1      -0.828  13.165  18.407  0.00  0.00    +0.000 OA
ENDBRANCH  20  27
ENDBRANCH   1  23
TORSDOF 3
ENDMDL
MODEL 5
REMARK VINA RESULT:      -8.2      1.498      1.654
REMARK  Name = 
REMARK  4 active torsions:
REMARK  status: ('A' for Active; 'I' for Inactive)
REMARK    1  A    between atoms: C_1  and  O_2
REMARK    2  A    between atoms: O_2  and  C_3
REMARK    3  A    between atoms: C_6  and  N_7
REMARK    4  A    between atoms: N_10  and  C_11
REMARK                            x       y       z     vdW  Elec       q    Type
REMARK                         _______ _______ _______ _____ _____    ______ ____
ROOT
ATOM      1  N   UNL     1       1.330   8.854  19.118  0.00  0.00    +0.000 N 
ATOM      2  C   UNL     1       2.102   7.715  19.281  0.00  0.00    +0.000 C 
ATOM      3  O   UNL     1       2.315   7.147  20.348  0.00  0.00    +0.000 OA
ATOM      4  N   UNL     1       2.652   7.289  18.062  0.00  0.00    +0.000 N 
ATOM      5  H   UNL     1       0.985   9.015  18.184  0.00  0.00    +0.000 HD
ATOM      6  H   UNL     1       2.983   8.077  17.516  0.00  0.00    +0.000 HD
ENDROOT
BRANCH   4   7
ATOM      7  C   UNL     1       3.501   6.152  18.069  0.00  0.00    +0.000 A 
ATOM      8  C   UNL     1       3.007   4.953  17.521  0.00  0.00    +0.000 A 
ATOM      9  C   UNL     1       3.901   4.030  16.977  0.00  0.00    +0.000 A 
ATOM     10  C   UNL     1       5.250   4.310  17.086  0.00  0.00    +0.000 A 
ATOM     11  C   UNL     1       5.714   5.300  17.935  0.00  0.00    +0.000 A 
ATOM     12  C   UNL     1       4.862   6.294  18.378  0.00  0.00    +0.000 A 
ATOM     13  S   UNL     1       7.446   5.458  17.748  0.00  0.00    +0.000 S 
ATOM     14  O   UNL     1       7.817   6.850  17.761  0.00  0.00    +0.000 OA
ATOM     15  O   UNL     1       8.069   4.440  18.534  0.00  0.00    +0.000 OA
ATOM     16  N   UNL     1       7.332   4.934  16.145  0.00  0.00    +0.000 N 
ATOM     17  C   UNL     1       6.218   4.069  15.983  0.00  0.00    +0.000 C 
ATOM     18  O   UNL     1       5.969   3.453  14.965  0.00  0.00    +0.000 OA
ATOM     19  H   UNL     1       7.313   5.745  15.521  0.00  0.00    +0.000 HD
ENDBRANCH   4   7
BRANCH   1  23
ATOM     20  C   UNL     1      -0.501  10.949  22.318  0.00  0.00    +0.000 A 
ATOM     21  C   UNL     1       0.129  11.655  21.296  0.00  0.00    +0.000 A 
ATOM     22  C   UNL     1       0.723  10.984  20.223  0.00  0.00    +0.000 A 
ATOM     23  C   UNL     1       0.720   9.588  20.163  0.00  0.00    +0.000 A 
ATOM     24  C   UNL     1       0.075   8.881  21.186  0.00  0.00    +0.000 A 
ATOM     25  C   UNL     1      -0.521   9.556  22.265  0.00  0.00    +0.000 A 
BRANCH  20  27
ATOM     26  C   UNL     1      -2.430  11.883  23.322  0.00  0.00    +0.000 C 
ATOM     27  O   UNL     1      -1.017  11.721  23.320  0.00  0.00    +0.000 OA
ENDBRANCH  20  27
ENDBRANCH   1  23
TORSDOF 3
ENDMDL
MODEL 6
REMARK VINA RESULT:      -8.0      2.878      4.071
REMARK  Name = 
REMARK  4 active torsions:
REMARK  status: ('A' for Active; 'I' for Inactive)
REMARK    1  A    between atoms: C_1  and  O_2
REMARK    2  A    between atoms: O_2  and  C_3
REMARK    3  A    between atoms: C_6  and  N_7
REMARK    4  A    between atoms: N_10  and  C_11
REMARK                            x       y       z     vdW  Elec       q    Type
REMARK                         _______ _______ _______ _____ _____    ______ ____
ROOT
ATOM      1  N   UNL     1       0.847   9.806  22.013  0.00  0.00    +0.000 N 
ATOM      2  C   UNL     1       0.822   8.838  21.022  0.00  0.00    +0.000 C 
ATOM      3  O   UNL     1      -0.003   8.767  20.117  0.00  0.00    +0.000 OA
ATOM      4  N   UNL     1       1.858   7.906  21.190  0.00  0.00    +0.000 N 
ATOM      5  H   UNL     1       1.734   9.931  22.477  0.00  0.00    +0.000 HD
ATOM      6  H   UNL     1       1.972   7.659  22.167  0.00  0.00    +0.000 HD
ENDROOT
BRANCH   4   7
ATOM      7  C   UNL     1       1.946   6.827  20.273  0.00  0.00    +0.000 A 
ATOM      8  C   UNL     1       2.560   7.064  19.027  0.00  0.00    +0.000 A 
ATOM      9  C   UNL     1       3.184   6.010  18.361  0.00  0.00    +0.000 A 
ATOM     10  C   UNL     1       3.089   4.752  18.929  0.00  0.00    +0.000 A 
ATOM     11  C   UNL     1       2.189   4.487  19.945  0.00  0.00    +0.000 A 
ATOM     12  C   UNL     1       1.661   5.520  20.696  0.00  0.00    +0.000 A 
ATOM     13  S   UNL     1       2.406   2.842  20.496  0.00  0.00    +0.000 S 
ATOM     14  O   UNL     1       2.310   2.787  21.932  0.00  0.00    +0.000 OA
ATOM     15  O   UNL     1       1.703   1.979  19.599  0.00  0.00    +0.000 OA
ATOM     16  N   UNL     1       4.037   2.897  20.056  0.00  0.00    +0.000 N 
ATOM     17  C   UNL     1       4.229   3.797  18.974  0.00  0.00    +0.000 C 
ATOM     18  O   UNL     1       5.279   3.942  18.380  0.00  0.00    +0.000 OA
ATOM     19  H   UNL     1       4.605   3.118  20.877  0.00  0.00    +0.000 HD
ENDBRANCH   4   7
BRANCH   1  23
ATOM     20  C   UNL     1      -2.004  12.919  22.418  0.00  0.00    +0.000 A 
ATOM     21  C   UNL     1      -2.120  11.767  23.192  0.00  0.00    +0.000 A 
ATOM     22  C   UNL     1      -1.180  10.737  23.086  0.00  0.00    +0.000 A 
ATOM     23  C   UNL     1      -0.117  10.829  22.185  0.00  0.00    +0.000 A 
ATOM     24  C   UNL     1       0.004  11.994  21.416  0.00  0.00    +0.000 A 
ATOM     25  C   UNL     1      -0.942  13.029  21.523  0.00  0.00    +0.000 A 
BRANCH  20  27
ATOM     26  C   UNL     1      -4.328  13.327  22.610  0.00  0.00    +0.000 C 
ATOM     27  O   UNL     1      -3.001  13.837  22.597  0.00  0.00    +0.000 OA
ENDBRANCH  20  27
ENDBRANCH   1  23
TORSDOF 3
ENDMDL
MODEL 7
REMARK VINA RESULT:      -7.9      2.579      3.393
REMARK  Name = 
REMARK  4 active torsions:
REMARK  status: ('A' for Active; 'I' for Inactive)
REMARK    1  A    between atoms: C_1  and  O_2
REMARK    2  A    between atoms: O_2  and  C_3
REMARK    3  A    between atoms: C_6  and  N_7
REMARK    4  A    between atoms: N_10  and  C_11
REMARK                            x       y       z     vdW  Elec       q    Type
REMARK                         _______ _______ _______ _____ _____    ______ ____
ROOT
ATOM      1  N   UNL     1       1.222   9.120  21.748  0.00  0.00    +0.000 N 
ATOM      2  C   UNL     1       1.349   8.507  20.513  0.00  0.00    +0.000 C 
ATOM      3  O   UNL     1       0.777   8.854  19.484  0.00  0.00    +0.000 OA
ATOM      4  N   UNL     1       2.206   7.396  20.577  0.00  0.00    +0.000 N 
ATOM      5  H   UNL     1       1.971   8.942  22.401  0.00  0.00    +0.000 HD
ATOM      6  H   UNL     1       2.042   6.857  21.419  0.00  0.00    +0.000 HD
ENDROOT
BRANCH   4   7
ATOM      7  C   UNL     1       2.410   6.637  19.396  0.00  0.00    +0.000 A 
ATOM      8  C   UNL     1       3.181   7.209  18.365  0.00  0.00    +0.000 A 
ATOM      9  C   UNL     1       3.885   6.376  17.495  0.00  0.00    +0.000 A 
ATOM     10  C   UNL     1       3.714   5.012  17.642  0.00  0.00    +0.000 A 
ATOM     11  C   UNL     1       2.689   4.493  18.412  0.00  0.00    +0.000 A 
ATOM     12  C   UNL     1       2.070   5.276  19.368  0.00  0.00    +0.000 A 
ATOM     13  S   UNL     1       2.830   2.751  18.466  0.00  0.00    +0.000 S 
ATOM     14  O   UNL     1       2.548   2.275  19.796  0.00  0.00    +0.000 OA
ATOM     15  O   UNL     1       2.248   2.224  17.271  0.00  0.00    +0.000 OA
ATOM     16  N   UNL     1       4.504   2.868  18.267  0.00  0.00    +0.000 N 
ATOM     17  C   UNL     1       4.836   4.041  17.539  0.00  0.00    +0.000 C 
ATOM     18  O   UNL     1       5.956   4.314  17.150  0.00  0.00    +0.000 OA
ATOM     19  H   UNL     1       4.961   2.811  19.181  0.00  0.00    +0.000 HD
ENDBRANCH   4   7
BRANCH   1  23
ATOM     20  C   UNL     1      -1.328  12.419  22.523  0.00  0.00    +0.000 A 
ATOM     21  C   UNL     1      -1.523  11.216  23.198  0.00  0.00    +0.000 A 
ATOM     22  C   UNL     1      -0.683  10.123  22.970  0.00  0.00    +0.000 A 
ATOM     23  C   UNL     1       0.358  10.203  22.042  0.00  0.00    +0.000 A 
ATOM     24  C   UNL     1       0.561  11.417  21.373  0.00  0.00    +0.000 A 
ATOM     25  C   UNL     1      -0.285  12.516  21.603  0.00  0.00    +0.000 A 
BRANCH  20  27
ATOM     26  C   UNL     1      -2.440  14.382  21.809  0.00  0.00    +0.000 C 
ATOM     27  O   UNL     1      -2.233  13.400  22.815  0.00  0.00    +0.000 OA
ENDBRANCH  20  27
ENDBRANCH   1  23
TORSDOF 3
ENDMDL
MODEL 8
REMARK VINA RESULT:      -7.9      2.933      4.017
REMARK  Name = 
REMARK  4 active torsions:
REMARK  status: ('A' for Active; 'I' for Inactive)
REMARK    1  A    between atoms: C_1  and  O_2
REMARK    2  A    between atoms: O_2  and  C_3
REMARK    3  A    between atoms: C_6  and  N_7
REMARK    4  A    between atoms: N_10  and  C_11
REMARK                            x       y       z     vdW  Elec       q    Type
REMARK                         _______ _______ _______ _____ _____    ______ ____
ROOT
ATOM      1  N   UNL     1       0.845   9.879  22.000  0.00  0.00    +0.000 N 
ATOM      2  C   UNL     1       0.817   8.911  21.009  0.00  0.00    +0.000 C 
ATOM      3  O   UNL     1       0.003   8.854  20.093  0.00  0.00    +0.000 OA
ATOM      4  N   UNL     1       1.834   7.961  21.192  0.00  0.00    +0.000 N 
ATOM      5  H   UNL     1       1.727   9.989  22.476  0.00  0.00    +0.000 HD
ATOM      6  H   UNL     1       1.930   7.713  22.170  0.00  0.00    +0.000 HD
ENDROOT
BRANCH   4   7
ATOM      7  C   UNL     1       1.916   6.880  20.277  0.00  0.00    +0.000 A 
ATOM      8  C   UNL     1       2.509   7.118  19.021  0.00  0.00    +0.000 A 
ATOM      9  C   UNL     1       3.130   6.066  18.348  0.00  0.00    +0.000 A 
ATOM     10  C   UNL     1       3.054   4.810  18.921  0.00  0.00    +0.000 A 
ATOM     11  C   UNL     1       2.172   4.541  19.953  0.00  0.00    +0.000 A 
ATOM     12  C   UNL     1       1.648   5.573  20.709  0.00  0.00    +0.000 A 
ATOM     13  S   UNL     1       2.411   2.899  20.505  0.00  0.00    +0.000 S 
ATOM     14  O   UNL     1       2.338   2.849  21.943  0.00  0.00    +0.000 OA
ATOM     15  O   UNL     1       1.700   2.028  19.622  0.00  0.00    +0.000 OA
ATOM     16  N   UNL     1       4.034   2.966  20.039  0.00  0.00    +0.000 N 
ATOM     17  C   UNL     1       4.201   3.864  18.952  0.00  0.00    +0.000 C 
ATOM     18  O   UNL     1       5.241   4.015  18.340  0.00  0.00    +0.000 OA
ATOM     19  H   UNL     1       4.613   3.194  20.851  0.00  0.00    +0.000 HD
ENDBRANCH   4   7
BRANCH   1  23
ATOM     20  C   UNL     1      -2.032  12.940  22.578  0.00  0.00    +0.000 A 
ATOM     21  C   UNL     1      -0.993  13.127  21.670  0.00  0.00    +0.000 A 
ATOM     22  C   UNL     1      -0.045  12.124  21.452  0.00  0.00    +0.000 A 
ATOM     23  C   UNL     1      -0.104  10.919  22.157  0.00  0.00    +0.000 A 
ATOM     24  C   UNL     1      -1.157  10.729  23.061  0.00  0.00    +0.000 A 
ATOM     25  C   UNL     1      -2.110  11.739  23.281  0.00  0.00    +0.000 A 
BRANCH  20  27
ATOM     26  C   UNL     1      -4.038  13.788  23.508  0.00  0.00    +0.000 C 
ATOM     27  O   UNL     1      -2.875  14.007  22.719  0.00  0.00    +0.000 OA
ENDBRANCH  20  27
ENDBRANCH   1  23
TORSDOF 3
ENDMDL
MODEL 9
REMARK VINA RESULT:      -7.7      2.746      3.545
REMARK  Name = 
REMARK  4 active torsions:
REMARK  status: ('A' for Active; 'I' for Inactive)
REMARK    1  A    between atoms: C_1  and  O_2
REMARK    2  A    between atoms: O_2  and  C_3
REMARK    3  A    between atoms: C_6  and  N_7
REMARK    4  A    between atoms: N_10  and  C_11
REMARK                            x       y       z     vdW  Elec       q    Type
REMARK                         _______ _______ _______ _____ _____    ______ ____
ROOT
ATOM      1  N   UNL     1       1.133   9.849  19.495  0.00  0.00    +0.000 N 
ATOM      2  C   UNL     1       1.827   9.012  18.636  0.00  0.00    +0.000 C 
ATOM      3  O   UNL     1       2.245   9.321  17.525  0.00  0.00    +0.000 OA
ATOM      4  N   UNL     1       1.977   7.728  19.183  0.00  0.00    +0.000 N 
ATOM      5  H   UNL     1       1.139   9.578  20.466  0.00  0.00    +0.000 HD
ATOM      6  H   UNL     1       1.126   7.425  19.642  0.00  0.00    +0.000 HD
ENDROOT
BRANCH   4   7
ATOM      7  C   UNL     1       2.637   6.741  18.406  0.00  0.00    +0.000 A 
ATOM      8  C   UNL     1       3.719   7.146  17.600  0.00  0.00    +0.000 A 
ATOM      9  C   UNL     1       4.727   6.230  17.298  0.00  0.00    +0.000 A 
ATOM     10  C   UNL     1       4.562   4.931  17.743  0.00  0.00    +0.000 A 
ATOM     11  C   UNL     1       3.341   4.481  18.212  0.00  0.00    +0.000 A 
ATOM     12  C   UNL     1       2.381   5.381  18.634  0.00  0.00    +0.000 A 
ATOM     13  S   UNL     1       3.512   2.837  18.786  0.00  0.00    +0.000 S 
ATOM     14  O   UNL     1       2.767   2.663  20.006  0.00  0.00    +0.000 OA
ATOM     15  O   UNL     1       3.441   1.965  17.656  0.00  0.00    +0.000 OA
ATOM     16  N   UNL     1       5.133   3.127  19.168  0.00  0.00    +0.000 N 
ATOM     17  C   UNL     1       5.673   4.124  18.313  0.00  0.00    +0.000 C 
ATOM     18  O   UNL     1       6.846   4.442  18.286  0.00  0.00    +0.000 OA
ATOM     19  H   UNL     1       5.214   3.354  20.162  0.00  0.00    +0.000 HD
ENDBRANCH   4   7
BRANCH   1  23
ATOM     20  C   UNL     1      -0.188  13.781  18.611  0.00  0.00    +0.000 A 
ATOM     21  C   UNL     1       1.084  13.578  19.139  0.00  0.00    +0.000 A 
ATOM     22  C   UNL     1       1.545  12.289  19.420  0.00  0.00    +0.000 A 
ATOM     23  C   UNL     1       0.731  11.175  19.201  0.00  0.00    +0.000 A 
ATOM     24  C   UNL     1      -0.544  11.380  18.659  0.00  0.00    +0.000 A 
ATOM     25  C   UNL     1      -1.007  12.677  18.376  0.00  0.00    +0.000 A 
BRANCH  20  27
ATOM     26  C   UNL     1      -0.120  16.007  19.412  0.00  0.00    +0.000 C 
ATOM     27  O   UNL     1      -0.528  15.089  18.406  0.00  0.00    +0.000 OA
ENDBRANCH  20  27
ENDBRANCH   1  23
TORSDOF 3
ENDMDL
