MODEL 1
REMARK VINA RESULT:      -6.8      0.000      0.000
REMARK  Name = 
REMARK  10 active torsions:
REMARK  status: ('A' for Active; 'I' for Inactive)
REMARK    1  A    between atoms: C_1  and  C_2
REMARK    2  A    between atoms: C_4  and  O_5
REMARK    3  A    between atoms: C_10  and  C_11
REMARK    4  A    between atoms: C_10  and  C_12
REMARK    5  A    between atoms: C_12  and  C_13
REMARK    6  A    between atoms: C_13  and  C_14
REMARK    7  A    between atoms: C_15  and  C_16
REMARK    8  A    between atoms: C_15  and  C_18
REMARK    9  A    between atoms: C_16  and  O_17
REMARK   10  A    between atoms: C_18  and  O_19
REMARK                            x       y       z     vdW  Elec       q    Type
REMARK                         _______ _______ _______ _____ _____    ______ ____
ROOT
ATOM      1  C   UNL     1       2.940   7.810  18.205  0.00  0.00    +0.000 C 
ATOM      2  C   UNL     1       3.240   6.377  17.868  0.00  0.00    +0.000 A 
ATOM      3  C   UNL     1       2.222   5.414  17.947  0.00  0.00    +0.000 A 
ATOM      4  C   UNL     1       2.496   4.086  17.636  0.00  0.00    +0.000 A 
ATOM      5  C   UNL     1       3.765   3.697  17.228  0.00  0.00    +0.000 A 
ATOM      6  C   UNL     1       4.791   4.642  17.136  0.00  0.00    +0.000 A 
ATOM      7  C   UNL     1       4.533   5.979  17.484  0.00  0.00    +0.000 A 
ATOM      8  O   UNL     1       5.502   6.953  17.469  0.00  0.00    +0.000 OA
ATOM      9  C   UNL     1       6.871   6.502  17.405  0.00  0.00    +0.000 C 
ATOM     10  C   UNL     1       7.295   6.036  18.814  0.00  0.00    +0.000 C 
ATOM     11  C   UNL     1       7.014   5.387  16.352  0.00  0.00    +0.000 C 
ATOM     12  C   UNL     1       6.154   4.189  16.704  0.00  0.00    +0.000 C 
ENDROOT
BRANCH   4  13
ATOM     13  O   UNL     1       1.542   3.117  17.715  0.00  0.00    +0.000 OA
ATOM     14  H   UNL     1       0.830   3.431  18.302  0.00  0.00    +0.000 HD
ENDBRANCH   4  13
BRANCH   9  15
ATOM     15  C   UNL     1       7.744   7.732  17.003  0.00  0.00    +0.000 C 
BRANCH  15  16
ATOM     16  C   UNL     1       8.084   8.618  18.209  0.00  0.00    +0.000 C 
BRANCH  16  17
ATOM     17  C   UNL     1       8.678   9.972  17.904  0.00  0.00    +0.000 C 
ATOM     18  C   UNL     1       9.217  10.772  18.851  0.00  0.00    +0.000 C 
BRANCH  18  19
ATOM     19  C   UNL     1       9.285  10.401  20.314  0.00  0.00    +0.000 C 
BRANCH  19  20
ATOM     20  O   UNL     1       9.994  11.411  21.022  0.00  0.00    +0.000 OA
ATOM     21  H   UNL     1       9.397  12.180  21.061  0.00  0.00    +0.000 HD
ENDBRANCH  19  20
ENDBRANCH  18  19
BRANCH  18  22
ATOM     22  C   UNL     1       9.714  12.158  18.517  0.00  0.00    +0.000 C 
BRANCH  22  23
ATOM     23  O   UNL     1       8.838  13.147  19.034  0.00  0.00    +0.000 OA
ATOM     24  H   UNL     1       7.980  13.015  18.586  0.00  0.00    +0.000 HD
ENDBRANCH  22  23
ENDBRANCH  18  22
ENDBRANCH  16  17
ENDBRANCH  15  16
ENDBRANCH   9  15
TORSDOF 8
ENDMDL
MODEL 2
REMARK VINA RESULT:      -6.7      0.749      1.240
REMARK  Name = 
REMARK  10 active torsions:
REMARK  status: ('A' for Active; 'I' for Inactive)
REMARK    1  A    between atoms: C_1  and  C_2
REMARK    2  A    between atoms: C_4  and  O_5
REMARK    3  A    between atoms: C_10  and  C_11
REMARK    4  A    between atoms: C_10  and  C_12
REMARK    5  A    between atoms: C_12  and  C_13
REMARK    6  A    between atoms: C_13  and  C_14
REMARK    7  A    between atoms: C_15  and  C_16
REMARK    8  A    between atoms: C_15  and  C_18
REMARK    9  A    between atoms: C_16  and  O_17
REMARK   10  A    between atoms: C_18  and  O_19
REMARK                            x       y       z     vdW  Elec       q    Type
REMARK                         _______ _______ _______ _____ _____    ______ ____
ROOT
ATOM      1  C   UNL     1       3.009   7.846  18.132  0.00  0.00    +0.000 C 
ATOM      2  C   UNL     1       3.280   6.402  17.816  0.00  0.00    +0.000 A 
ATOM      3  C   UNL     1       2.241   5.462  17.898  0.00  0.00    +0.000 A 
ATOM      4  C   UNL     1       2.488   4.125  17.605  0.00  0.00    +0.000 A 
ATOM      5  C   UNL     1       3.752   3.704  17.213  0.00  0.00    +0.000 A 
ATOM      6  C   UNL     1       4.799   4.625  17.118  0.00  0.00    +0.000 A 
ATOM      7  C   UNL     1       4.568   5.971  17.448  0.00  0.00    +0.000 A 
ATOM      8  O   UNL     1       5.557   6.924  17.429  0.00  0.00    +0.000 OA
ATOM      9  C   UNL     1       6.917   6.443  17.381  0.00  0.00    +0.000 C 
ATOM     10  C   UNL     1       7.319   5.986  18.800  0.00  0.00    +0.000 C 
ATOM     11  C   UNL     1       7.044   5.312  16.344  0.00  0.00    +0.000 C 
ATOM     12  C   UNL     1       6.155   4.138  16.703  0.00  0.00    +0.000 C 
ENDROOT
BRANCH   4  13
ATOM     13  O   UNL     1       1.513   3.178  17.688  0.00  0.00    +0.000 OA
ATOM     14  H   UNL     1       1.431   2.900  18.619  0.00  0.00    +0.000 HD
ENDBRANCH   4  13
BRANCH   9  15
ATOM     15  C   UNL     1       7.820   7.649  16.972  0.00  0.00    +0.000 C 
BRANCH  15  16
ATOM     16  C   UNL     1       7.581   8.877  17.861  0.00  0.00    +0.000 C 
BRANCH  16  17
ATOM     17  C   UNL     1       8.788   9.440  18.569  0.00  0.00    +0.000 C 
ATOM     18  C   UNL     1       9.140  10.745  18.507  0.00  0.00    +0.000 C 
BRANCH  18  19
ATOM     19  C   UNL     1       8.364  11.779  17.725  0.00  0.00    +0.000 C 
BRANCH  19  20
ATOM     20  O   UNL     1       9.264  12.761  17.225  0.00  0.00    +0.000 OA
ATOM     21  H   UNL     1       8.930  13.004  16.341  0.00  0.00    +0.000 HD
ENDBRANCH  19  20
ENDBRANCH  18  19
BRANCH  18  22
ATOM     22  C   UNL     1      10.408  11.248  19.153  0.00  0.00    +0.000 C 
BRANCH  22  23
ATOM     23  O   UNL     1      10.167  12.444  19.876  0.00  0.00    +0.000 OA
ATOM     24  H   UNL     1      10.949  13.012  19.736  0.00  0.00    +0.000 HD
ENDBRANCH  22  23
ENDBRANCH  18  22
ENDBRANCH  16  17
ENDBRANCH  15  16
ENDBRANCH   9  15
TORSDOF 8
ENDMDL
MODEL 3
REMARK VINA RESULT:      -6.6      4.586      6.088
REMARK  Name = 
REMARK  10 active torsions:
REMARK  status: ('A' for Active; 'I' for Inactive)
REMARK    1  A    between atoms: C_1  and  C_2
REMARK    2  A    between atoms: C_4  and  O_5
REMARK    3  A    between atoms: C_10  and  C_11
REMARK    4  A    between atoms: C_10  and  C_12
REMARK    5  A    between atoms: C_12  and  C_13
REMARK    6  A    between atoms: C_13  and  C_14
REMARK    7  A    between atoms: C_15  and  C_16
REMARK    8  A    between atoms: C_15  and  C_18
REMARK    9  A    between atoms: C_16  and  O_17
REMARK   10  A    between atoms: C_18  and  O_19
REMARK                            x       y       z     vdW  Elec       q    Type
REMARK                         _______ _______ _______ _____ _____    ______ ____
ROOT
ATOM      1  C   UNL     1       2.229   6.915  19.997  0.00  0.00    +0.000 C 
ATOM      2  C   UNL     1       2.357   5.419  20.039  0.00  0.00    +0.000 A 
ATOM      3  C   UNL     1       1.749   4.695  21.077  0.00  0.00    +0.000 A 
ATOM      4  C   UNL     1       1.864   3.310  21.119  0.00  0.00    +0.000 A 
ATOM      5  C   UNL     1       2.561   2.623  20.133  0.00  0.00    +0.000 A 
ATOM      6  C   UNL     1       3.168   3.324  19.087  0.00  0.00    +0.000 A 
ATOM      7  C   UNL     1       3.088   4.727  19.057  0.00  0.00    +0.000 A 
ATOM      8  O   UNL     1       3.702   5.488  18.091  0.00  0.00    +0.000 OA
ATOM      9  C   UNL     1       4.708   4.830  17.293  0.00  0.00    +0.000 C 
ATOM     10  C   UNL     1       6.008   4.749  18.122  0.00  0.00    +0.000 C 
ATOM     11  C   UNL     1       4.211   3.442  16.849  0.00  0.00    +0.000 C 
ATOM     12  C   UNL     1       3.923   2.555  18.045  0.00  0.00    +0.000 C 
ENDROOT
BRANCH   4  13
ATOM     13  O   UNL     1       1.304   2.570  22.116  0.00  0.00    +0.000 OA
ATOM     14  H   UNL     1       1.770   1.716  22.166  0.00  0.00    +0.000 HD
ENDBRANCH   4  13
BRANCH   9  15
ATOM     15  C   UNL     1       4.969   5.730  16.045  0.00  0.00    +0.000 C 
BRANCH  15  16
ATOM     16  C   UNL     1       6.236   5.313  15.286  0.00  0.00    +0.000 C 
BRANCH  16  17
ATOM     17  C   UNL     1       6.040   4.409  14.094  0.00  0.00    +0.000 C 
ATOM     18  C   UNL     1       6.909   4.352  13.059  0.00  0.00    +0.000 C 
BRANCH  18  19
ATOM     19  C   UNL     1       8.169   5.182  12.985  0.00  0.00    +0.000 C 
BRANCH  19  20
ATOM     20  O   UNL     1       7.936   6.317  12.160  0.00  0.00    +0.000 OA
ATOM     21  H   UNL     1       7.873   7.079  12.765  0.00  0.00    +0.000 HD
ENDBRANCH  19  20
ENDBRANCH  18  19
BRANCH  18  22
ATOM     22  C   UNL     1       6.626   3.504  11.843  0.00  0.00    +0.000 C 
BRANCH  22  23
ATOM     23  O   UNL     1       5.959   2.306  12.206  0.00  0.00    +0.000 OA
ATOM     24  H   UNL     1       5.220   2.200  11.576  0.00  0.00    +0.000 HD
ENDBRANCH  22  23
ENDBRANCH  18  22
ENDBRANCH  16  17
ENDBRANCH  15  16
ENDBRANCH   9  15
TORSDOF 8
ENDMDL
MODEL 4
REMARK VINA RESULT:      -6.5      4.482      6.624
REMARK  Name = 
REMARK  10 active torsions:
REMARK  status: ('A' for Active; 'I' for Inactive)
REMARK    1  A    between atoms: C_1  and  C_2
REMARK    2  A    between atoms: C_4  and  O_5
REMARK    3  A    between atoms: C_10  and  C_11
REMARK    4  A    between atoms: C_10  and  C_12
REMARK    5  A    between atoms: C_12  and  C_13
REMARK    6  A    between atoms: C_13  and  C_14
REMARK    7  A    between atoms: C_15  and  C_16
REMARK    8  A    between atoms: C_15  and  C_18
REMARK    9  A    between atoms: C_16  and  O_17
REMARK   10  A    between atoms: C_18  and  O_19
REMARK                            x       y       z     vdW  Elec       q    Type
REMARK                         _______ _______ _______ _____ _____    ______ ____
ROOT
ATOM      1  C   UNL     1       2.351   7.023  19.732  0.00  0.00    +0.000 C 
ATOM      2  C   UNL     1       2.370   5.521  19.781  0.00  0.00    +0.000 A 
ATOM      3  C   UNL     1       1.562   4.842  20.706  0.00  0.00    +0.000 A 
ATOM      4  C   UNL     1       1.576   3.452  20.753  0.00  0.00    +0.000 A 
ATOM      5  C   UNL     1       2.370   2.718  19.882  0.00  0.00    +0.000 A 
ATOM      6  C   UNL     1       3.178   3.375  18.949  0.00  0.00    +0.000 A 
ATOM      7  C   UNL     1       3.197   4.779  18.918  0.00  0.00    +0.000 A 
ATOM      8  O   UNL     1       4.003   5.495  18.065  0.00  0.00    +0.000 OA
ATOM      9  C   UNL     1       5.075   4.769  17.428  0.00  0.00    +0.000 C 
ATOM     10  C   UNL     1       6.222   4.604  18.448  0.00  0.00    +0.000 C 
ATOM     11  C   UNL     1       4.561   3.417  16.901  0.00  0.00    +0.000 C 
ATOM     12  C   UNL     1       4.033   2.554  18.030  0.00  0.00    +0.000 C 
ENDROOT
BRANCH   4  13
ATOM     13  O   UNL     1       0.820   2.754  21.646  0.00  0.00    +0.000 OA
ATOM     14  H   UNL     1       0.536   1.921  21.225  0.00  0.00    +0.000 HD
ENDBRANCH   4  13
BRANCH   9  15
ATOM     15  C   UNL     1       5.585   5.647  16.242  0.00  0.00    +0.000 C 
BRANCH  15  16
ATOM     16  C   UNL     1       5.142   5.094  14.881  0.00  0.00    +0.000 C 
BRANCH  16  17
ATOM     17  C   UNL     1       6.240   4.645  13.948  0.00  0.00    +0.000 C 
ATOM     18  C   UNL     1       6.023   3.827  12.892  0.00  0.00    +0.000 C 
BRANCH  18  19
ATOM     19  C   UNL     1       4.663   3.277  12.531  0.00  0.00    +0.000 C 
BRANCH  19  20
ATOM     20  O   UNL     1       4.494   3.331  11.119  0.00  0.00    +0.000 OA
ATOM     21  H   UNL     1       5.137   2.698  10.749  0.00  0.00    +0.000 HD
ENDBRANCH  19  20
ENDBRANCH  18  19
BRANCH  18  22
ATOM     22  C   UNL     1       7.164   3.327  12.040  0.00  0.00    +0.000 C 
BRANCH  22  23
ATOM     23  O   UNL     1       6.927   1.997  11.609  0.00  0.00    +0.000 OA
ATOM     24  H   UNL     1       6.239   2.050  10.918  0.00  0.00    +0.000 HD
ENDBRANCH  22  23
ENDBRANCH  18  22
ENDBRANCH  16  17
ENDBRANCH  15  16
ENDBRANCH   9  15
TORSDOF 8
ENDMDL
MODEL 5
REMARK VINA RESULT:      -6.4      3.972      5.872
REMARK  Name = 
REMARK  10 active torsions:
REMARK  status: ('A' for Active; 'I' for Inactive)
REMARK    1  A    between atoms: C_1  and  C_2
REMARK    2  A    between atoms: C_4  and  O_5
REMARK    3  A    between atoms: C_10  and  C_11
REMARK    4  A    between atoms: C_10  and  C_12
REMARK    5  A    between atoms: C_12  and  C_13
REMARK    6  A    between atoms: C_13  and  C_14
REMARK    7  A    between atoms: C_15  and  C_16
REMARK    8  A    between atoms: C_15  and  C_18
REMARK    9  A    between atoms: C_16  and  O_17
REMARK   10  A    between atoms: C_18  and  O_19
REMARK                            x       y       z     vdW  Elec       q    Type
REMARK                         _______ _______ _______ _____ _____    ______ ____
ROOT
ATOM      1  C   UNL     1       3.234   7.714  17.591  0.00  0.00    +0.000 C 
ATOM      2  C   UNL     1       2.488   7.345  18.841  0.00  0.00    +0.000 A 
ATOM      3  C   UNL     1       2.034   8.352  19.707  0.00  0.00    +0.000 A 
ATOM      4  C   UNL     1       1.342   8.015  20.865  0.00  0.00    +0.000 A 
ATOM      5  C   UNL     1       1.074   6.687  21.174  0.00  0.00    +0.000 A 
ATOM      6  C   UNL     1       1.512   5.669  20.321  0.00  0.00    +0.000 A 
ATOM      7  C   UNL     1       2.244   5.999  19.168  0.00  0.00    +0.000 A 
ATOM      8  O   UNL     1       2.750   5.052  18.311  0.00  0.00    +0.000 OA
ATOM      9  C   UNL     1       2.797   3.695  18.801  0.00  0.00    +0.000 C 
ATOM     10  C   UNL     1       4.012   3.561  19.743  0.00  0.00    +0.000 C 
ATOM     11  C   UNL     1       1.472   3.338  19.500  0.00  0.00    +0.000 C 
ATOM     12  C   UNL     1       1.218   4.245  20.688  0.00  0.00    +0.000 C 
ENDROOT
BRANCH   4  13
ATOM     13  O   UNL     1       0.898   8.959  21.740  0.00  0.00    +0.000 OA
ATOM     14  H   UNL     1       1.638   9.559  21.949  0.00  0.00    +0.000 HD
ENDBRANCH   4  13
BRANCH   9  15
ATOM     15  C   UNL     1       3.018   2.766  17.566  0.00  0.00    +0.000 C 
BRANCH  15  16
ATOM     16  C   UNL     1       4.475   2.784  17.083  0.00  0.00    +0.000 C 
BRANCH  16  17
ATOM     17  C   UNL     1       4.896   3.977  16.261  0.00  0.00    +0.000 C 
ATOM     18  C   UNL     1       5.959   4.753  16.575  0.00  0.00    +0.000 C 
BRANCH  18  19
ATOM     19  C   UNL     1       6.840   4.510  17.778  0.00  0.00    +0.000 C 
BRANCH  19  20
ATOM     20  O   UNL     1       8.121   4.072  17.342  0.00  0.00    +0.000 OA
ATOM     21  H   UNL     1       8.535   3.644  18.114  0.00  0.00    +0.000 HD
ENDBRANCH  19  20
ENDBRANCH  18  19
BRANCH  18  22
ATOM     22  C   UNL     1       6.289   5.992  15.778  0.00  0.00    +0.000 C 
BRANCH  22  23
ATOM     23  O   UNL     1       7.492   6.585  16.241  0.00  0.00    +0.000 OA
ATOM     24  H   UNL     1       7.985   5.881  16.706  0.00  0.00    +0.000 HD
ENDBRANCH  22  23
ENDBRANCH  18  22
ENDBRANCH  16  17
ENDBRANCH  15  16
ENDBRANCH   9  15
TORSDOF 8
ENDMDL
MODEL 6
REMARK VINA RESULT:      -6.3      2.699      4.067
REMARK  Name = 
REMARK  10 active torsions:
REMARK  status: ('A' for Active; 'I' for Inactive)
REMARK    1  A    between atoms: C_1  and  C_2
REMARK    2  A    between atoms: C_4  and  O_5
REMARK    3  A    between atoms: C_10  and  C_11
REMARK    4  A    between atoms: C_10  and  C_12
REMARK    5  A    between atoms: C_12  and  C_13
REMARK    6  A    between atoms: C_13  and  C_14
REMARK    7  A    between atoms: C_15  and  C_16
REMARK    8  A    between atoms: C_15  and  C_18
REMARK    9  A    between atoms: C_16  and  O_17
REMARK   10  A    between atoms: C_18  and  O_19
REMARK                            x       y       z     vdW  Elec       q    Type
REMARK                         _______ _______ _______ _____ _____    ______ ____
ROOT
ATOM      1  C   UNL     1       8.680   5.900  12.968  0.00  0.00    +0.000 C 
ATOM      2  C   UNL     1       7.509   5.005  13.257  0.00  0.00    +0.000 A 
ATOM      3  C   UNL     1       6.960   4.220  12.231  0.00  0.00    +0.000 A 
ATOM      4  C   UNL     1       5.877   3.389  12.494  0.00  0.00    +0.000 A 
ATOM      5  C   UNL     1       5.335   3.308  13.771  0.00  0.00    +0.000 A 
ATOM      6  C   UNL     1       5.871   4.076  14.808  0.00  0.00    +0.000 A 
ATOM      7  C   UNL     1       6.942   4.946  14.543  0.00  0.00    +0.000 A 
ATOM      8  O   UNL     1       7.488   5.769  15.498  0.00  0.00    +0.000 OA
ATOM      9  C   UNL     1       6.717   5.961  16.703  0.00  0.00    +0.000 C 
ATOM     10  C   UNL     1       5.593   6.976  16.403  0.00  0.00    +0.000 C 
ATOM     11  C   UNL     1       6.169   4.612  17.203  0.00  0.00    +0.000 C 
ATOM     12  C   UNL     1       5.257   3.976  16.173  0.00  0.00    +0.000 C 
ENDROOT
BRANCH   4  13
ATOM     13  O   UNL     1       5.303   2.623  11.524  0.00  0.00    +0.000 OA
ATOM     14  H   UNL     1       5.239   3.155  10.709  0.00  0.00    +0.000 HD
ENDBRANCH   4  13
BRANCH   9  15
ATOM     15  C   UNL     1       7.675   6.579  17.770  0.00  0.00    +0.000 C 
BRANCH  15  16
ATOM     16  C   UNL     1       7.800   8.102  17.621  0.00  0.00    +0.000 C 
BRANCH  16  17
ATOM     17  C   UNL     1       8.675   8.806  18.629  0.00  0.00    +0.000 C 
ATOM     18  C   UNL     1       8.888  10.142  18.616  0.00  0.00    +0.000 C 
BRANCH  18  19
ATOM     19  C   UNL     1       8.275  11.072  17.595  0.00  0.00    +0.000 C 
BRANCH  19  20
ATOM     20  O   UNL     1       8.599  12.416  17.932  0.00  0.00    +0.000 OA
ATOM     21  H   UNL     1       7.747  12.883  18.019  0.00  0.00    +0.000 HD
ENDBRANCH  19  20
ENDBRANCH  18  19
BRANCH  18  22
ATOM     22  C   UNL     1       9.845  10.793  19.585  0.00  0.00    +0.000 C 
BRANCH  22  23
ATOM     23  O   UNL     1       9.142  11.537  20.567  0.00  0.00    +0.000 OA
ATOM     24  H   UNL     1       8.990  12.423  20.183  0.00  0.00    +0.000 HD
ENDBRANCH  22  23
ENDBRANCH  18  22
ENDBRANCH  16  17
ENDBRANCH  15  16
ENDBRANCH   9  15
TORSDOF 8
ENDMDL
MODEL 7
REMARK VINA RESULT:      -6.3      2.673      4.888
REMARK  Name = 
REMARK  10 active torsions:
REMARK  status: ('A' for Active; 'I' for Inactive)
REMARK    1  A    between atoms: C_1  and  C_2
REMARK    2  A    between atoms: C_4  and  O_5
REMARK    3  A    between atoms: C_10  and  C_11
REMARK    4  A    between atoms: C_10  and  C_12
REMARK    5  A    between atoms: C_12  and  C_13
REMARK    6  A    between atoms: C_13  and  C_14
REMARK    7  A    between atoms: C_15  and  C_16
REMARK    8  A    between atoms: C_15  and  C_18
REMARK    9  A    between atoms: C_16  and  O_17
REMARK   10  A    between atoms: C_18  and  O_19
REMARK                            x       y       z     vdW  Elec       q    Type
REMARK                         _______ _______ _______ _____ _____    ______ ____
ROOT
ATOM      1  C   UNL     1       5.096   1.731  20.449  0.00  0.00    +0.000 C 
ATOM      2  C   UNL     1       3.765   2.427  20.495  0.00  0.00    +0.000 A 
ATOM      3  C   UNL     1       2.903   2.213  21.582  0.00  0.00    +0.000 A 
ATOM      4  C   UNL     1       1.671   2.856  21.629  0.00  0.00    +0.000 A 
ATOM      5  C   UNL     1       1.283   3.728  20.620  0.00  0.00    +0.000 A 
ATOM      6  C   UNL     1       2.130   3.960  19.532  0.00  0.00    +0.000 A 
ATOM      7  C   UNL     1       3.361   3.287  19.458  0.00  0.00    +0.000 A 
ATOM      8  O   UNL     1       4.223   3.424  18.396  0.00  0.00    +0.000 OA
ATOM      9  C   UNL     1       3.684   4.024  17.199  0.00  0.00    +0.000 C 
ATOM     10  C   UNL     1       2.858   2.955  16.451  0.00  0.00    +0.000 C 
ATOM     11  C   UNL     1       2.846   5.265  17.559  0.00  0.00    +0.000 C 
ATOM     12  C   UNL     1       1.678   4.898  18.452  0.00  0.00    +0.000 C 
ENDROOT
BRANCH   4  13
ATOM     13  O   UNL     1       0.797   2.664  22.656  0.00  0.00    +0.000 OA
ATOM     14  H   UNL     1       1.296   2.684  23.494  0.00  0.00    +0.000 HD
ENDBRANCH   4  13
BRANCH   9  15
ATOM     15  C   UNL     1       4.894   4.435  16.304  0.00  0.00    +0.000 C 
BRANCH  15  16
ATOM     16  C   UNL     1       6.234   4.278  17.036  0.00  0.00    +0.000 C 
BRANCH  16  17
ATOM     17  C   UNL     1       7.098   5.511  17.131  0.00  0.00    +0.000 C 
ATOM     18  C   UNL     1       7.396   6.116  18.304  0.00  0.00    +0.000 C 
BRANCH  18  19
ATOM     19  C   UNL     1       6.900   5.623  19.643  0.00  0.00    +0.000 C 
BRANCH  19  20
ATOM     20  O   UNL     1       8.012   5.404  20.503  0.00  0.00    +0.000 OA
ATOM     21  H   UNL     1       7.901   6.025  21.247  0.00  0.00    +0.000 HD
ENDBRANCH  19  20
ENDBRANCH  18  19
BRANCH  18  22
ATOM     22  C   UNL     1       8.185   7.402  18.345  0.00  0.00    +0.000 C 
BRANCH  22  23
ATOM     23  O   UNL     1       7.733   8.304  17.348  0.00  0.00    +0.000 OA
ATOM     24  H   UNL     1       7.318   9.052  17.821  0.00  0.00    +0.000 HD
ENDBRANCH  22  23
ENDBRANCH  18  22
ENDBRANCH  16  17
ENDBRANCH  15  16
ENDBRANCH   9  15
TORSDOF 8
ENDMDL
MODEL 8
REMARK VINA RESULT:      -6.3      5.455      8.826
REMARK  Name = 
REMARK  10 active torsions:
REMARK  status: ('A' for Active; 'I' for Inactive)
REMARK    1  A    between atoms: C_1  and  C_2
REMARK    2  A    between atoms: C_4  and  O_5
REMARK    3  A    between atoms: C_10  and  C_11
REMARK    4  A    between atoms: C_10  and  C_12
REMARK    5  A    between atoms: C_12  and  C_13
REMARK    6  A    between atoms: C_13  and  C_14
REMARK    7  A    between atoms: C_15  and  C_16
REMARK    8  A    between atoms: C_15  and  C_18
REMARK    9  A    between atoms: C_16  and  O_17
REMARK   10  A    between atoms: C_18  and  O_19
REMARK                            x       y       z     vdW  Elec       q    Type
REMARK                         _______ _______ _______ _____ _____    ______ ____
ROOT
ATOM      1  C   UNL     1      -2.332  10.136  16.250  0.00  0.00    +0.000 C 
ATOM      2  C   UNL     1      -2.130  10.728  17.616  0.00  0.00    +0.000 A 
ATOM      3  C   UNL     1      -3.096  11.594  18.151  0.00  0.00    +0.000 A 
ATOM      4  C   UNL     1      -2.914  12.143  19.416  0.00  0.00    +0.000 A 
ATOM      5  C   UNL     1      -1.791  11.832  20.172  0.00  0.00    +0.000 A 
ATOM      6  C   UNL     1      -0.821  10.966  19.660  0.00  0.00    +0.000 A 
ATOM      7  C   UNL     1      -0.979  10.436  18.369  0.00  0.00    +0.000 A 
ATOM      8  O   UNL     1      -0.044   9.620  17.778  0.00  0.00    +0.000 OA
ATOM      9  C   UNL     1       1.263   9.587  18.389  0.00  0.00    +0.000 C 
ATOM     10  C   UNL     1       2.031  10.856  17.962  0.00  0.00    +0.000 C 
ATOM     11  C   UNL     1       1.131   9.471  19.919  0.00  0.00    +0.000 C 
ATOM     12  C   UNL     1       0.386  10.659  20.496  0.00  0.00    +0.000 C 
ENDROOT
BRANCH   4  13
ATOM     13  O   UNL     1      -3.818  13.000  19.966  0.00  0.00    +0.000 OA
ATOM     14  H   UNL     1      -4.585  13.066  19.368  0.00  0.00    +0.000 HD
ENDBRANCH   4  13
BRANCH   9  15
ATOM     15  C   UNL     1       2.007   8.338  17.820  0.00  0.00    +0.000 C 
BRANCH  15  16
ATOM     16  C   UNL     1       2.338   7.314  18.915  0.00  0.00    +0.000 C 
BRANCH  16  17
ATOM     17  C   UNL     1       2.640   5.910  18.453  0.00  0.00    +0.000 C 
ATOM     18  C   UNL     1       2.197   4.808  19.101  0.00  0.00    +0.000 C 
BRANCH  18  19
ATOM     19  C   UNL     1       1.354   4.862  20.353  0.00  0.00    +0.000 C 
BRANCH  19  20
ATOM     20  O   UNL     1       0.553   3.689  20.430  0.00  0.00    +0.000 OA
ATOM     21  H   UNL     1       1.136   2.950  20.176  0.00  0.00    +0.000 HD
ENDBRANCH  19  20
ENDBRANCH  18  19
BRANCH  18  22
ATOM     22  C   UNL     1       2.602   3.422  18.659  0.00  0.00    +0.000 C 
BRANCH  22  23
ATOM     23  O   UNL     1       1.640   2.874  17.771  0.00  0.00    +0.000 OA
ATOM     24  H   UNL     1       2.143   2.441  17.054  0.00  0.00    +0.000 HD
ENDBRANCH  22  23
ENDBRANCH  18  22
ENDBRANCH  16  17
ENDBRANCH  15  16
ENDBRANCH   9  15
TORSDOF 8
ENDMDL
MODEL 9
REMARK VINA RESULT:      -6.3      4.197      5.948
REMARK  Name = 
REMARK  10 active torsions:
REMARK  status: ('A' for Active; 'I' for Inactive)
REMARK    1  A    between atoms: C_1  and  C_2
REMARK    2  A    between atoms: C_4  and  O_5
REMARK    3  A    between atoms: C_10  and  C_11
REMARK    4  A    between atoms: C_10  and  C_12
REMARK    5  A    between atoms: C_12  and  C_13
REMARK    6  A    between atoms: C_13  and  C_14
REMARK    7  A    between atoms: C_15  and  C_16
REMARK    8  A    between atoms: C_15  and  C_18
REMARK    9  A    between atoms: C_16  and  O_17
REMARK   10  A    between atoms: C_18  and  O_19
REMARK                            x       y       z     vdW  Elec       q    Type
REMARK                         _______ _______ _______ _____ _____    ______ ____
ROOT
ATOM      1  C   UNL     1       4.822   7.404  16.364  0.00  0.00    +0.000 C 
ATOM      2  C   UNL     1       4.970   5.918  16.195  0.00  0.00    +0.000 A 
ATOM      3  C   UNL     1       5.773   5.410  15.162  0.00  0.00    +0.000 A 
ATOM      4  C   UNL     1       5.913   4.035  15.002  0.00  0.00    +0.000 A 
ATOM      5  C   UNL     1       5.282   3.150  15.866  0.00  0.00    +0.000 A 
ATOM      6  C   UNL     1       4.484   3.636  16.906  0.00  0.00    +0.000 A 
ATOM      7  C   UNL     1       4.307   5.022  17.052  0.00  0.00    +0.000 A 
ATOM      8  O   UNL     1       3.498   5.573  18.017  0.00  0.00    +0.000 OA
ATOM      9  C   UNL     1       2.571   4.680  18.670  0.00  0.00    +0.000 C 
ATOM     10  C   UNL     1       1.371   4.451  17.726  0.00  0.00    +0.000 C 
ATOM     11  C   UNL     1       3.277   3.364  19.046  0.00  0.00    +0.000 C 
ATOM     12  C   UNL     1       3.806   2.655  17.816  0.00  0.00    +0.000 C 
ENDROOT
BRANCH   4  13
ATOM     13  O   UNL     1       6.668   3.499  14.003  0.00  0.00    +0.000 OA
ATOM     14  H   UNL     1       7.607   3.687  14.191  0.00  0.00    +0.000 HD
ENDBRANCH   4  13
BRANCH   9  15
ATOM     15  C   UNL     1       2.063   5.402  19.957  0.00  0.00    +0.000 C 
BRANCH  15  16
ATOM     16  C   UNL     1       2.640   6.818  20.091  0.00  0.00    +0.000 C 
BRANCH  16  17
ATOM     17  C   UNL     1       1.645   7.933  20.298  0.00  0.00    +0.000 C 
ATOM     18  C   UNL     1       1.313   8.817  19.329  0.00  0.00    +0.000 C 
BRANCH  18  19
ATOM     19  C   UNL     1       1.899   8.784  17.937  0.00  0.00    +0.000 C 
BRANCH  19  20
ATOM     20  O   UNL     1       1.939  10.106  17.413  0.00  0.00    +0.000 OA
ATOM     21  H   UNL     1       2.033  10.008  16.448  0.00  0.00    +0.000 HD
ENDBRANCH  19  20
ENDBRANCH  18  19
BRANCH  18  22
ATOM     22  C   UNL     1       0.385   9.974  19.608  0.00  0.00    +0.000 C 
BRANCH  22  23
ATOM     23  O   UNL     1      -0.530  10.156  18.539  0.00  0.00    +0.000 OA
ATOM     24  H   UNL     1      -1.361  10.476  18.941  0.00  0.00    +0.000 HD
ENDBRANCH  22  23
ENDBRANCH  18  22
ENDBRANCH  16  17
ENDBRANCH  15  16
ENDBRANCH   9  15
TORSDOF 8
ENDMDL
