MODEL 1
REMARK VINA RESULT:      -8.0      0.000      0.000
REMARK  Name = 
REMARK  5 active torsions:
REMARK  status: ('A' for Active; 'I' for Inactive)
REMARK    1  A    between atoms: C_1  and  C_2
REMARK    2  A    between atoms: C_11  and  S_12
REMARK    3  A    between atoms: S_12  and  N_15
REMARK    4  A    between atoms: N_15  and  C_16
REMARK    5  A    between atoms: C_16  and  C_17
REMARK                            x       y       z     vdW  Elec       q    Type
REMARK                         _______ _______ _______ _____ _____    ______ ____
ROOT
ATOM      1  C   UNL     1      -0.812  10.733  23.011  0.00  0.00    +0.000 C 
ATOM      2  C   UNL     1       0.015   9.771  22.195  0.00  0.00    +0.000 C 
ATOM      3  O   UNL     1       0.470   8.779  22.768  0.00  0.00    +0.000 OA
ATOM      4  N   UNL     1       0.222  10.097  20.851  0.00  0.00    +0.000 N 
ATOM      5  C   UNL     1      -0.367  11.271  20.197  0.00  0.00    +0.000 C 
ATOM      6  C   UNL     1       0.677  11.971  19.345  0.00  0.00    +0.000 C 
ATOM      7  O   UNL     1       1.160  11.121  18.303  0.00  0.00    +0.000 OA
ATOM      8  C   UNL     1       1.448   9.846  18.728  0.00  0.00    +0.000 A 
ATOM      9  C   UNL     1       2.210   9.088  17.829  0.00  0.00    +0.000 A 
ATOM     10  C   UNL     1       2.581   7.781  18.145  0.00  0.00    +0.000 A 
ATOM     11  C   UNL     1       2.156   7.231  19.357  0.00  0.00    +0.000 A 
ATOM     12  C   UNL     1       1.356   7.972  20.230  0.00  0.00    +0.000 A 
ATOM     13  C   UNL     1       1.017   9.298  19.954  0.00  0.00    +0.000 A 
ENDROOT
BRANCH  11  14
ATOM     14  S   UNL     1       2.578   5.553  19.778  0.00  0.00    +0.000 S 
ATOM     15  O   UNL     1       2.182   5.335  21.151  0.00  0.00    +0.000 OA
ATOM     16  O   UNL     1       2.090   4.719  18.702  0.00  0.00    +0.000 OA
BRANCH  14  17
ATOM     17  N   UNL     1       4.270   5.533  19.669  0.00  0.00    +0.000 NA
ATOM     18  H   UNL     1       4.699   5.844  20.541  0.00  0.00    +0.000 HD
BRANCH  17  19
ATOM     19  C   UNL     1       4.871   4.284  19.168  0.00  0.00    +0.000 C 
BRANCH  19  20
ATOM     20  C   UNL     1       5.513   4.455  17.812  0.00  0.00    +0.000 A 
ATOM     21  C   UNL     1       4.785   4.092  16.664  0.00  0.00    +0.000 A 
ATOM     22  C   UNL     1       5.369   4.159  15.398  0.00  0.00    +0.000 A 
ATOM     23  C   UNL     1       6.686   4.586  15.257  0.00  0.00    +0.000 A 
ATOM     24  C   UNL     1       7.411   4.979  16.381  0.00  0.00    +0.000 A 
ATOM     25  C   UNL     1       6.822   4.935  17.648  0.00  0.00    +0.000 A 
ATOM     26 CL   UNL     1       7.755   5.523  18.977  0.00  0.00    +0.000 Cl
ENDBRANCH  19  20
ENDBRANCH  17  19
ENDBRANCH  14  17
ENDBRANCH  11  14
TORSDOF 4
ENDMDL
MODEL 2
REMARK VINA RESULT:      -7.8      3.211      6.850
REMARK  Name = 
REMARK  5 active torsions:
REMARK  status: ('A' for Active; 'I' for Inactive)
REMARK    1  A    between atoms: C_1  and  C_2
REMARK    2  A    between atoms: C_11  and  S_12
REMARK    3  A    between atoms: S_12  and  N_15
REMARK    4  A    between atoms: N_15  and  C_16
REMARK    5  A    between atoms: C_16  and  C_17
REMARK                            x       y       z     vdW  Elec       q    Type
REMARK                         _______ _______ _______ _____ _____    ______ ____
ROOT
ATOM      1  C   UNL     1       8.312   5.961  18.924  0.00  0.00    +0.000 C 
ATOM      2  C   UNL     1       6.930   5.376  19.072  0.00  0.00    +0.000 C 
ATOM      3  O   UNL     1       6.540   5.108  20.210  0.00  0.00    +0.000 OA
ATOM      4  N   UNL     1       6.207   5.157  17.895  0.00  0.00    +0.000 N 
ATOM      5  C   UNL     1       6.693   5.522  16.560  0.00  0.00    +0.000 C 
ATOM      6  C   UNL     1       6.428   4.392  15.582  0.00  0.00    +0.000 C 
ATOM      7  O   UNL     1       5.031   4.129  15.450  0.00  0.00    +0.000 OA
ATOM      8  C   UNL     1       4.367   4.086  16.653  0.00  0.00    +0.000 A 
ATOM      9  C   UNL     1       3.084   3.526  16.594  0.00  0.00    +0.000 A 
ATOM     10  C   UNL     1       2.310   3.413  17.749  0.00  0.00    +0.000 A 
ATOM     11  C   UNL     1       2.821   3.894  18.957  0.00  0.00    +0.000 A 
ATOM     12  C   UNL     1       4.081   4.496  19.004  0.00  0.00    +0.000 A 
ATOM     13  C   UNL     1       4.891   4.572  17.869  0.00  0.00    +0.000 A 
ENDROOT
BRANCH  11  14
ATOM     14  S   UNL     1       1.846   3.802  20.444  0.00  0.00    +0.000 S 
ATOM     15  O   UNL     1       0.800   2.829  20.221  0.00  0.00    +0.000 OA
ATOM     16  O   UNL     1       2.777   3.682  21.545  0.00  0.00    +0.000 OA
BRANCH  14  17
ATOM     17  N   UNL     1       1.162   5.349  20.563  0.00  0.00    +0.000 NA
ATOM     18  H   UNL     1       0.391   5.361  21.231  0.00  0.00    +0.000 HD
BRANCH  17  19
ATOM     19  C   UNL     1       2.107   6.458  20.784  0.00  0.00    +0.000 C 
BRANCH  19  20
ATOM     20  C   UNL     1       1.836   7.638  19.883  0.00  0.00    +0.000 A 
ATOM     21  C   UNL     1       2.363   7.633  18.579  0.00  0.00    +0.000 A 
ATOM     22  C   UNL     1       2.204   8.737  17.739  0.00  0.00    +0.000 A 
ATOM     23  C   UNL     1       1.519   9.862  18.187  0.00  0.00    +0.000 A 
ATOM     24  C   UNL     1       0.962   9.871  19.466  0.00  0.00    +0.000 A 
ATOM     25  C   UNL     1       1.101   8.759  20.301  0.00  0.00    +0.000 A 
ATOM     26 CL   UNL     1       0.307   8.814  21.834  0.00  0.00    +0.000 Cl
ENDBRANCH  19  20
ENDBRANCH  17  19
ENDBRANCH  14  17
ENDBRANCH  11  14
TORSDOF 4
ENDMDL
MODEL 3
REMARK VINA RESULT:      -7.6      2.792      7.266
REMARK  Name = 
REMARK  5 active torsions:
REMARK  status: ('A' for Active; 'I' for Inactive)
REMARK    1  A    between atoms: C_1  and  C_2
REMARK    2  A    between atoms: C_11  and  S_12
REMARK    3  A    between atoms: S_12  and  N_15
REMARK    4  A    between atoms: N_15  and  C_16
REMARK    5  A    between atoms: C_16  and  C_17
REMARK                            x       y       z     vdW  Elec       q    Type
REMARK                         _______ _______ _______ _____ _____    ______ ____
ROOT
ATOM      1  C   UNL     1       8.263   6.351  18.457  0.00  0.00    +0.000 C 
ATOM      2  C   UNL     1       6.906   5.772  18.775  0.00  0.00    +0.000 C 
ATOM      3  O   UNL     1       6.564   5.732  19.957  0.00  0.00    +0.000 OA
ATOM      4  N   UNL     1       6.152   5.298  17.696  0.00  0.00    +0.000 N 
ATOM      5  C   UNL     1       6.581   5.395  16.296  0.00  0.00    +0.000 C 
ATOM      6  C   UNL     1       6.322   4.082  15.580  0.00  0.00    +0.000 C 
ATOM      7  O   UNL     1       4.930   3.761  15.560  0.00  0.00    +0.000 OA
ATOM      8  C   UNL     1       4.309   3.948  16.772  0.00  0.00    +0.000 A 
ATOM      9  C   UNL     1       3.045   3.355  16.879  0.00  0.00    +0.000 A 
ATOM     10  C   UNL     1       2.313   3.460  18.062  0.00  0.00    +0.000 A 
ATOM     11  C   UNL     1       2.848   4.192  19.125  0.00  0.00    +0.000 A 
ATOM     12  C   UNL     1       4.088   4.823  18.999  0.00  0.00    +0.000 A 
ATOM     13  C   UNL     1       4.857   4.687  17.842  0.00  0.00    +0.000 A 
ENDROOT
BRANCH  11  14
ATOM     14  S   UNL     1       1.927   4.381  20.638  0.00  0.00    +0.000 S 
ATOM     15  O   UNL     1       0.535   4.134  20.334  0.00  0.00    +0.000 OA
ATOM     16  O   UNL     1       2.631   3.627  21.651  0.00  0.00    +0.000 OA
BRANCH  14  17
ATOM     17  N   UNL     1       2.138   6.018  21.026  0.00  0.00    +0.000 NA
ATOM     18  H   UNL     1       3.006   6.165  21.541  0.00  0.00    +0.000 HD
BRANCH  17  19
ATOM     19  C   UNL     1       1.984   6.971  19.913  0.00  0.00    +0.000 C 
BRANCH  19  20
ATOM     20  C   UNL     1       1.417   8.297  20.361  0.00  0.00    +0.000 A 
ATOM     21  C   UNL     1       1.074   8.468  21.714  0.00  0.00    +0.000 A 
ATOM     22  C   UNL     1       0.476   9.649  22.155  0.00  0.00    +0.000 A 
ATOM     23  C   UNL     1       0.207  10.676  21.255  0.00  0.00    +0.000 A 
ATOM     24  C   UNL     1       0.570  10.535  19.915  0.00  0.00    +0.000 A 
ATOM     25  C   UNL     1       1.190   9.362  19.475  0.00  0.00    +0.000 A 
ATOM     26 CL   UNL     1       1.688   9.301  17.822  0.00  0.00    +0.000 Cl
ENDBRANCH  19  20
ENDBRANCH  17  19
ENDBRANCH  14  17
ENDBRANCH  11  14
TORSDOF 4
ENDMDL
MODEL 4
REMARK VINA RESULT:      -7.4      1.032      1.079
REMARK  Name = 
REMARK  5 active torsions:
REMARK  status: ('A' for Active; 'I' for Inactive)
REMARK    1  A    between atoms: C_1  and  C_2
REMARK    2  A    between atoms: C_11  and  S_12
REMARK    3  A    between atoms: S_12  and  N_15
REMARK    4  A    between atoms: N_15  and  C_16
REMARK    5  A    between atoms: C_16  and  C_17
REMARK                            x       y       z     vdW  Elec       q    Type
REMARK                         _______ _______ _______ _____ _____    ______ ____
ROOT
ATOM      1  C   UNL     1      -0.291  10.958  22.146  0.00  0.00    +0.000 C 
ATOM      2  C   UNL     1       0.422   9.775  21.538  0.00  0.00    +0.000 C 
ATOM      3  O   UNL     1       0.647   8.808  22.266  0.00  0.00    +0.000 OA
ATOM      4  N   UNL     1       0.797   9.884  20.195  0.00  0.00    +0.000 N 
ATOM      5  C   UNL     1       0.479  11.042  19.352  0.00  0.00    +0.000 C 
ATOM      6  C   UNL     1       1.697  11.446  18.541  0.00  0.00    +0.000 C 
ATOM      7  O   UNL     1       2.112  10.400  17.661  0.00  0.00    +0.000 OA
ATOM      8  C   UNL     1       2.137   9.162  18.258  0.00  0.00    +0.000 A 
ATOM      9  C   UNL     1       2.829   8.179  17.538  0.00  0.00    +0.000 A 
ATOM     10  C   UNL     1       2.939   6.883  18.040  0.00  0.00    +0.000 A 
ATOM     11  C   UNL     1       2.323   6.573  19.255  0.00  0.00    +0.000 A 
ATOM     12  C   UNL     1       1.593   7.542  19.947  0.00  0.00    +0.000 A 
ATOM     13  C   UNL     1       1.514   8.857  19.486  0.00  0.00    +0.000 A 
ENDROOT
BRANCH  11  14
ATOM     14  S   UNL     1       2.410   4.918  19.908  0.00  0.00    +0.000 S 
ATOM     15  O   UNL     1       3.460   4.896  20.901  0.00  0.00    +0.000 OA
ATOM     16  O   UNL     1       1.055   4.524  20.223  0.00  0.00    +0.000 OA
BRANCH  14  17
ATOM     17  N   UNL     1       2.880   3.990  18.569  0.00  0.00    +0.000 NA
ATOM     18  H   UNL     1       2.653   4.463  17.695  0.00  0.00    +0.000 HD
BRANCH  17  19
ATOM     19  C   UNL     1       4.264   3.486  18.586  0.00  0.00    +0.000 C 
BRANCH  19  20
ATOM     20  C   UNL     1       5.125   4.123  17.522  0.00  0.00    +0.000 A 
ATOM     21  C   UNL     1       4.829   3.877  16.169  0.00  0.00    +0.000 A 
ATOM     22  C   UNL     1       5.645   4.382  15.156  0.00  0.00    +0.000 A 
ATOM     23  C   UNL     1       6.770   5.137  15.475  0.00  0.00    +0.000 A 
ATOM     24  C   UNL     1       7.060   5.418  16.810  0.00  0.00    +0.000 A 
ATOM     25  C   UNL     1       6.232   4.932  17.826  0.00  0.00    +0.000 A 
ATOM     26 CL   UNL     1       6.609   5.398  19.447  0.00  0.00    +0.000 Cl
ENDBRANCH  19  20
ENDBRANCH  17  19
ENDBRANCH  14  17
ENDBRANCH  11  14
TORSDOF 4
ENDMDL
MODEL 5
REMARK VINA RESULT:      -7.2      3.867      8.332
REMARK  Name = 
REMARK  5 active torsions:
REMARK  status: ('A' for Active; 'I' for Inactive)
REMARK    1  A    between atoms: C_1  and  C_2
REMARK    2  A    between atoms: C_11  and  S_12
REMARK    3  A    between atoms: S_12  and  N_15
REMARK    4  A    between atoms: N_15  and  C_16
REMARK    5  A    between atoms: C_16  and  C_17
REMARK                            x       y       z     vdW  Elec       q    Type
REMARK                         _______ _______ _______ _____ _____    ______ ____
ROOT
ATOM      1  C   UNL     1       5.695   4.279  15.978  0.00  0.00    +0.000 C 
ATOM      2  C   UNL     1       4.863   5.304  16.707  0.00  0.00    +0.000 C 
ATOM      3  O   UNL     1       4.952   6.478  16.343  0.00  0.00    +0.000 OA
ATOM      4  N   UNL     1       4.072   4.841  17.764  0.00  0.00    +0.000 N 
ATOM      5  C   UNL     1       3.967   3.428  18.145  0.00  0.00    +0.000 C 
ATOM      6  C   UNL     1       4.054   3.288  19.654  0.00  0.00    +0.000 C 
ATOM      7  O   UNL     1       2.982   3.969  20.307  0.00  0.00    +0.000 OA
ATOM      8  C   UNL     1       2.748   5.228  19.806  0.00  0.00    +0.000 A 
ATOM      9  C   UNL     1       1.936   6.036  20.611  0.00  0.00    +0.000 A 
ATOM     10  C   UNL     1       1.632   7.341  20.222  0.00  0.00    +0.000 A 
ATOM     11  C   UNL     1       2.125   7.816  19.005  0.00  0.00    +0.000 A 
ATOM     12  C   UNL     1       2.895   6.992  18.181  0.00  0.00    +0.000 A 
ATOM     13  C   UNL     1       3.252   5.701  18.576  0.00  0.00    +0.000 A 
ENDROOT
BRANCH  11  14
ATOM     14  S   UNL     1       1.726   9.463  18.457  0.00  0.00    +0.000 S 
ATOM     15  O   UNL     1       1.875  10.348  19.591  0.00  0.00    +0.000 OA
ATOM     16  O   UNL     1       2.448   9.678  17.223  0.00  0.00    +0.000 OA
BRANCH  14  17
ATOM     17  N   UNL     1       0.086   9.353  18.039  0.00  0.00    +0.000 NA
ATOM     18  H   UNL     1      -0.303   8.451  18.309  0.00  0.00    +0.000 HD
BRANCH  17  19
ATOM     19  C   UNL     1      -0.766  10.477  18.465  0.00  0.00    +0.000 C 
BRANCH  19  20
ATOM     20  C   UNL     1      -2.026  10.592  17.642  0.00  0.00    +0.000 A 
ATOM     21  C   UNL     1      -2.109   9.897  16.422  0.00  0.00    +0.000 A 
ATOM     22  C   UNL     1      -3.223  10.037  15.594  0.00  0.00    +0.000 A 
ATOM     23  C   UNL     1      -4.271  10.874  15.967  0.00  0.00    +0.000 A 
ATOM     24  C   UNL     1      -4.220  11.546  17.188  0.00  0.00    +0.000 A 
ATOM     25  C   UNL     1      -3.115  11.390  18.030  0.00  0.00    +0.000 A 
ATOM     26 CL   UNL     1      -3.168  12.185  19.563  0.00  0.00    +0.000 Cl
ENDBRANCH  19  20
ENDBRANCH  17  19
ENDBRANCH  14  17
ENDBRANCH  11  14
TORSDOF 4
ENDMDL
MODEL 6
REMARK VINA RESULT:      -7.1      3.212      8.443
REMARK  Name = 
REMARK  5 active torsions:
REMARK  status: ('A' for Active; 'I' for Inactive)
REMARK    1  A    between atoms: C_1  and  C_2
REMARK    2  A    between atoms: C_11  and  S_12
REMARK    3  A    between atoms: S_12  and  N_15
REMARK    4  A    between atoms: N_15  and  C_16
REMARK    5  A    between atoms: C_16  and  C_17
REMARK                            x       y       z     vdW  Elec       q    Type
REMARK                         _______ _______ _______ _____ _____    ______ ____
ROOT
ATOM      1  C   UNL     1       3.242   2.436  20.794  0.00  0.00    +0.000 C 
ATOM      2  C   UNL     1       2.684   3.835  20.708  0.00  0.00    +0.000 C 
ATOM      3  O   UNL     1       1.796   4.146  21.503  0.00  0.00    +0.000 OA
ATOM      4  N   UNL     1       3.205   4.664  19.709  0.00  0.00    +0.000 N 
ATOM      5  C   UNL     1       4.289   4.266  18.803  0.00  0.00    +0.000 C 
ATOM      6  C   UNL     1       3.956   4.678  17.381  0.00  0.00    +0.000 C 
ATOM      7  O   UNL     1       3.823   6.095  17.262  0.00  0.00    +0.000 OA
ATOM      8  C   UNL     1       3.078   6.660  18.270  0.00  0.00    +0.000 A 
ATOM      9  C   UNL     1       2.663   7.975  18.024  0.00  0.00    +0.000 A 
ATOM     10  C   UNL     1       1.890   8.659  18.962  0.00  0.00    +0.000 A 
ATOM     11  C   UNL     1       1.563   8.022  20.162  0.00  0.00    +0.000 A 
ATOM     12  C   UNL     1       2.018   6.728  20.426  0.00  0.00    +0.000 A 
ATOM     13  C   UNL     1       2.750   6.010  19.478  0.00  0.00    +0.000 A 
ENDROOT
BRANCH  11  14
ATOM     14  S   UNL     1       0.609   8.877  21.400  0.00  0.00    +0.000 S 
ATOM     15  O   UNL     1      -0.565   8.079  21.673  0.00  0.00    +0.000 OA
ATOM     16  O   UNL     1       1.532   9.257  22.447  0.00  0.00    +0.000 OA
BRANCH  14  17
ATOM     17  N   UNL     1       0.149  10.312  20.623  0.00  0.00    +0.000 NA
ATOM     18  H   UNL     1      -0.748  10.204  20.152  0.00  0.00    +0.000 HD
BRANCH  17  19
ATOM     19  C   UNL     1       0.206  11.536  21.441  0.00  0.00    +0.000 C 
BRANCH  19  20
ATOM     20  C   UNL     1      -1.165  12.049  21.809  0.00  0.00    +0.000 A 
ATOM     21  C   UNL     1      -1.699  11.721  23.069  0.00  0.00    +0.000 A 
ATOM     22  C   UNL     1      -2.993  12.108  23.419  0.00  0.00    +0.000 A 
ATOM     23  C   UNL     1      -3.776  12.826  22.520  0.00  0.00    +0.000 A 
ATOM     24  C   UNL     1      -3.251  13.188  21.279  0.00  0.00    +0.000 A 
ATOM     25  C   UNL     1      -1.947  12.820  20.934  0.00  0.00    +0.000 A 
ATOM     26 CL   UNL     1      -1.340  13.382  19.418  0.00  0.00    +0.000 Cl
ENDBRANCH  19  20
ENDBRANCH  17  19
ENDBRANCH  14  17
ENDBRANCH  11  14
TORSDOF 4
ENDMDL
MODEL 7
REMARK VINA RESULT:      -7.0      3.019      7.788
REMARK  Name = 
REMARK  5 active torsions:
REMARK  status: ('A' for Active; 'I' for Inactive)
REMARK    1  A    between atoms: C_1  and  C_2
REMARK    2  A    between atoms: C_11  and  S_12
REMARK    3  A    between atoms: S_12  and  N_15
REMARK    4  A    between atoms: N_15  and  C_16
REMARK    5  A    between atoms: C_16  and  C_17
REMARK                            x       y       z     vdW  Elec       q    Type
REMARK                         _______ _______ _______ _____ _____    ______ ____
ROOT
ATOM      1  C   UNL     1       1.493   2.938  21.229  0.00  0.00    +0.000 C 
ATOM      2  C   UNL     1       1.621   4.222  20.448  0.00  0.00    +0.000 C 
ATOM      3  O   UNL     1       0.671   5.006  20.474  0.00  0.00    +0.000 OA
ATOM      4  N   UNL     1       2.806   4.409  19.728  0.00  0.00    +0.000 N 
ATOM      5  C   UNL     1       3.930   3.466  19.750  0.00  0.00    +0.000 C 
ATOM      6  C   UNL     1       4.451   3.245  18.342  0.00  0.00    +0.000 C 
ATOM      7  O   UNL     1       4.945   4.456  17.768  0.00  0.00    +0.000 OA
ATOM      8  C   UNL     1       4.114   5.534  17.968  0.00  0.00    +0.000 A 
ATOM      9  C   UNL     1       4.397   6.647  17.166  0.00  0.00    +0.000 A 
ATOM     10  C   UNL     1       3.620   7.801  17.263  0.00  0.00    +0.000 A 
ATOM     11  C   UNL     1       2.577   7.840  18.192  0.00  0.00    +0.000 A 
ATOM     12  C   UNL     1       2.328   6.746  19.024  0.00  0.00    +0.000 A 
ATOM     13  C   UNL     1       3.062   5.564  18.907  0.00  0.00    +0.000 A 
ENDROOT
BRANCH  11  14
ATOM     14  S   UNL     1       1.588   9.310  18.370  0.00  0.00    +0.000 S 
ATOM     15  O   UNL     1       2.419  10.440  18.019  0.00  0.00    +0.000 OA
ATOM     16  O   UNL     1       0.332   9.051  17.702  0.00  0.00    +0.000 OA
BRANCH  14  17
ATOM     17  N   UNL     1       1.247   9.356  20.031  0.00  0.00    +0.000 NA
ATOM     18  H   UNL     1       1.744  10.119  20.489  0.00  0.00    +0.000 HD
BRANCH  17  19
ATOM     19  C   UNL     1      -0.180   9.323  20.398  0.00  0.00    +0.000 C 
BRANCH  19  20
ATOM     20  C   UNL     1      -0.668  10.643  20.944  0.00  0.00    +0.000 A 
ATOM     21  C   UNL     1      -1.098  11.635  20.043  0.00  0.00    +0.000 A 
ATOM     22  C   UNL     1      -1.483  12.896  20.500  0.00  0.00    +0.000 A 
ATOM     23  C   UNL     1      -1.443  13.189  21.860  0.00  0.00    +0.000 A 
ATOM     24  C   UNL     1      -1.049  12.208  22.769  0.00  0.00    +0.000 A 
ATOM     25  C   UNL     1      -0.684  10.937  22.317  0.00  0.00    +0.000 A 
ATOM     26 CL   UNL     1      -0.296   9.751  23.511  0.00  0.00    +0.000 Cl
ENDBRANCH  19  20
ENDBRANCH  17  19
ENDBRANCH  14  17
ENDBRANCH  11  14
TORSDOF 4
ENDMDL
MODEL 8
REMARK VINA RESULT:      -7.0      3.788      7.833
REMARK  Name = 
REMARK  5 active torsions:
REMARK  status: ('A' for Active; 'I' for Inactive)
REMARK    1  A    between atoms: C_1  and  C_2
REMARK    2  A    between atoms: C_11  and  S_12
REMARK    3  A    between atoms: S_12  and  N_15
REMARK    4  A    between atoms: N_15  and  C_16
REMARK    5  A    between atoms: C_16  and  C_17
REMARK                            x       y       z     vdW  Elec       q    Type
REMARK                         _______ _______ _______ _____ _____    ______ ____
ROOT
ATOM      1  C   UNL     1       1.966   2.478  20.512  0.00  0.00    +0.000 C 
ATOM      2  C   UNL     1       1.782   3.956  20.271  0.00  0.00    +0.000 C 
ATOM      3  O   UNL     1       0.844   4.515  20.841  0.00  0.00    +0.000 OA
ATOM      4  N   UNL     1       2.680   4.570  19.393  0.00  0.00    +0.000 N 
ATOM      5  C   UNL     1       3.807   3.874  18.761  0.00  0.00    +0.000 C 
ATOM      6  C   UNL     1       3.887   4.242  17.290  0.00  0.00    +0.000 C 
ATOM      7  O   UNL     1       4.117   5.641  17.111  0.00  0.00    +0.000 OA
ATOM      8  C   UNL     1       3.329   6.431  17.914  0.00  0.00    +0.000 A 
ATOM      9  C   UNL     1       3.295   7.784  17.550  0.00  0.00    +0.000 A 
ATOM     10  C   UNL     1       2.523   8.690  18.277  0.00  0.00    +0.000 A 
ATOM     11  C   UNL     1       1.811   8.235  19.389  0.00  0.00    +0.000 A 
ATOM     12  C   UNL     1       1.886   6.895  19.779  0.00  0.00    +0.000 A 
ATOM     13  C   UNL     1       2.612   5.963  19.035  0.00  0.00    +0.000 A 
ENDROOT
BRANCH  11  14
ATOM     14  S   UNL     1       0.846   9.370  20.364  0.00  0.00    +0.000 S 
ATOM     15  O   UNL     1       0.564   8.729  21.628  0.00  0.00    +0.000 OA
ATOM     16  O   UNL     1       1.512  10.652  20.291  0.00  0.00    +0.000 OA
BRANCH  14  17
ATOM     17  N   UNL     1      -0.591   9.527  19.478  0.00  0.00    +0.000 NA
ATOM     18  H   UNL     1      -1.408   9.454  20.083  0.00  0.00    +0.000 HD
BRANCH  17  19
ATOM     19  C   UNL     1      -0.670  10.690  18.576  0.00  0.00    +0.000 C 
BRANCH  19  20
ATOM     20  C   UNL     1      -1.990  10.769  17.847  0.00  0.00    +0.000 A 
ATOM     21  C   UNL     1      -2.141  10.069  16.636  0.00  0.00    +0.000 A 
ATOM     22  C   UNL     1      -3.316  10.177  15.890  0.00  0.00    +0.000 A 
ATOM     23  C   UNL     1      -4.356  10.986  16.338  0.00  0.00    +0.000 A 
ATOM     24  C   UNL     1      -4.235  11.661  17.552  0.00  0.00    +0.000 A 
ATOM     25  C   UNL     1      -3.069  11.537  18.312  0.00  0.00    +0.000 A 
ATOM     26 CL   UNL     1      -3.033  12.333  19.845  0.00  0.00    +0.000 Cl
ENDBRANCH  19  20
ENDBRANCH  17  19
ENDBRANCH  14  17
ENDBRANCH  11  14
TORSDOF 4
ENDMDL
MODEL 9
REMARK VINA RESULT:      -6.9      3.718      5.831
REMARK  Name = 
REMARK  5 active torsions:
REMARK  status: ('A' for Active; 'I' for Inactive)
REMARK    1  A    between atoms: C_1  and  C_2
REMARK    2  A    between atoms: C_11  and  S_12
REMARK    3  A    between atoms: S_12  and  N_15
REMARK    4  A    between atoms: N_15  and  C_16
REMARK    5  A    between atoms: C_16  and  C_17
REMARK                            x       y       z     vdW  Elec       q    Type
REMARK                         _______ _______ _______ _____ _____    ______ ____
ROOT
ATOM      1  C   UNL     1      -3.748  10.012  14.984  0.00  0.00    +0.000 C 
ATOM      2  C   UNL     1      -2.933  10.278  16.225  0.00  0.00    +0.000 C 
ATOM      3  O   UNL     1      -1.869   9.671  16.352  0.00  0.00    +0.000 OA
ATOM      4  N   UNL     1      -3.468  11.179  17.152  0.00  0.00    +0.000 N 
ATOM      5  C   UNL     1      -4.724  11.909  16.947  0.00  0.00    +0.000 C 
ATOM      6  C   UNL     1      -5.559  11.875  18.215  0.00  0.00    +0.000 C 
ATOM      7  O   UNL     1      -4.888  12.512  19.302  0.00  0.00    +0.000 OA
ATOM      8  C   UNL     1      -3.564  12.156  19.412  0.00  0.00    +0.000 A 
ATOM      9  C   UNL     1      -2.964  12.502  20.630  0.00  0.00    +0.000 A 
ATOM     10  C   UNL     1      -1.628  12.186  20.873  0.00  0.00    +0.000 A 
ATOM     11  C   UNL     1      -0.891  11.547  19.873  0.00  0.00    +0.000 A 
ATOM     12  C   UNL     1      -1.478  11.246  18.642  0.00  0.00    +0.000 A 
ATOM     13  C   UNL     1      -2.828  11.508  18.398  0.00  0.00    +0.000 A 
ENDROOT
BRANCH  11  14
ATOM     14  S   UNL     1       0.829  11.162  20.133  0.00  0.00    +0.000 S 
ATOM     15  O   UNL     1       1.607  12.248  19.580  0.00  0.00    +0.000 OA
ATOM     16  O   UNL     1       0.960  10.756  21.515  0.00  0.00    +0.000 OA
BRANCH  14  17
ATOM     17  N   UNL     1       1.065   9.766  19.199  0.00  0.00    +0.000 NA
ATOM     18  H   UNL     1       1.722   9.938  18.439  0.00  0.00    +0.000 HD
BRANCH  17  19
ATOM     19  C   UNL     1       1.387   8.537  19.946  0.00  0.00    +0.000 C 
BRANCH  19  20
ATOM     20  C   UNL     1       2.272   7.599  19.161  0.00  0.00    +0.000 A 
ATOM     21  C   UNL     1       2.976   8.097  18.050  0.00  0.00    +0.000 A 
ATOM     22  C   UNL     1       3.743   7.247  17.250  0.00  0.00    +0.000 A 
ATOM     23  C   UNL     1       3.818   5.889  17.545  0.00  0.00    +0.000 A 
ATOM     24  C   UNL     1       3.152   5.384  18.661  0.00  0.00    +0.000 A 
ATOM     25  C   UNL     1       2.401   6.237  19.476  0.00  0.00    +0.000 A 
ATOM     26 CL   UNL     1       1.680   5.551  20.889  0.00  0.00    +0.000 Cl
ENDBRANCH  19  20
ENDBRANCH  17  19
ENDBRANCH  14  17
ENDBRANCH  11  14
TORSDOF 4
ENDMDL
