MODEL 1
REMARK VINA RESULT:      -7.0      0.000      0.000
REMARK  Name = 
REMARK  8 active torsions:
REMARK  status: ('A' for Active; 'I' for Inactive)
REMARK    1  A    between atoms: C_1  and  N_2
REMARK    2  A    between atoms: C_4  and  C_5
REMARK    3  A    between atoms: C_11  and  N_12
REMARK    4  A    between atoms: N_15  and  C_16
REMARK    5  A    between atoms: C_16  and  C_17
REMARK    6  A    between atoms: C_16  and  C_19
REMARK    7  A    between atoms: C_17  and  N_18
REMARK    8  A    between atoms: C_22  and  C_23
REMARK                            x       y       z     vdW  Elec       q    Type
REMARK                         _______ _______ _______ _____ _____    ______ ____
ROOT
ATOM      1  N   UNL     1      -1.974  13.371  22.193  0.00  0.00    +0.000 N 
ATOM      2  C   UNL     1      -1.072  14.062  21.251  0.00  0.00    +0.000 C 
ATOM      3  C   UNL     1       0.378  13.525  21.322  0.00  0.00    +0.000 C 
ATOM      4  N   UNL     1       0.516  12.047  21.216  0.00  0.00    +0.000 NA
ATOM      5  C   UNL     1      -0.287  11.504  22.343  0.00  0.00    +0.000 C 
ATOM      6  C   UNL     1      -1.772  11.922  22.360  0.00  0.00    +0.000 C 
ENDROOT
BRANCH   1  13
ATOM      7  C   UNL     1      -4.091  14.365  23.039  0.00  0.00    +0.000 A 
ATOM      8  C   UNL     1      -4.617  15.200  24.036  0.00  0.00    +0.000 A 
ATOM      9  N   UNL     1      -5.973  15.552  24.110  0.00  0.00    +0.000 N 
ATOM     10  N   UNL     1      -3.889  15.730  25.037  0.00  0.00    +0.000 NA
ATOM     11  C   UNL     1      -2.591  15.445  25.003  0.00  0.00    +0.000 A 
ATOM     12  N   UNL     1      -1.969  14.698  24.091  0.00  0.00    +0.000 NA
ATOM     13  C   UNL     1      -2.701  14.133  23.098  0.00  0.00    +0.000 A 
ATOM     14  H   UNL     1      -6.311  15.909  23.222  0.00  0.00    +0.000 HD
ATOM     15  H   UNL     1      -6.071  16.224  24.866  0.00  0.00    +0.000 HD
BRANCH   7  19
ATOM     16  C   UNL     1      -7.158  11.433  20.446  0.00  0.00    +0.000 C 
ATOM     17  N   UNL     1      -6.290  12.515  20.840  0.00  0.00    +0.000 N 
ATOM     18  C   UNL     1      -5.661  12.662  22.040  0.00  0.00    +0.000 A 
ATOM     19  C   UNL     1      -4.959  13.850  21.977  0.00  0.00    +0.000 A 
ATOM     20  C   UNL     1      -5.270  14.352  20.692  0.00  0.00    +0.000 A 
ATOM     21  N   UNL     1      -6.050  13.526  19.986  0.00  0.00    +0.000 NA
ENDBRANCH   7  19
ENDBRANCH   1  13
BRANCH   4  22
ATOM     22  C   UNL     1       0.068  11.521  19.885  0.00  0.00    +0.000 C 
BRANCH  22  23
ATOM     23  C   UNL     1       0.759  10.211  19.474  0.00  0.00    +0.000 A 
ATOM     24  C   UNL     1       1.187  10.022  18.148  0.00  0.00    +0.000 A 
ATOM     25  C   UNL     1       1.867   8.856  17.772  0.00  0.00    +0.000 A 
ATOM     26  C   UNL     1       2.141   7.856  18.713  0.00  0.00    +0.000 A 
ATOM     27  C   UNL     1       1.697   8.032  20.031  0.00  0.00    +0.000 A 
ATOM     28  C   UNL     1       1.009   9.191  20.403  0.00  0.00    +0.000 A 
BRANCH  26  29
ATOM     29  C   UNL     1       2.914   6.614  18.345  0.00  0.00    +0.000 C 
ATOM     30  F   UNL     1       2.144   5.631  17.798  0.00  0.00    +0.000 F 
ATOM     31  F   UNL     1       3.897   6.861  17.433  0.00  0.00    +0.000 F 
ATOM     32  F   UNL     1       3.536   6.044  19.416  0.00  0.00    +0.000 F 
ENDBRANCH  26  29
ENDBRANCH  22  23
BRANCH  22  33
ATOM     33  C   UNL     1       0.224  12.570  18.720  0.00  0.00    +0.000 C 
BRANCH  33  34
ATOM     34  N   UNL     1      -0.974  12.777  17.896  0.00  0.00    +0.000 NA
ATOM     35  H   UNL     1      -1.353  11.865  17.643  0.00  0.00    +0.000 HD
ATOM     36  H   UNL     1      -0.732  13.269  17.039  0.00  0.00    +0.000 HD
ENDBRANCH  33  34
ENDBRANCH  22  33
ENDBRANCH   4  22
TORSDOF 7
ENDMDL
MODEL 2
REMARK VINA RESULT:      -7.0      0.300      1.115
REMARK  Name = 
REMARK  8 active torsions:
REMARK  status: ('A' for Active; 'I' for Inactive)
REMARK    1  A    between atoms: C_1  and  N_2
REMARK    2  A    between atoms: C_4  and  C_5
REMARK    3  A    between atoms: C_11  and  N_12
REMARK    4  A    between atoms: N_15  and  C_16
REMARK    5  A    between atoms: C_16  and  C_17
REMARK    6  A    between atoms: C_16  and  C_19
REMARK    7  A    between atoms: C_17  and  N_18
REMARK    8  A    between atoms: C_22  and  C_23
REMARK                            x       y       z     vdW  Elec       q    Type
REMARK                         _______ _______ _______ _____ _____    ______ ____
ROOT
ATOM      1  N   UNL     1      -1.841  13.125  22.221  0.00  0.00    +0.000 N 
ATOM      2  C   UNL     1      -0.902  13.801  21.305  0.00  0.00    +0.000 C 
ATOM      3  C   UNL     1       0.537  13.240  21.415  0.00  0.00    +0.000 C 
ATOM      4  N   UNL     1       0.652  11.760  21.311  0.00  0.00    +0.000 NA
ATOM      5  C   UNL     1      -0.189  11.230  22.415  0.00  0.00    +0.000 C 
ATOM      6  C   UNL     1      -1.667  11.672  22.392  0.00  0.00    +0.000 C 
ENDROOT
BRANCH   1  13
ATOM      7  C   UNL     1      -3.961  14.163  23.004  0.00  0.00    +0.000 A 
ATOM      8  C   UNL     1      -4.500  15.004  23.989  0.00  0.00    +0.000 A 
ATOM      9  N   UNL     1      -5.849  15.388  24.021  0.00  0.00    +0.000 N 
ATOM     10  N   UNL     1      -3.793  15.510  25.017  0.00  0.00    +0.000 NA
ATOM     11  C   UNL     1      -2.501  15.195  25.024  0.00  0.00    +0.000 A 
ATOM     12  N   UNL     1      -1.868  14.439  24.128  0.00  0.00    +0.000 NA
ATOM     13  C   UNL     1      -2.579  13.898  23.107  0.00  0.00    +0.000 A 
ATOM     14  H   UNL     1      -6.148  15.759  23.124  0.00  0.00    +0.000 HD
ATOM     15  H   UNL     1      -5.955  16.058  24.777  0.00  0.00    +0.000 HD
BRANCH   7  19
ATOM     16  C   UNL     1      -7.168  11.429  20.367  0.00  0.00    +0.000 C 
ATOM     17  N   UNL     1      -6.204  12.427  20.758  0.00  0.00    +0.000 N 
ATOM     18  C   UNL     1      -5.652  12.588  21.994  0.00  0.00    +0.000 A 
ATOM     19  C   UNL     1      -4.805  13.676  21.910  0.00  0.00    +0.000 A 
ATOM     20  C   UNL     1      -4.954  14.112  20.573  0.00  0.00    +0.000 A 
ATOM     21  N   UNL     1      -5.776  13.334  19.861  0.00  0.00    +0.000 NA
ENDBRANCH   7  19
ENDBRANCH   1  13
BRANCH   4  22
ATOM     22  C   UNL     1       0.233  11.242  19.967  0.00  0.00    +0.000 C 
BRANCH  22  23
ATOM     23  C   UNL     1       0.987   9.977  19.528  0.00  0.00    +0.000 A 
ATOM     24  C   UNL     1       1.192   8.923  20.435  0.00  0.00    +0.000 A 
ATOM     25  C   UNL     1       1.829   7.743  20.033  0.00  0.00    +0.000 A 
ATOM     26  C   UNL     1       2.272   7.585  18.714  0.00  0.00    +0.000 A 
ATOM     27  C   UNL     1       2.090   8.643  17.813  0.00  0.00    +0.000 A 
ATOM     28  C   UNL     1       1.462   9.825  18.218  0.00  0.00    +0.000 A 
BRANCH  26  29
ATOM     29  C   UNL     1       2.917   6.306  18.244  0.00  0.00    +0.000 C 
ATOM     30  F   UNL     1       3.829   6.486  17.246  0.00  0.00    +0.000 F 
ATOM     31  F   UNL     1       3.586   5.661  19.242  0.00  0.00    +0.000 F 
ATOM     32  F   UNL     1       2.014   5.407  17.761  0.00  0.00    +0.000 F 
ENDBRANCH  26  29
ENDBRANCH  22  23
BRANCH  22  33
ATOM     33  C   UNL     1       0.337  12.324  18.826  0.00  0.00    +0.000 C 
BRANCH  33  34
ATOM     34  N   UNL     1      -0.850  12.454  17.972  0.00  0.00    +0.000 NA
ATOM     35  H   UNL     1      -1.612  11.923  18.395  0.00  0.00    +0.000 HD
ATOM     36  H   UNL     1      -0.666  12.065  17.051  0.00  0.00    +0.000 HD
ENDBRANCH  33  34
ENDBRANCH  22  33
ENDBRANCH   4  22
TORSDOF 7
ENDMDL
MODEL 3
REMARK VINA RESULT:      -6.9      0.956      1.582
REMARK  Name = 
REMARK  8 active torsions:
REMARK  status: ('A' for Active; 'I' for Inactive)
REMARK    1  A    between atoms: C_1  and  N_2
REMARK    2  A    between atoms: C_4  and  C_5
REMARK    3  A    between atoms: C_11  and  N_12
REMARK    4  A    between atoms: N_15  and  C_16
REMARK    5  A    between atoms: C_16  and  C_17
REMARK    6  A    between atoms: C_16  and  C_19
REMARK    7  A    between atoms: C_17  and  N_18
REMARK    8  A    between atoms: C_22  and  C_23
REMARK                            x       y       z     vdW  Elec       q    Type
REMARK                         _______ _______ _______ _____ _____    ______ ____
ROOT
ATOM      1  N   UNL     1      -1.391  12.756  22.232  0.00  0.00    +0.000 N 
ATOM      2  C   UNL     1      -0.573  13.320  21.141  0.00  0.00    +0.000 C 
ATOM      3  C   UNL     1       0.865  12.745  21.125  0.00  0.00    +0.000 C 
ATOM      4  N   UNL     1       0.958  11.261  21.158  0.00  0.00    +0.000 NA
ATOM      5  C   UNL     1       0.261  10.859  22.408  0.00  0.00    +0.000 C 
ATOM      6  C   UNL     1      -1.206  11.324  22.527  0.00  0.00    +0.000 C 
ENDROOT
BRANCH   1  13
ATOM      7  C   UNL     1      -3.386  13.920  23.155  0.00  0.00    +0.000 A 
ATOM      8  C   UNL     1      -3.790  14.863  24.112  0.00  0.00    +0.000 A 
ATOM      9  N   UNL     1      -5.120  15.285  24.264  0.00  0.00    +0.000 N 
ATOM     10  N   UNL     1      -2.958  15.441  24.998  0.00  0.00    +0.000 NA
ATOM     11  C   UNL     1      -1.681  15.092  24.885  0.00  0.00    +0.000 A 
ATOM     12  N   UNL     1      -1.170  14.240  23.997  0.00  0.00    +0.000 NA
ATOM     13  C   UNL     1      -2.006  13.627  23.121  0.00  0.00    +0.000 A 
ATOM     14  H   UNL     1      -5.517  15.580  23.377  0.00  0.00    +0.000 HD
ATOM     15  H   UNL     1      -5.124  16.024  24.961  0.00  0.00    +0.000 HD
BRANCH   7  19
ATOM     16  C   UNL     1      -5.975  13.009  19.010  0.00  0.00    +0.000 C 
ATOM     17  N   UNL     1      -5.510  13.000  20.374  0.00  0.00    +0.000 N 
ATOM     18  C   UNL     1      -4.443  13.683  20.877  0.00  0.00    +0.000 A 
ATOM     19  C   UNL     1      -4.361  13.358  22.218  0.00  0.00    +0.000 A 
ATOM     20  C   UNL     1      -5.419  12.438  22.402  0.00  0.00    +0.000 A 
ATOM     21  N   UNL     1      -6.141  12.246  21.293  0.00  0.00    +0.000 NA
ENDBRANCH   7  19
ENDBRANCH   1  13
BRANCH   4  22
ATOM     22  C   UNL     1       0.368  10.619  19.938  0.00  0.00    +0.000 C 
BRANCH  22  23
ATOM     23  C   UNL     1       1.161   9.403  19.434  0.00  0.00    +0.000 A 
ATOM     24  C   UNL     1       1.471   8.347  20.308  0.00  0.00    +0.000 A 
ATOM     25  C   UNL     1       2.145   7.208  19.848  0.00  0.00    +0.000 A 
ATOM     26  C   UNL     1       2.519   7.096  18.503  0.00  0.00    +0.000 A 
ATOM     27  C   UNL     1       2.231   8.157  17.634  0.00  0.00    +0.000 A 
ATOM     28  C   UNL     1       1.568   9.297  18.096  0.00  0.00    +0.000 A 
BRANCH  26  29
ATOM     29  C   UNL     1       3.203   5.860  17.973  0.00  0.00    +0.000 C 
ATOM     30  F   UNL     1       4.060   6.107  16.942  0.00  0.00    +0.000 F 
ATOM     31  F   UNL     1       3.944   5.224  18.925  0.00  0.00    +0.000 F 
ATOM     32  F   UNL     1       2.322   4.930  17.507  0.00  0.00    +0.000 F 
ENDBRANCH  26  29
ENDBRANCH  22  23
BRANCH  22  33
ATOM     33  C   UNL     1       0.163  11.628  18.746  0.00  0.00    +0.000 C 
BRANCH  33  34
ATOM     34  N   UNL     1      -1.112  11.502  18.027  0.00  0.00    +0.000 NA
ATOM     35  H   UNL     1      -1.810  11.130  18.671  0.00  0.00    +0.000 HD
ATOM     36  H   UNL     1      -1.017  10.850  17.252  0.00  0.00    +0.000 HD
ENDBRANCH  33  34
ENDBRANCH  22  33
ENDBRANCH   4  22
TORSDOF 7
ENDMDL
MODEL 4
REMARK VINA RESULT:      -6.9      0.613      1.144
REMARK  Name = 
REMARK  8 active torsions:
REMARK  status: ('A' for Active; 'I' for Inactive)
REMARK    1  A    between atoms: C_1  and  N_2
REMARK    2  A    between atoms: C_4  and  C_5
REMARK    3  A    between atoms: C_11  and  N_12
REMARK    4  A    between atoms: N_15  and  C_16
REMARK    5  A    between atoms: C_16  and  C_17
REMARK    6  A    between atoms: C_16  and  C_19
REMARK    7  A    between atoms: C_17  and  N_18
REMARK    8  A    between atoms: C_22  and  C_23
REMARK                            x       y       z     vdW  Elec       q    Type
REMARK                         _______ _______ _______ _____ _____    ______ ____
ROOT
ATOM      1  N   UNL     1      -1.657  13.075  22.221  0.00  0.00    +0.000 N 
ATOM      2  C   UNL     1      -0.767  13.730  21.244  0.00  0.00    +0.000 C 
ATOM      3  C   UNL     1       0.672  13.160  21.283  0.00  0.00    +0.000 C 
ATOM      4  N   UNL     1       0.773  11.678  21.198  0.00  0.00    +0.000 NA
ATOM      5  C   UNL     1      -0.010  11.172  22.355  0.00  0.00    +0.000 C 
ATOM      6  C   UNL     1      -1.484  11.624  22.407  0.00  0.00    +0.000 C 
ENDROOT
BRANCH   1  13
ATOM      7  C   UNL     1      -3.722  14.151  23.096  0.00  0.00    +0.000 A 
ATOM      8  C   UNL     1      -4.201  15.010  24.096  0.00  0.00    +0.000 A 
ATOM      9  N   UNL     1      -5.542  15.413  24.190  0.00  0.00    +0.000 N 
ATOM     10  N   UNL     1      -3.437  15.517  25.082  0.00  0.00    +0.000 NA
ATOM     11  C   UNL     1      -2.152  15.184  25.029  0.00  0.00    +0.000 A 
ATOM     12  N   UNL     1      -1.573  14.410  24.112  0.00  0.00    +0.000 NA
ATOM     13  C   UNL     1      -2.340  13.868  23.133  0.00  0.00    +0.000 A 
ATOM     14  H   UNL     1      -5.880  15.778  23.305  0.00  0.00    +0.000 HD
ATOM     15  H   UNL     1      -5.601  16.092  24.943  0.00  0.00    +0.000 HD
BRANCH   7  19
ATOM     16  C   UNL     1      -6.240  13.771  18.826  0.00  0.00    +0.000 C 
ATOM     17  N   UNL     1      -5.750  13.541  20.161  0.00  0.00    +0.000 N 
ATOM     18  C   UNL     1      -4.783  14.250  20.809  0.00  0.00    +0.000 A 
ATOM     19  C   UNL     1      -4.625  13.664  22.050  0.00  0.00    +0.000 A 
ATOM     20  C   UNL     1      -5.534  12.580  22.023  0.00  0.00    +0.000 A 
ATOM     21  N   UNL     1      -6.244  12.524  20.891  0.00  0.00    +0.000 NA
ENDBRANCH   7  19
ENDBRANCH   1  13
BRANCH   4  22
ATOM     22  C   UNL     1       0.276  11.141  19.888  0.00  0.00    +0.000 C 
BRANCH  22  23
ATOM     23  C   UNL     1       0.980   9.850  19.442  0.00  0.00    +0.000 A 
ATOM     24  C   UNL     1       1.433   9.712  18.119  0.00  0.00    +0.000 A 
ATOM     25  C   UNL     1       2.125   8.563  17.713  0.00  0.00    +0.000 A 
ATOM     26  C   UNL     1       2.386   7.529  18.621  0.00  0.00    +0.000 A 
ATOM     27  C   UNL     1       1.915   7.655  19.935  0.00  0.00    +0.000 A 
ATOM     28  C   UNL     1       1.216   8.797  20.337  0.00  0.00    +0.000 A 
BRANCH  26  29
ATOM     29  C   UNL     1       3.170   6.304  18.222  0.00  0.00    +0.000 C 
ATOM     30  F   UNL     1       3.825   5.710  19.259  0.00  0.00    +0.000 F 
ATOM     31  F   UNL     1       2.381   5.333  17.679  0.00  0.00    +0.000 F 
ATOM     32  F   UNL     1       4.124   6.573  17.286  0.00  0.00    +0.000 F 
ENDBRANCH  26  29
ENDBRANCH  22  23
BRANCH  22  33
ATOM     33  C   UNL     1       0.349  12.195  18.719  0.00  0.00    +0.000 C 
BRANCH  33  34
ATOM     34  N   UNL     1      -0.895  12.381  17.961  0.00  0.00    +0.000 NA
ATOM     35  H   UNL     1      -0.696  12.976  17.157  0.00  0.00    +0.000 HD
ATOM     36  H   UNL     1      -1.593  12.846  18.536  0.00  0.00    +0.000 HD
ENDBRANCH  33  34
ENDBRANCH  22  33
ENDBRANCH   4  22
TORSDOF 7
ENDMDL
MODEL 5
REMARK VINA RESULT:      -6.9      3.060      4.879
REMARK  Name = 
REMARK  8 active torsions:
REMARK  status: ('A' for Active; 'I' for Inactive)
REMARK    1  A    between atoms: C_1  and  N_2
REMARK    2  A    between atoms: C_4  and  C_5
REMARK    3  A    between atoms: C_11  and  N_12
REMARK    4  A    between atoms: N_15  and  C_16
REMARK    5  A    between atoms: C_16  and  C_17
REMARK    6  A    between atoms: C_16  and  C_19
REMARK    7  A    between atoms: C_17  and  N_18
REMARK    8  A    between atoms: C_22  and  C_23
REMARK                            x       y       z     vdW  Elec       q    Type
REMARK                         _______ _______ _______ _____ _____    ______ ____
ROOT
ATOM      1  N   UNL     1       1.426  12.025  19.627  0.00  0.00    +0.000 N 
ATOM      2  C   UNL     1       0.843  11.496  20.875  0.00  0.00    +0.000 C 
ATOM      3  C   UNL     1      -0.099  10.294  20.624  0.00  0.00    +0.000 C 
ATOM      4  N   UNL     1       0.472   9.202  19.789  0.00  0.00    +0.000 NA
ATOM      5  C   UNL     1       0.830   9.849  18.501  0.00  0.00    +0.000 C 
ATOM      6  C   UNL     1       1.811  11.035  18.605  0.00  0.00    +0.000 C 
ENDROOT
BRANCH   1  13
ATOM      7  C   UNL     1       0.030  14.042  19.215  0.00  0.00    +0.000 A 
ATOM      8  C   UNL     1       0.098  15.402  18.877  0.00  0.00    +0.000 A 
ATOM      9  N   UNL     1      -1.036  16.207  18.692  0.00  0.00    +0.000 N 
ATOM     10  N   UNL     1       1.249  16.082  18.719  0.00  0.00    +0.000 NA
ATOM     11  C   UNL     1       2.356  15.361  18.862  0.00  0.00    +0.000 A 
ATOM     12  N   UNL     1       2.420  14.060  19.144  0.00  0.00    +0.000 NA
ATOM     13  C   UNL     1       1.267  13.373  19.337  0.00  0.00    +0.000 A 
ATOM     14  H   UNL     1      -1.692  15.779  18.047  0.00  0.00    +0.000 HD
ATOM     15  H   UNL     1      -0.712  17.117  18.376  0.00  0.00    +0.000 HD
BRANCH   7  19
ATOM     16  C   UNL     1      -3.990  11.283  18.237  0.00  0.00    +0.000 C 
ATOM     17  N   UNL     1      -3.052  12.176  18.871  0.00  0.00    +0.000 N 
ATOM     18  C   UNL     1      -1.818  12.526  18.408  0.00  0.00    +0.000 A 
ATOM     19  C   UNL     1      -1.270  13.380  19.346  0.00  0.00    +0.000 A 
ATOM     20  C   UNL     1      -2.260  13.444  20.354  0.00  0.00    +0.000 A 
ATOM     21  N   UNL     1      -3.357  12.743  20.052  0.00  0.00    +0.000 NA
ENDBRANCH   7  19
ENDBRANCH   1  13
BRANCH   4  22
ATOM     22  C   UNL     1       1.644   8.530  20.441  0.00  0.00    +0.000 C 
BRANCH  22  23
ATOM     23  C   UNL     1       1.980   7.155  19.844  0.00  0.00    +0.000 A 
ATOM     24  C   UNL     1       1.662   5.980  20.547  0.00  0.00    +0.000 A 
ATOM     25  C   UNL     1       1.913   4.719  19.991  0.00  0.00    +0.000 A 
ATOM     26  C   UNL     1       2.481   4.603  18.716  0.00  0.00    +0.000 A 
ATOM     27  C   UNL     1       2.820   5.773  18.022  0.00  0.00    +0.000 A 
ATOM     28  C   UNL     1       2.579   7.030  18.582  0.00  0.00    +0.000 A 
BRANCH  26  29
ATOM     29  C   UNL     1       2.717   3.259  18.075  0.00  0.00    +0.000 C 
ATOM     30  F   UNL     1       2.529   3.254  16.724  0.00  0.00    +0.000 F 
ATOM     31  F   UNL     1       3.986   2.801  18.271  0.00  0.00    +0.000 F 
ATOM     32  F   UNL     1       1.893   2.290  18.566  0.00  0.00    +0.000 F 
ENDBRANCH  26  29
ENDBRANCH  22  23
BRANCH  22  33
ATOM     33  C   UNL     1       1.485   8.386  22.003  0.00  0.00    +0.000 C 
BRANCH  33  34
ATOM     34  N   UNL     1       2.396   9.212  22.806  0.00  0.00    +0.000 NA
ATOM     35  H   UNL     1       2.535  10.101  22.325  0.00  0.00    +0.000 HD
ATOM     36  H   UNL     1       3.300   8.755  22.896  0.00  0.00    +0.000 HD
ENDBRANCH  33  34
ENDBRANCH  22  33
ENDBRANCH   4  22
TORSDOF 7
ENDMDL
MODEL 6
REMARK VINA RESULT:      -6.8      4.231      6.419
REMARK  Name = 
REMARK  8 active torsions:
REMARK  status: ('A' for Active; 'I' for Inactive)
REMARK    1  A    between atoms: C_1  and  N_2
REMARK    2  A    between atoms: C_4  and  C_5
REMARK    3  A    between atoms: C_11  and  N_12
REMARK    4  A    between atoms: N_15  and  C_16
REMARK    5  A    between atoms: C_16  and  C_17
REMARK    6  A    between atoms: C_16  and  C_19
REMARK    7  A    between atoms: C_17  and  N_18
REMARK    8  A    between atoms: C_22  and  C_23
REMARK                            x       y       z     vdW  Elec       q    Type
REMARK                         _______ _______ _______ _____ _____    ______ ____
ROOT
ATOM      1  N   UNL     1       1.184  12.628  19.736  0.00  0.00    +0.000 N 
ATOM      2  C   UNL     1       0.465  12.048  20.887  0.00  0.00    +0.000 C 
ATOM      3  C   UNL     1      -0.397  10.825  20.488  0.00  0.00    +0.000 C 
ATOM      4  N   UNL     1       0.311   9.774  19.708  0.00  0.00    +0.000 NA
ATOM      5  C   UNL     1       0.809  10.468  18.492  0.00  0.00    +0.000 C 
ATOM      6  C   UNL     1       1.729  11.679  18.750  0.00  0.00    +0.000 C 
ENDROOT
BRANCH   1  13
ATOM      7  C   UNL     1       1.974  14.986  19.712  0.00  0.00    +0.000 A 
ATOM      8  C   UNL     1       1.585  16.295  19.392  0.00  0.00    +0.000 A 
ATOM      9  N   UNL     1       2.403  17.415  19.600  0.00  0.00    +0.000 N 
ATOM     10  N   UNL     1       0.403  16.614  18.831  0.00  0.00    +0.000 NA
ATOM     11  C   UNL     1      -0.422  15.590  18.632  0.00  0.00    +0.000 A 
ATOM     12  N   UNL     1      -0.182  14.313  18.926  0.00  0.00    +0.000 NA
ATOM     13  C   UNL     1       1.019  13.978  19.461  0.00  0.00    +0.000 A 
ATOM     14  H   UNL     1       2.759  17.441  20.551  0.00  0.00    +0.000 HD
ATOM     15  H   UNL     1       1.855  18.238  19.365  0.00  0.00    +0.000 HD
BRANCH   7  19
ATOM     16  C   UNL     1       5.470  13.913  23.081  0.00  0.00    +0.000 C 
ATOM     17  N   UNL     1       4.801  14.290  21.861  0.00  0.00    +0.000 N 
ATOM     18  C   UNL     1       3.455  14.356  21.654  0.00  0.00    +0.000 A 
ATOM     19  C   UNL     1       3.275  14.737  20.338  0.00  0.00    +0.000 A 
ATOM     20  C   UNL     1       4.594  14.840  19.838  0.00  0.00    +0.000 A 
ATOM     21  N   UNL     1       5.524  14.604  20.770  0.00  0.00    +0.000 NA
ENDBRANCH   7  19
ENDBRANCH   1  13
BRANCH   4  22
ATOM     22  C   UNL     1       1.411   9.120  20.489  0.00  0.00    +0.000 C 
BRANCH  22  23
ATOM     23  C   UNL     1       1.821   7.742  19.945  0.00  0.00    +0.000 A 
ATOM     24  C   UNL     1       1.568   6.581  20.695  0.00  0.00    +0.000 A 
ATOM     25  C   UNL     1       1.886   5.314  20.188  0.00  0.00    +0.000 A 
ATOM     26  C   UNL     1       2.459   5.179  18.917  0.00  0.00    +0.000 A 
ATOM     27  C   UNL     1       2.733   6.336  18.176  0.00  0.00    +0.000 A 
ATOM     28  C   UNL     1       2.424   7.600  18.687  0.00  0.00    +0.000 A 
BRANCH  26  29
ATOM     29  C   UNL     1       2.766   3.824  18.329  0.00  0.00    +0.000 C 
ATOM     30  F   UNL     1       2.042   2.809  18.880  0.00  0.00    +0.000 F 
ATOM     31  F   UNL     1       2.517   3.768  16.989  0.00  0.00    +0.000 F 
ATOM     32  F   UNL     1       4.073   3.470  18.478  0.00  0.00    +0.000 F 
ENDBRANCH  26  29
ENDBRANCH  22  23
BRANCH  22  33
ATOM     33  C   UNL     1       1.087   8.989  22.025  0.00  0.00    +0.000 C 
BRANCH  33  34
ATOM     34  N   UNL     1       2.173   9.382  22.933  0.00  0.00    +0.000 NA
ATOM     35  H   UNL     1       1.862  10.186  23.478  0.00  0.00    +0.000 HD
ATOM     36  H   UNL     1       2.995   9.657  22.402  0.00  0.00    +0.000 HD
ENDBRANCH  33  34
ENDBRANCH  22  33
ENDBRANCH   4  22
TORSDOF 7
ENDMDL
MODEL 7
REMARK VINA RESULT:      -6.8      6.306      7.943
REMARK  Name = 
REMARK  8 active torsions:
REMARK  status: ('A' for Active; 'I' for Inactive)
REMARK    1  A    between atoms: C_1  and  N_2
REMARK    2  A    between atoms: C_4  and  C_5
REMARK    3  A    between atoms: C_11  and  N_12
REMARK    4  A    between atoms: N_15  and  C_16
REMARK    5  A    between atoms: C_16  and  C_17
REMARK    6  A    between atoms: C_16  and  C_19
REMARK    7  A    between atoms: C_17  and  N_18
REMARK    8  A    between atoms: C_22  and  C_23
REMARK                            x       y       z     vdW  Elec       q    Type
REMARK                         _______ _______ _______ _____ _____    ______ ____
ROOT
ATOM      1  N   UNL     1       3.254  16.662  18.376  0.00  0.00    +0.000 N 
ATOM      2  C   UNL     1       4.038  17.339  19.427  0.00  0.00    +0.000 C 
ATOM      3  C   UNL     1       4.633  16.344  20.452  0.00  0.00    +0.000 C 
ATOM      4  N   UNL     1       5.388  15.202  19.867  0.00  0.00    +0.000 NA
ATOM      5  C   UNL     1       4.412  14.508  18.987  0.00  0.00    +0.000 C 
ATOM      6  C   UNL     1       3.781  15.378  17.881  0.00  0.00    +0.000 C 
ENDROOT
BRANCH   1  13
ATOM      7  C   UNL     1       0.813  16.552  18.837  0.00  0.00    +0.000 A 
ATOM      8  C   UNL     1      -0.428  17.071  18.437  0.00  0.00    +0.000 A 
ATOM      9  N   UNL     1      -1.650  16.656  18.987  0.00  0.00    +0.000 N 
ATOM     10  N   UNL     1      -0.578  18.033  17.508  0.00  0.00    +0.000 NA
ATOM     11  C   UNL     1       0.549  18.449  16.938  0.00  0.00    +0.000 A 
ATOM     12  N   UNL     1       1.779  18.008  17.205  0.00  0.00    +0.000 NA
ATOM     13  C   UNL     1       1.942  17.062  18.163  0.00  0.00    +0.000 A 
ATOM     14  H   UNL     1      -1.738  15.645  18.971  0.00  0.00    +0.000 HD
ATOM     15  H   UNL     1      -2.389  17.122  18.468  0.00  0.00    +0.000 HD
BRANCH   7  19
ATOM     16  C   UNL     1       0.644  12.083  21.010  0.00  0.00    +0.000 C 
ATOM     17  N   UNL     1       0.762  13.502  20.784  0.00  0.00    +0.000 N 
ATOM     18  C   UNL     1       0.685  14.147  19.585  0.00  0.00    +0.000 A 
ATOM     19  C   UNL     1       0.876  15.490  19.844  0.00  0.00    +0.000 A 
ATOM     20  C   UNL     1       1.094  15.531  21.241  0.00  0.00    +0.000 A 
ATOM     21  N   UNL     1       0.990  14.330  21.819  0.00  0.00    +0.000 NA
ENDBRANCH   7  19
ENDBRANCH   1  13
BRANCH   4  22
ATOM     22  C   UNL     1       6.617  15.641  19.130  0.00  0.00    +0.000 C 
BRANCH  22  23
ATOM     23  C   UNL     1       7.703  14.558  19.038  0.00  0.00    +0.000 A 
ATOM     24  C   UNL     1       8.496  14.252  20.157  0.00  0.00    +0.000 A 
ATOM     25  C   UNL     1       9.452  13.229  20.103  0.00  0.00    +0.000 A 
ATOM     26  C   UNL     1       9.633  12.484  18.931  0.00  0.00    +0.000 A 
ATOM     27  C   UNL     1       8.860  12.801  17.806  0.00  0.00    +0.000 A 
ATOM     28  C   UNL     1       7.913  13.829  17.858  0.00  0.00    +0.000 A 
BRANCH  26  29
ATOM     29  C   UNL     1      10.621  11.346  18.862  0.00  0.00    +0.000 C 
ATOM     30  F   UNL     1      11.246  11.234  17.656  0.00  0.00    +0.000 F 
ATOM     31  F   UNL     1      11.619  11.464  19.784  0.00  0.00    +0.000 F 
ATOM     32  F   UNL     1      10.044  10.133  19.094  0.00  0.00    +0.000 F 
ENDBRANCH  26  29
ENDBRANCH  22  23
BRANCH  22  33
ATOM     33  C   UNL     1       7.255  16.957  19.718  0.00  0.00    +0.000 C 
BRANCH  33  34
ATOM     34  N   UNL     1       7.715  17.932  18.721  0.00  0.00    +0.000 NA
ATOM     35  H   UNL     1       7.309  17.687  17.818  0.00  0.00    +0.000 HD
ATOM     36  H   UNL     1       8.728  17.896  18.634  0.00  0.00    +0.000 HD
ENDBRANCH  33  34
ENDBRANCH  22  33
ENDBRANCH   4  22
TORSDOF 7
ENDMDL
MODEL 8
REMARK VINA RESULT:      -6.8      1.530      2.247
REMARK  Name = 
REMARK  8 active torsions:
REMARK  status: ('A' for Active; 'I' for Inactive)
REMARK    1  A    between atoms: C_1  and  N_2
REMARK    2  A    between atoms: C_4  and  C_5
REMARK    3  A    between atoms: C_11  and  N_12
REMARK    4  A    between atoms: N_15  and  C_16
REMARK    5  A    between atoms: C_16  and  C_17
REMARK    6  A    between atoms: C_16  and  C_19
REMARK    7  A    between atoms: C_17  and  N_18
REMARK    8  A    between atoms: C_22  and  C_23
REMARK                            x       y       z     vdW  Elec       q    Type
REMARK                         _______ _______ _______ _____ _____    ______ ____
ROOT
ATOM      1  N   UNL     1      -1.040  13.721  21.395  0.00  0.00    +0.000 N 
ATOM      2  C   UNL     1      -1.501  13.711  19.993  0.00  0.00    +0.000 C 
ATOM      3  C   UNL     1      -0.340  13.493  18.992  0.00  0.00    +0.000 C 
ATOM      4  N   UNL     1       0.538  12.326  19.281  0.00  0.00    +0.000 NA
ATOM      5  C   UNL     1       1.077  12.578  20.643  0.00  0.00    +0.000 C 
ATOM      6  C   UNL     1       0.019  12.760  21.751  0.00  0.00    +0.000 C 
ENDROOT
BRANCH   1  13
ATOM      7  C   UNL     1      -2.537  14.963  22.946  0.00  0.00    +0.000 A 
ATOM      8  C   UNL     1      -2.668  16.169  23.650  0.00  0.00    +0.000 A 
ATOM      9  N   UNL     1      -3.791  16.488  24.428  0.00  0.00    +0.000 N 
ATOM     10  N   UNL     1      -1.729  17.133  23.675  0.00  0.00    +0.000 NA
ATOM     11  C   UNL     1      -0.651  16.891  22.935  0.00  0.00    +0.000 A 
ATOM     12  N   UNL     1      -0.428  15.805  22.196  0.00  0.00    +0.000 NA
ATOM     13  C   UNL     1      -1.354  14.814  22.190  0.00  0.00    +0.000 A 
ATOM     14  H   UNL     1      -4.652  16.360  23.906  0.00  0.00    +0.000 HD
ATOM     15  H   UNL     1      -3.670  17.442  24.757  0.00  0.00    +0.000 HD
BRANCH   7  19
ATOM     16  C   UNL     1      -6.747  12.553  21.856  0.00  0.00    +0.000 C 
ATOM     17  N   UNL     1      -5.509  12.953  22.477  0.00  0.00    +0.000 N 
ATOM     18  C   UNL     1      -4.701  13.984  22.098  0.00  0.00    +0.000 A 
ATOM     19  C   UNL     1      -3.622  13.979  22.961  0.00  0.00    +0.000 A 
ATOM     20  C   UNL     1      -3.874  12.871  23.802  0.00  0.00    +0.000 A 
ATOM     21  N   UNL     1      -5.037  12.267  23.534  0.00  0.00    +0.000 NA
ENDBRANCH   7  19
ENDBRANCH   1  13
BRANCH   4  22
ATOM     22  C   UNL     1      -0.189  11.019  19.182  0.00  0.00    +0.000 C 
BRANCH  22  23
ATOM     23  C   UNL     1       0.740   9.798  19.098  0.00  0.00    +0.000 A 
ATOM     24  C   UNL     1       0.948   8.987  20.227  0.00  0.00    +0.000 A 
ATOM     25  C   UNL     1       1.749   7.840  20.151  0.00  0.00    +0.000 A 
ATOM     26  C   UNL     1       2.356   7.474  18.943  0.00  0.00    +0.000 A 
ATOM     27  C   UNL     1       2.169   8.293  17.822  0.00  0.00    +0.000 A 
ATOM     28  C   UNL     1       1.378   9.443  17.901  0.00  0.00    +0.000 A 
BRANCH  26  29
ATOM     29  C   UNL     1       3.183   6.219  18.823  0.00  0.00    +0.000 C 
ATOM     30  F   UNL     1       3.712   5.794  20.006  0.00  0.00    +0.000 F 
ATOM     31  F   UNL     1       2.465   5.164  18.341  0.00  0.00    +0.000 F 
ATOM     32  F   UNL     1       4.241   6.365  17.976  0.00  0.00    +0.000 F 
ENDBRANCH  26  29
ENDBRANCH  22  23
BRANCH  22  33
ATOM     33  C   UNL     1      -1.211  10.968  17.983  0.00  0.00    +0.000 C 
BRANCH  33  34
ATOM     34  N   UNL     1      -2.564  10.512  18.328  0.00  0.00    +0.000 NA
ATOM     35  H   UNL     1      -3.237  11.152  17.907  0.00  0.00    +0.000 HD
ATOM     36  H   UNL     1      -2.696  10.531  19.336  0.00  0.00    +0.000 HD
ENDBRANCH  33  34
ENDBRANCH  22  33
ENDBRANCH   4  22
TORSDOF 7
ENDMDL
MODEL 9
REMARK VINA RESULT:      -6.8      3.516      6.077
REMARK  Name = 
REMARK  8 active torsions:
REMARK  status: ('A' for Active; 'I' for Inactive)
REMARK    1  A    between atoms: C_1  and  N_2
REMARK    2  A    between atoms: C_4  and  C_5
REMARK    3  A    between atoms: C_11  and  N_12
REMARK    4  A    between atoms: N_15  and  C_16
REMARK    5  A    between atoms: C_16  and  C_17
REMARK    6  A    between atoms: C_16  and  C_19
REMARK    7  A    between atoms: C_17  and  N_18
REMARK    8  A    between atoms: C_22  and  C_23
REMARK                            x       y       z     vdW  Elec       q    Type
REMARK                         _______ _______ _______ _____ _____    ______ ____
ROOT
ATOM      1  N   UNL     1       0.563  12.901  20.099  0.00  0.00    +0.000 N 
ATOM      2  C   UNL     1       0.114  12.260  21.350  0.00  0.00    +0.000 C 
ATOM      3  C   UNL     1      -0.708  10.975  21.092  0.00  0.00    +0.000 C 
ATOM      4  N   UNL     1      -0.075   9.987  20.176  0.00  0.00    +0.000 NA
ATOM      5  C   UNL     1       0.136  10.724  18.903  0.00  0.00    +0.000 C 
ATOM      6  C   UNL     1       0.991  12.004  19.012  0.00  0.00    +0.000 C 
ENDROOT
BRANCH   1  13
ATOM      7  C   UNL     1       1.158  15.240  19.497  0.00  0.00    +0.000 A 
ATOM      8  C   UNL     1       0.630  16.534  19.373  0.00  0.00    +0.000 A 
ATOM      9  N   UNL     1       1.403  17.651  19.021  0.00  0.00    +0.000 N 
ATOM     10  N   UNL     1      -0.669  16.839  19.554  0.00  0.00    +0.000 NA
ATOM     11  C   UNL     1      -1.444  15.819  19.911  0.00  0.00    +0.000 A 
ATOM     12  N   UNL     1      -1.055  14.558  20.096  0.00  0.00    +0.000 NA
ATOM     13  C   UNL     1       0.246  14.236  19.885  0.00  0.00    +0.000 A 
ATOM     14  H   UNL     1       2.230  17.727  19.605  0.00  0.00    +0.000 HD
ATOM     15  H   UNL     1       0.801  18.467  19.084  0.00  0.00    +0.000 HD
BRANCH   7  19
ATOM     16  C   UNL     1       6.049  14.906  20.326  0.00  0.00    +0.000 C 
ATOM     17  N   UNL     1       4.755  14.901  19.689  0.00  0.00    +0.000 N 
ATOM     18  C   UNL     1       3.552  15.141  20.284  0.00  0.00    +0.000 A 
ATOM     19  C   UNL     1       2.591  15.008  19.301  0.00  0.00    +0.000 A 
ATOM     20  C   UNL     1       3.336  14.650  18.153  0.00  0.00    +0.000 A 
ATOM     21  N   UNL     1       4.654  14.619  18.378  0.00  0.00    +0.000 NA
ENDBRANCH   7  19
ENDBRANCH   1  13
BRANCH   4  22
ATOM     22  C   UNL     1       1.197   9.420  20.730  0.00  0.00    +0.000 C 
BRANCH  22  23
ATOM     23  C   UNL     1       1.685   8.161  19.996  0.00  0.00    +0.000 A 
ATOM     24  C   UNL     1       1.640   6.908  20.631  0.00  0.00    +0.000 A 
ATOM     25  C   UNL     1       2.030   5.745  19.954  0.00  0.00    +0.000 A 
ATOM     26  C   UNL     1       2.468   5.807  18.625  0.00  0.00    +0.000 A 
ATOM     27  C   UNL     1       2.536   7.058  17.997  0.00  0.00    +0.000 A 
ATOM     28  C   UNL     1       2.156   8.219  18.676  0.00  0.00    +0.000 A 
BRANCH  26  29
ATOM     29  C   UNL     1       2.847   4.564  17.860  0.00  0.00    +0.000 C 
ATOM     30  F   UNL     1       3.811   4.772  16.918  0.00  0.00    +0.000 F 
ATOM     31  F   UNL     1       3.331   3.579  18.669  0.00  0.00    +0.000 F 
ATOM     32  F   UNL     1       1.793   4.013  17.195  0.00  0.00    +0.000 F 
ENDBRANCH  26  29
ENDBRANCH  22  23
BRANCH  22  33
ATOM     33  C   UNL     1       1.117   9.114  22.274  0.00  0.00    +0.000 C 
BRANCH  33  34
ATOM     34  N   UNL     1       2.360   9.335  23.025  0.00  0.00    +0.000 NA
ATOM     35  H   UNL     1       2.797   8.429  23.199  0.00  0.00    +0.000 HD
ATOM     36  H   UNL     1       2.158   9.768  23.922  0.00  0.00    +0.000 HD
ENDBRANCH  33  34
ENDBRANCH  22  33
ENDBRANCH   4  22
TORSDOF 7
ENDMDL
