MODEL 1
REMARK VINA RESULT:      -8.8      0.000      0.000
REMARK  Name = 
REMARK  2 active torsions:
REMARK  status: ('A' for Active; 'I' for Inactive)
REMARK    1  A    between atoms: C_2  and  C_3
REMARK    2  A    between atoms: C_2  and  C_12
REMARK                            x       y       z     vdW  Elec       q    Type
REMARK                         _______ _______ _______ _____ _____    ______ ____
ROOT
ATOM      1  O   UNL     1       7.488   5.839  18.438  0.00  0.00    +0.000 OA
ATOM      2  C   UNL     1       6.519   5.289  17.902  0.00  0.00    +0.000 C 
ENDROOT
BRANCH   2   3
ATOM      3  C   UNL     1       6.496   4.888  16.507  0.00  0.00    +0.000 A 
ATOM      4  C   UNL     1       5.698   3.991  15.821  0.00  0.00    +0.000 A 
ATOM      5  C   UNL     1       6.095   4.039  14.459  0.00  0.00    +0.000 A 
ATOM      6  C   UNL     1       5.664   3.427  13.267  0.00  0.00    +0.000 A 
ATOM      7  C   UNL     1       6.330   3.736  12.072  0.00  0.00    +0.000 A 
ATOM      8  C   UNL     1       7.406   4.627  12.061  0.00  0.00    +0.000 A 
ATOM      9  C   UNL     1       7.846   5.249  13.234  0.00  0.00    +0.000 A 
ATOM     10  C   UNL     1       7.154   4.931  14.399  0.00  0.00    +0.000 A 
ATOM     11  O   UNL     1       7.404   5.438  15.634  0.00  0.00    +0.000 OA
ENDBRANCH   2   3
BRANCH   2  12
ATOM     12  C   UNL     1       5.287   4.976  18.604  0.00  0.00    +0.000 A 
ATOM     13  C   UNL     1       4.125   5.702  18.788  0.00  0.00    +0.000 A 
ATOM     14  C   UNL     1       3.232   4.877  19.523  0.00  0.00    +0.000 A 
ATOM     15  C   UNL     1       1.910   4.993  19.985  0.00  0.00    +0.000 A 
ATOM     16  C   UNL     1       1.349   3.926  20.701  0.00  0.00    +0.000 A 
ATOM     17  C   UNL     1       2.089   2.770  20.963  0.00  0.00    +0.000 A 
ATOM     18  C   UNL     1       3.405   2.631  20.507  0.00  0.00    +0.000 A 
ATOM     19  C   UNL     1       3.924   3.705  19.787  0.00  0.00    +0.000 A 
ATOM     20  O   UNL     1       5.167   3.766  19.241  0.00  0.00    +0.000 OA
ENDBRANCH   2  12
TORSDOF 2
ENDMDL
MODEL 2
REMARK VINA RESULT:      -8.8      0.110      6.834
REMARK  Name = 
REMARK  2 active torsions:
REMARK  status: ('A' for Active; 'I' for Inactive)
REMARK    1  A    between atoms: C_2  and  C_3
REMARK    2  A    between atoms: C_2  and  C_12
REMARK                            x       y       z     vdW  Elec       q    Type
REMARK                         _______ _______ _______ _____ _____    ______ ____
ROOT
ATOM      1  O   UNL     1       7.435   6.046  18.322  0.00  0.00    +0.000 OA
ATOM      2  C   UNL     1       6.490   5.427  17.822  0.00  0.00    +0.000 C 
ENDROOT
BRANCH   2   3
ATOM      3  C   UNL     1       5.289   5.067  18.554  0.00  0.00    +0.000 A 
ATOM      4  C   UNL     1       4.114   5.756  18.790  0.00  0.00    +0.000 A 
ATOM      5  C   UNL     1       3.267   4.892  19.531  0.00  0.00    +0.000 A 
ATOM      6  C   UNL     1       1.955   4.963  20.034  0.00  0.00    +0.000 A 
ATOM      7  C   UNL     1       1.444   3.867  20.743  0.00  0.00    +0.000 A 
ATOM      8  C   UNL     1       2.222   2.726  20.959  0.00  0.00    +0.000 A 
ATOM      9  C   UNL     1       3.528   2.634  20.463  0.00  0.00    +0.000 A 
ATOM     10  C   UNL     1       3.997   3.735  19.751  0.00  0.00    +0.000 A 
ATOM     11  O   UNL     1       5.220   3.840  19.170  0.00  0.00    +0.000 OA
ENDBRANCH   2   3
BRANCH   2  12
ATOM     12  C   UNL     1       6.465   4.984  16.438  0.00  0.00    +0.000 A 
ATOM     13  C   UNL     1       5.654   4.083  15.776  0.00  0.00    +0.000 A 
ATOM     14  C   UNL     1       6.059   4.080  14.415  0.00  0.00    +0.000 A 
ATOM     15  C   UNL     1       5.627   3.440  13.241  0.00  0.00    +0.000 A 
ATOM     16  C   UNL     1       6.305   3.700  12.042  0.00  0.00    +0.000 A 
ATOM     17  C   UNL     1       7.397   4.571  12.009  0.00  0.00    +0.000 A 
ATOM     18  C   UNL     1       7.841   5.223  13.165  0.00  0.00    +0.000 A 
ATOM     19  C   UNL     1       7.135   4.952  14.335  0.00  0.00    +0.000 A 
ATOM     20  O   UNL     1       7.387   5.492  15.556  0.00  0.00    +0.000 OA
ENDBRANCH   2  12
TORSDOF 2
ENDMDL
MODEL 3
REMARK VINA RESULT:      -8.5      0.692      6.830
REMARK  Name = 
REMARK  2 active torsions:
REMARK  status: ('A' for Active; 'I' for Inactive)
REMARK    1  A    between atoms: C_2  and  C_3
REMARK    2  A    between atoms: C_2  and  C_12
REMARK                            x       y       z     vdW  Elec       q    Type
REMARK                         _______ _______ _______ _____ _____    ______ ____
ROOT
ATOM      1  O   UNL     1       7.601   5.089  18.667  0.00  0.00    +0.000 OA
ATOM      2  C   UNL     1       6.599   4.710  18.051  0.00  0.00    +0.000 C 
ENDROOT
BRANCH   2   3
ATOM      3  C   UNL     1       5.325   4.428  18.687  0.00  0.00    +0.000 A 
ATOM      4  C   UNL     1       4.746   3.243  19.100  0.00  0.00    +0.000 A 
ATOM      5  C   UNL     1       3.505   3.575  19.702  0.00  0.00    +0.000 A 
ATOM      6  C   UNL     1       2.481   2.858  20.349  0.00  0.00    +0.000 A 
ATOM      7  C   UNL     1       1.366   3.560  20.829  0.00  0.00    +0.000 A 
ATOM      8  C   UNL     1       1.264   4.944  20.662  0.00  0.00    +0.000 A 
ATOM      9  C   UNL     1       2.273   5.675  20.026  0.00  0.00    +0.000 A 
ATOM     10  C   UNL     1       3.372   4.948  19.576  0.00  0.00    +0.000 A 
ATOM     11  O   UNL     1       4.464   5.465  18.956  0.00  0.00    +0.000 OA
ENDBRANCH   2   3
BRANCH   2  12
ATOM     12  C   UNL     1       6.576   4.502  16.613  0.00  0.00    +0.000 A 
ATOM     13  C   UNL     1       5.776   3.708  15.813  0.00  0.00    +0.000 A 
ATOM     14  C   UNL     1       6.175   3.936  14.470  0.00  0.00    +0.000 A 
ATOM     15  C   UNL     1       5.747   3.492  13.207  0.00  0.00    +0.000 A 
ATOM     16  C   UNL     1       6.415   3.958  12.065  0.00  0.00    +0.000 A 
ATOM     17  C   UNL     1       7.493   4.841  12.175  0.00  0.00    +0.000 A 
ATOM     18  C   UNL     1       7.931   5.300  13.421  0.00  0.00    +0.000 A 
ATOM     19  C   UNL     1       7.235   4.828  14.532  0.00  0.00    +0.000 A 
ATOM     20  O   UNL     1       7.484   5.164  15.824  0.00  0.00    +0.000 OA
ENDBRANCH   2  12
TORSDOF 2
ENDMDL
MODEL 4
REMARK VINA RESULT:      -8.5      0.860      1.495
REMARK  Name = 
REMARK  2 active torsions:
REMARK  status: ('A' for Active; 'I' for Inactive)
REMARK    1  A    between atoms: C_2  and  C_3
REMARK    2  A    between atoms: C_2  and  C_12
REMARK                            x       y       z     vdW  Elec       q    Type
REMARK                         _______ _______ _______ _____ _____    ______ ____
ROOT
ATOM      1  O   UNL     1       7.893   4.737  18.424  0.00  0.00    +0.000 OA
ATOM      2  C   UNL     1       6.820   4.580  17.832  0.00  0.00    +0.000 C 
ENDROOT
BRANCH   2   3
ATOM      3  C   UNL     1       6.714   4.403  16.395  0.00  0.00    +0.000 A 
ATOM      4  C   UNL     1       5.871   3.625  15.624  0.00  0.00    +0.000 A 
ATOM      5  C   UNL     1       6.191   3.886  14.266  0.00  0.00    +0.000 A 
ATOM      6  C   UNL     1       5.688   3.469  13.019  0.00  0.00    +0.000 A 
ATOM      7  C   UNL     1       6.288   3.963  11.851  0.00  0.00    +0.000 A 
ATOM      8  C   UNL     1       7.370   4.844  11.919  0.00  0.00    +0.000 A 
ATOM      9  C   UNL     1       7.880   5.275  13.148  0.00  0.00    +0.000 A 
ATOM     10  C   UNL     1       7.252   4.777  14.286  0.00  0.00    +0.000 A 
ATOM     11  O   UNL     1       7.576   5.084  15.569  0.00  0.00    +0.000 OA
ENDBRANCH   2   3
BRANCH   2  12
ATOM     12  C   UNL     1       5.532   4.551  18.504  0.00  0.00    +0.000 A 
ATOM     13  C   UNL     1       4.804   3.512  19.051  0.00  0.00    +0.000 A 
ATOM     14  C   UNL     1       3.632   4.078  19.618  0.00  0.00    +0.000 A 
ATOM     15  C   UNL     1       2.532   3.590  20.345  0.00  0.00    +0.000 A 
ATOM     16  C   UNL     1       1.536   4.491  20.748  0.00  0.00    +0.000 A 
ATOM     17  C   UNL     1       1.625   5.849  20.431  0.00  0.00    +0.000 A 
ATOM     18  C   UNL     1       2.714   6.357  19.714  0.00  0.00    +0.000 A 
ATOM     19  C   UNL     1       3.691   5.436  19.341  0.00  0.00    +0.000 A 
ATOM     20  O   UNL     1       4.832   5.722  18.662  0.00  0.00    +0.000 OA
ENDBRANCH   2  12
TORSDOF 2
ENDMDL
MODEL 5
REMARK VINA RESULT:      -8.2      0.915      1.478
REMARK  Name = 
REMARK  2 active torsions:
REMARK  status: ('A' for Active; 'I' for Inactive)
REMARK    1  A    between atoms: C_2  and  C_3
REMARK    2  A    between atoms: C_2  and  C_12
REMARK                            x       y       z     vdW  Elec       q    Type
REMARK                         _______ _______ _______ _____ _____    ______ ____
ROOT
ATOM      1  O   UNL     1       7.603   4.591  18.638  0.00  0.00    +0.000 OA
ATOM      2  C   UNL     1       6.631   4.483  17.882  0.00  0.00    +0.000 C 
ENDROOT
BRANCH   2   3
ATOM      3  C   UNL     1       6.733   4.519  16.435  0.00  0.00    +0.000 A 
ATOM      4  C   UNL     1       7.491   5.304  15.586  0.00  0.00    +0.000 A 
ATOM      5  C   UNL     1       7.219   4.867  14.263  0.00  0.00    +0.000 A 
ATOM      6  C   UNL     1       7.686   5.207  12.979  0.00  0.00    +0.000 A 
ATOM      7  C   UNL     1       7.161   4.529  11.870  0.00  0.00    +0.000 A 
ATOM      8  C   UNL     1       6.186   3.540  12.030  0.00  0.00    +0.000 A 
ATOM      9  C   UNL     1       5.714   3.184  13.298  0.00  0.00    +0.000 A 
ATOM     10  C   UNL     1       6.267   3.868  14.377  0.00  0.00    +0.000 A 
ATOM     11  O   UNL     1       5.965   3.661  15.685  0.00  0.00    +0.000 OA
ENDBRANCH   2   3
BRANCH   2  12
ATOM     12  C   UNL     1       5.268   4.304  18.352  0.00  0.00    +0.000 A 
ATOM     13  C   UNL     1       4.069   4.830  17.911  0.00  0.00    +0.000 A 
ATOM     14  C   UNL     1       3.047   4.270  18.723  0.00  0.00    +0.000 A 
ATOM     15  C   UNL     1       1.644   4.350  18.767  0.00  0.00    +0.000 A 
ATOM     16  C   UNL     1       0.957   3.625  19.751  0.00  0.00    +0.000 A 
ATOM     17  C   UNL     1       1.649   2.841  20.679  0.00  0.00    +0.000 A 
ATOM     18  C   UNL     1       3.044   2.743  20.649  0.00  0.00    +0.000 A 
ATOM     19  C   UNL     1       3.692   3.465  19.650  0.00  0.00    +0.000 A 
ATOM     20  O   UNL     1       5.033   3.491  19.434  0.00  0.00    +0.000 OA
ENDBRANCH   2  12
TORSDOF 2
ENDMDL
MODEL 6
REMARK VINA RESULT:      -8.2      0.907      6.734
REMARK  Name = 
REMARK  2 active torsions:
REMARK  status: ('A' for Active; 'I' for Inactive)
REMARK    1  A    between atoms: C_2  and  C_3
REMARK    2  A    between atoms: C_2  and  C_12
REMARK                            x       y       z     vdW  Elec       q    Type
REMARK                         _______ _______ _______ _____ _____    ______ ____
ROOT
ATOM      1  O   UNL     1       7.614   4.581  18.670  0.00  0.00    +0.000 OA
ATOM      2  C   UNL     1       6.637   4.463  17.921  0.00  0.00    +0.000 C 
ENDROOT
BRANCH   2   3
ATOM      3  C   UNL     1       5.279   4.280  18.398  0.00  0.00    +0.000 A 
ATOM      4  C   UNL     1       4.080   4.838  17.995  0.00  0.00    +0.000 A 
ATOM      5  C   UNL     1       3.061   4.253  18.791  0.00  0.00    +0.000 A 
ATOM      6  C   UNL     1       1.658   4.347  18.852  0.00  0.00    +0.000 A 
ATOM      7  C   UNL     1       0.972   3.587  19.810  0.00  0.00    +0.000 A 
ATOM      8  C   UNL     1       1.665   2.757  20.697  0.00  0.00    +0.000 A 
ATOM      9  C   UNL     1       3.059   2.647  20.649  0.00  0.00    +0.000 A 
ATOM     10  C   UNL     1       3.705   3.404  19.676  0.00  0.00    +0.000 A 
ATOM     11  O   UNL     1       5.044   3.425  19.447  0.00  0.00    +0.000 OA
ENDBRANCH   2   3
BRANCH   2  12
ATOM     12  C   UNL     1       6.732   4.495  16.472  0.00  0.00    +0.000 A 
ATOM     13  C   UNL     1       7.507   5.257  15.619  0.00  0.00    +0.000 A 
ATOM     14  C   UNL     1       7.214   4.829  14.297  0.00  0.00    +0.000 A 
ATOM     15  C   UNL     1       7.678   5.154  13.011  0.00  0.00    +0.000 A 
ATOM     16  C   UNL     1       7.126   4.490  11.906  0.00  0.00    +0.000 A 
ATOM     17  C   UNL     1       6.126   3.529  12.073  0.00  0.00    +0.000 A 
ATOM     18  C   UNL     1       5.653   3.186  13.344  0.00  0.00    +0.000 A 
ATOM     19  C   UNL     1       6.234   3.855  14.419  0.00  0.00    +0.000 A 
ATOM     20  O   UNL     1       5.936   3.658  15.730  0.00  0.00    +0.000 OA
ENDBRANCH   2  12
TORSDOF 2
ENDMDL
MODEL 7
REMARK VINA RESULT:      -8.2      0.883      6.881
REMARK  Name = 
REMARK  2 active torsions:
REMARK  status: ('A' for Active; 'I' for Inactive)
REMARK    1  A    between atoms: C_2  and  C_3
REMARK    2  A    between atoms: C_2  and  C_12
REMARK                            x       y       z     vdW  Elec       q    Type
REMARK                         _______ _______ _______ _____ _____    ______ ____
ROOT
ATOM      1  O   UNL     1       6.352   6.670  18.000  0.00  0.00    +0.000 OA
ATOM      2  C   UNL     1       5.753   5.680  17.565  0.00  0.00    +0.000 C 
ENDROOT
BRANCH   2   3
ATOM      3  C   UNL     1       4.784   4.925  18.338  0.00  0.00    +0.000 A 
ATOM      4  C   UNL     1       4.937   3.933  19.288  0.00  0.00    +0.000 A 
ATOM      5  C   UNL     1       3.637   3.591  19.745  0.00  0.00    +0.000 A 
ATOM      6  C   UNL     1       3.113   2.714  20.713  0.00  0.00    +0.000 A 
ATOM      7  C   UNL     1       1.722   2.650  20.882  0.00  0.00    +0.000 A 
ATOM      8  C   UNL     1       0.868   3.434  20.101  0.00  0.00    +0.000 A 
ATOM      9  C   UNL     1       1.370   4.315  19.138  0.00  0.00    +0.000 A 
ATOM     10  C   UNL     1       2.755   4.363  19.006  0.00  0.00    +0.000 A 
ATOM     11  O   UNL     1       3.443   5.163  18.151  0.00  0.00    +0.000 OA
ENDBRANCH   2   3
BRANCH   2  12
ATOM     12  C   UNL     1       5.948   5.152  16.226  0.00  0.00    +0.000 A 
ATOM     13  C   UNL     1       5.285   4.164  15.523  0.00  0.00    +0.000 A 
ATOM     14  C   UNL     1       5.878   4.101  14.234  0.00  0.00    +0.000 A 
ATOM     15  C   UNL     1       5.649   3.365  13.059  0.00  0.00    +0.000 A 
ATOM     16  C   UNL     1       6.477   3.590  11.949  0.00  0.00    +0.000 A 
ATOM     17  C   UNL     1       7.517   4.521  12.007  0.00  0.00    +0.000 A 
ATOM     18  C   UNL     1       7.759   5.268  13.165  0.00  0.00    +0.000 A 
ATOM     19  C   UNL     1       6.909   5.029  14.243  0.00  0.00    +0.000 A 
ATOM     20  O   UNL     1       6.958   5.658  15.445  0.00  0.00    +0.000 OA
ENDBRANCH   2  12
TORSDOF 2
ENDMDL
MODEL 8
REMARK VINA RESULT:      -8.0      1.052      1.172
REMARK  Name = 
REMARK  2 active torsions:
REMARK  status: ('A' for Active; 'I' for Inactive)
REMARK    1  A    between atoms: C_2  and  C_3
REMARK    2  A    between atoms: C_2  and  C_12
REMARK                            x       y       z     vdW  Elec       q    Type
REMARK                         _______ _______ _______ _____ _____    ______ ____
ROOT
ATOM      1  O   UNL     1       7.074   5.225  18.429  0.00  0.00    +0.000 OA
ATOM      2  C   UNL     1       6.189   4.779  17.690  0.00  0.00    +0.000 C 
ENDROOT
BRANCH   2   3
ATOM      3  C   UNL     1       6.369   4.563  16.265  0.00  0.00    +0.000 A 
ATOM      4  C   UNL     1       5.815   3.639  15.399  0.00  0.00    +0.000 A 
ATOM      5  C   UNL     1       6.322   3.928  14.105  0.00  0.00    +0.000 A 
ATOM      6  C   UNL     1       6.123   3.410  12.812  0.00  0.00    +0.000 A 
ATOM      7  C   UNL     1       6.829   3.978  11.741  0.00  0.00    +0.000 A 
ATOM      8  C   UNL     1       7.721   5.032  11.951  0.00  0.00    +0.000 A 
ATOM      9  C   UNL     1       7.929   5.565  13.228  0.00  0.00    +0.000 A 
ATOM     10  C   UNL     1       7.201   4.986  14.265  0.00  0.00    +0.000 A 
ATOM     11  O   UNL     1       7.239   5.366  15.568  0.00  0.00    +0.000 OA
ENDBRANCH   2   3
BRANCH   2  12
ATOM     12  C   UNL     1       4.863   4.417  18.157  0.00  0.00    +0.000 A 
ATOM     13  C   UNL     1       3.801   3.802  17.521  0.00  0.00    +0.000 A 
ATOM     14  C   UNL     1       2.766   3.660  18.482  0.00  0.00    +0.000 A 
ATOM     15  C   UNL     1       1.480   3.092  18.496  0.00  0.00    +0.000 A 
ATOM     16  C   UNL     1       0.729   3.151  19.678  0.00  0.00    +0.000 A 
ATOM     17  C   UNL     1       1.240   3.768  20.823  0.00  0.00    +0.000 A 
ATOM     18  C   UNL     1       2.519   4.335  20.833  0.00  0.00    +0.000 A 
ATOM     19  C   UNL     1       3.242   4.246  19.646  0.00  0.00    +0.000 A 
ATOM     20  O   UNL     1       4.503   4.711  19.449  0.00  0.00    +0.000 OA
ENDBRANCH   2  12
TORSDOF 2
ENDMDL
MODEL 9
REMARK VINA RESULT:      -7.8      1.027      1.897
REMARK  Name = 
REMARK  2 active torsions:
REMARK  status: ('A' for Active; 'I' for Inactive)
REMARK    1  A    between atoms: C_2  and  C_3
REMARK    2  A    between atoms: C_2  and  C_12
REMARK                            x       y       z     vdW  Elec       q    Type
REMARK                         _______ _______ _______ _____ _____    ______ ____
ROOT
ATOM      1  O   UNL     1       7.343   4.975  18.924  0.00  0.00    +0.000 OA
ATOM      2  C   UNL     1       6.426   4.651  18.161  0.00  0.00    +0.000 C 
ENDROOT
BRANCH   2   3
ATOM      3  C   UNL     1       6.557   4.624  16.716  0.00  0.00    +0.000 A 
ATOM      4  C   UNL     1       7.432   5.267  15.860  0.00  0.00    +0.000 A 
ATOM      5  C   UNL     1       7.125   4.828  14.546  0.00  0.00    +0.000 A 
ATOM      6  C   UNL     1       7.656   5.056  13.262  0.00  0.00    +0.000 A 
ATOM      7  C   UNL     1       7.060   4.421  12.163  0.00  0.00    +0.000 A 
ATOM      8  C   UNL     1       5.953   3.585  12.332  0.00  0.00    +0.000 A 
ATOM      9  C   UNL     1       5.413   3.342  13.600  0.00  0.00    +0.000 A 
ATOM     10  C   UNL     1       6.039   3.976  14.669  0.00  0.00    +0.000 A 
ATOM     11  O   UNL     1       5.689   3.858  15.976  0.00  0.00    +0.000 OA
ENDBRANCH   2   3
BRANCH   2  12
ATOM     12  C   UNL     1       5.106   4.255  18.620  0.00  0.00    +0.000 A 
ATOM     13  C   UNL     1       4.458   3.035  18.611  0.00  0.00    +0.000 A 
ATOM     14  C   UNL     1       3.195   3.229  19.231  0.00  0.00    +0.000 A 
ATOM     15  C   UNL     1       2.107   2.408  19.570  0.00  0.00    +0.000 A 
ATOM     16  C   UNL     1       0.994   2.986  20.197  0.00  0.00    +0.000 A 
ATOM     17  C   UNL     1       0.958   4.355  20.475  0.00  0.00    +0.000 A 
ATOM     18  C   UNL     1       2.032   5.190  20.150  0.00  0.00    +0.000 A 
ATOM     19  C   UNL     1       3.126   4.580  19.541  0.00  0.00    +0.000 A 
ATOM     20  O   UNL     1       4.274   5.201  19.166  0.00  0.00    +0.000 OA
ENDBRANCH   2  12
TORSDOF 2
ENDMDL
